MODEL 1
REMARK VINA RESULT:      -5.4      0.000      0.000
REMARK  Name = 
REMARK  9 active torsions:
REMARK  status: ('A' for Active; 'I' for Inactive)
REMARK    1  A    between atoms: C_1  and  O_2
REMARK    2  A    between atoms: O_2  and  C_3
REMARK    3  A    between atoms: C_8  and  O_9
REMARK    4  A    between atoms: O_9  and  C_10
REMARK    5  A    between atoms: C_10  and  C_11
REMARK    6  A    between atoms: C_11  and  O_12
REMARK    7  A    between atoms: C_11  and  C_13
REMARK    8  A    between atoms: C_13  and  O_14
REMARK    9  A    between atoms: O_14  and  C_15
REMARK                            x       y       z     vdW  Elec       q    Type
REMARK                         _______ _______ _______ _____ _____    ______ ____
ROOT
ATOM      1  C   UNL     1       8.136  -2.460  22.769  0.00  0.00    +0.264 C 
ENDROOT
BRANCH   1   2
ATOM      2  O   UNL     1       9.322  -1.784  22.362  0.00  0.00    -0.486 OA
BRANCH   2   4
ATOM      3  C   UNL     1       9.873  -0.034  24.077  0.00  0.00    +0.161 A 
ATOM      4  C   UNL     1       9.606  -0.512  22.781  0.00  0.00    +0.162 A 
ATOM      5  C   UNL     1       9.633   0.394  21.709  0.00  0.00    +0.049 A 
ATOM      6  C   UNL     1       9.948   1.739  21.899  0.00  0.00    +0.004 A 
ATOM      7  C   UNL     1      10.252   2.198  23.172  0.00  0.00    +0.004 A 
ATOM      8  C   UNL     1      10.220   1.316  24.252  0.00  0.00    +0.049 A 
BRANCH   3  10
ATOM      9  C   UNL     1       8.949  -0.629  26.179  0.00  0.00    +0.277 C 
ATOM     10  O   UNL     1       9.880  -0.910  25.134  0.00  0.00    -0.491 OA
ENDBRANCH   3  10
ENDBRANCH   2   4
ENDBRANCH   1   2
BRANCH   1  11
ATOM     11  C   UNL     1       8.425  -3.702  23.637  0.00  0.00    +0.189 C 
BRANCH  11  12
ATOM     12  O   UNL     1       9.750  -3.706  24.184  0.00  0.00    -0.385 OA
ATOM     13  H   UNL     1      10.259  -4.386  23.704  0.00  0.00    +0.210 HD
ENDBRANCH  11  12
BRANCH  11  14
ATOM     14  C   UNL     1       7.420  -3.759  24.797  0.00  0.00    +0.268 C 
BRANCH  14  15
ATOM     15  O   UNL     1       7.426  -5.037  25.453  0.00  0.00    -0.448 OA
BRANCH  15  16
ATOM     16  C   UNL     1       8.067  -5.073  26.640  0.00  0.00    +0.398 C 
ATOM     17  O   UNL     1       8.999  -4.365  26.980  0.00  0.00    -0.227 OA
ATOM     18  N   UNL     1       7.531  -6.035  27.425  0.00  0.00    -0.295 N 
ATOM     19  H   UNL     1       7.865  -6.139  28.368  0.00  0.00    +0.148 HD
ATOM     20  H   UNL     1       6.710  -6.530  27.107  0.00  0.00    +0.148 HD
ENDBRANCH  15  16
ENDBRANCH  14  15
ENDBRANCH  11  14
ENDBRANCH   1  11
TORSDOF 8
ENDMDL
MODEL 2
REMARK VINA RESULT:      -5.3      3.125      6.557
REMARK  Name = 
REMARK  9 active torsions:
REMARK  status: ('A' for Active; 'I' for Inactive)
REMARK    1  A    between atoms: C_1  and  O_2
REMARK    2  A    between atoms: O_2  and  C_3
REMARK    3  A    between atoms: C_8  and  O_9
REMARK    4  A    between atoms: O_9  and  C_10
REMARK    5  A    between atoms: C_10  and  C_11
REMARK    6  A    between atoms: C_11  and  O_12
REMARK    7  A    between atoms: C_11  and  C_13
REMARK    8  A    between atoms: C_13  and  O_14
REMARK    9  A    between atoms: O_14  and  C_15
REMARK                            x       y       z     vdW  Elec       q    Type
REMARK                         _______ _______ _______ _____ _____    ______ ____
ROOT
ATOM      1  C   UNL     1       9.818  -2.256  23.942  0.00  0.00    +0.264 C 
ENDROOT
BRANCH   1   2
ATOM      2  O   UNL     1       9.779  -3.662  24.169  0.00  0.00    -0.486 OA
BRANCH   2   4
ATOM      3  C   UNL     1       7.529  -4.757  23.962  0.00  0.00    +0.161 A 
ATOM      4  C   UNL     1       8.660  -4.284  24.652  0.00  0.00    +0.162 A 
ATOM      5  C   UNL     1       8.721  -4.456  26.044  0.00  0.00    +0.049 A 
ATOM      6  C   UNL     1       7.707  -5.108  26.744  0.00  0.00    +0.004 A 
ATOM      7  C   UNL     1       6.613  -5.610  26.055  0.00  0.00    +0.004 A 
ATOM      8  C   UNL     1       6.528  -5.440  24.673  0.00  0.00    +0.049 A 
BRANCH   3  10
ATOM      9  C   UNL     1       7.082  -5.796  21.877  0.00  0.00    +0.277 C 
ATOM     10  O   UNL     1       7.464  -4.624  22.597  0.00  0.00    -0.491 OA
ENDBRANCH   3  10
ENDBRANCH   2   4
ENDBRANCH   1   2
BRANCH   1  11
ATOM     11  C   UNL     1       9.743  -1.890  22.446  0.00  0.00    +0.189 C 
BRANCH  11  12
ATOM     12  O   UNL     1       8.425  -2.034  21.900  0.00  0.00    -0.385 OA
ATOM     13  H   UNL     1       8.063  -2.875  22.236  0.00  0.00    +0.210 HD
ENDBRANCH  11  12
BRANCH  11  14
ATOM     14  C   UNL     1      10.194  -0.435  22.252  0.00  0.00    +0.268 C 
BRANCH  14  15
ATOM     15  O   UNL     1       9.445   0.229  21.222  0.00  0.00    -0.448 OA
BRANCH  15  16
ATOM     16  C   UNL     1       9.036   1.480  21.520  0.00  0.00    +0.398 C 
ATOM     17  O   UNL     1       7.889   1.892  21.485  0.00  0.00    -0.227 OA
ATOM     18  N   UNL     1      10.098   2.243  21.864  0.00  0.00    -0.295 N 
ATOM     19  H   UNL     1       9.941   3.188  22.173  0.00  0.00    +0.148 HD
ATOM     20  H   UNL     1      11.008   1.814  21.945  0.00  0.00    +0.148 HD
ENDBRANCH  15  16
ENDBRANCH  14  15
ENDBRANCH  11  14
ENDBRANCH   1  11
TORSDOF 8
ENDMDL
MODEL 3
REMARK VINA RESULT:      -5.3      3.241      6.086
REMARK  Name = 
REMARK  9 active torsions:
REMARK  status: ('A' for Active; 'I' for Inactive)
REMARK    1  A    between atoms: C_1  and  O_2
REMARK    2  A    between atoms: O_2  and  C_3
REMARK    3  A    between atoms: C_8  and  O_9
REMARK    4  A    between atoms: O_9  and  C_10
REMARK    5  A    between atoms: C_10  and  C_11
REMARK    6  A    between atoms: C_11  and  O_12
REMARK    7  A    between atoms: C_11  and  C_13
REMARK    8  A    between atoms: C_13  and  O_14
REMARK    9  A    between atoms: O_14  and  C_15
REMARK                            x       y       z     vdW  Elec       q    Type
REMARK                         _______ _______ _______ _____ _____    ______ ____
ROOT
ATOM      1  C   UNL     1       9.945  -2.373  23.783  0.00  0.00    +0.264 C 
ENDROOT
BRANCH   1   2
ATOM      2  O   UNL     1       8.537  -2.516  23.940  0.00  0.00    -0.486 OA
BRANCH   2   4
ATOM      3  C   UNL     1       7.920  -4.884  23.379  0.00  0.00    +0.161 A 
ATOM      4  C   UNL     1       7.833  -3.485  23.277  0.00  0.00    +0.162 A 
ATOM      5  C   UNL     1       6.893  -2.930  22.394  0.00  0.00    +0.049 A 
ATOM      6  C   UNL     1       6.032  -3.733  21.646  0.00  0.00    +0.004 A 
ATOM      7  C   UNL     1       6.093  -5.112  21.780  0.00  0.00    +0.004 A 
ATOM      8  C   UNL     1       7.027  -5.684  22.645  0.00  0.00    +0.049 A 
BRANCH   3  10
ATOM      9  C   UNL     1       8.435  -5.408  25.635  0.00  0.00    +0.277 C 
ATOM     10  O   UNL     1       8.813  -5.446  24.259  0.00  0.00    -0.491 OA
ENDBRANCH   3  10
ENDBRANCH   2   4
ENDBRANCH   1   2
BRANCH   1  11
ATOM     11  C   UNL     1      10.325  -1.217  22.835  0.00  0.00    +0.189 C 
BRANCH  11  12
ATOM     12  O   UNL     1      10.198  -1.564  21.450  0.00  0.00    -0.385 OA
ATOM     13  H   UNL     1       9.802  -0.798  20.995  0.00  0.00    +0.210 HD
ENDBRANCH  11  12
BRANCH  11  14
ATOM     14  C   UNL     1       9.423  -0.006  23.118  0.00  0.00    +0.268 C 
BRANCH  14  15
ATOM     15  O   UNL     1       8.583   0.313  21.998  0.00  0.00    -0.448 OA
BRANCH  15  16
ATOM     16  C   UNL     1       8.490   1.627  21.703  0.00  0.00    +0.398 C 
ATOM     17  O   UNL     1       7.461   2.274  21.604  0.00  0.00    -0.227 OA
ATOM     18  N   UNL     1       9.724   2.146  21.513  0.00  0.00    -0.295 N 
ATOM     19  H   UNL     1       9.819   3.133  21.346  0.00  0.00    +0.148 HD
ATOM     20  H   UNL     1      10.534   1.568  21.687  0.00  0.00    +0.148 HD
ENDBRANCH  15  16
ENDBRANCH  14  15
ENDBRANCH  11  14
ENDBRANCH   1  11
TORSDOF 8
ENDMDL
MODEL 4
REMARK VINA RESULT:      -5.1      1.970      2.425
REMARK  Name = 
REMARK  9 active torsions:
REMARK  status: ('A' for Active; 'I' for Inactive)
REMARK    1  A    between atoms: C_1  and  O_2
REMARK    2  A    between atoms: O_2  and  C_3
REMARK    3  A    between atoms: C_8  and  O_9
REMARK    4  A    between atoms: O_9  and  C_10
REMARK    5  A    between atoms: C_10  and  C_11
REMARK    6  A    between atoms: C_11  and  O_12
REMARK    7  A    between atoms: C_11  and  C_13
REMARK    8  A    between atoms: C_13  and  O_14
REMARK    9  A    between atoms: O_14  and  C_15
REMARK                            x       y       z     vdW  Elec       q    Type
REMARK                         _______ _______ _______ _____ _____    ______ ____
ROOT
ATOM      1  C   UNL     1       8.184  -2.374  22.586  0.00  0.00    +0.264 C 
ENDROOT
BRANCH   1   2
ATOM      2  O   UNL     1       9.442  -1.736  22.381  0.00  0.00    -0.486 OA
BRANCH   2   4
ATOM      3  C   UNL     1       9.890  -0.080  24.214  0.00  0.00    +0.161 A 
ATOM      4  C   UNL     1       9.709  -0.491  22.882  0.00  0.00    +0.162 A 
ATOM      5  C   UNL     1       9.820   0.466  21.860  0.00  0.00    +0.049 A 
ATOM      6  C   UNL     1      10.133   1.796  22.137  0.00  0.00    +0.004 A 
ATOM      7  C   UNL     1      10.353   2.189  23.449  0.00  0.00    +0.004 A 
ATOM      8  C   UNL     1      10.237   1.256  24.480  0.00  0.00    +0.049 A 
BRANCH   3  10
ATOM      9  C   UNL     1       8.716  -0.855  26.125  0.00  0.00    +0.277 C 
ATOM     10  O   UNL     1       9.814  -1.006  25.225  0.00  0.00    -0.491 OA
ENDBRANCH   3  10
ENDBRANCH   2   4
ENDBRANCH   1   2
BRANCH   1  11
ATOM     11  C   UNL     1       8.315  -3.738  23.293  0.00  0.00    +0.189 C 
BRANCH  11  12
ATOM     12  O   UNL     1       9.431  -3.799  24.191  0.00  0.00    -0.385 OA
ATOM     13  H   UNL     1       9.384  -4.657  24.652  0.00  0.00    +0.210 HD
ENDBRANCH  11  12
BRANCH  11  14
ATOM     14  C   UNL     1       7.033  -4.026  24.089  0.00  0.00    +0.268 C 
BRANCH  14  15
ATOM     15  O   UNL     1       6.443  -5.284  23.724  0.00  0.00    -0.448 OA
BRANCH  15  16
ATOM     16  C   UNL     1       5.708  -5.270  22.593  0.00  0.00    +0.398 C 
ATOM     17  O   UNL     1       4.928  -4.399  22.248  0.00  0.00    -0.227 OA
ATOM     18  N   UNL     1       5.948  -6.390  21.873  0.00  0.00    -0.295 N 
ATOM     19  H   UNL     1       5.517  -6.492  20.969  0.00  0.00    +0.148 HD
ATOM     20  H   UNL     1       6.665  -7.030  22.182  0.00  0.00    +0.148 HD
ENDBRANCH  15  16
ENDBRANCH  14  15
ENDBRANCH  11  14
ENDBRANCH   1  11
TORSDOF 8
ENDMDL
MODEL 5
REMARK VINA RESULT:      -4.9      2.863      6.109
REMARK  Name = 
REMARK  9 active torsions:
REMARK  status: ('A' for Active; 'I' for Inactive)
REMARK    1  A    between atoms: C_1  and  O_2
REMARK    2  A    between atoms: O_2  and  C_3
REMARK    3  A    between atoms: C_8  and  O_9
REMARK    4  A    between atoms: O_9  and  C_10
REMARK    5  A    between atoms: C_10  and  C_11
REMARK    6  A    between atoms: C_11  and  O_12
REMARK    7  A    between atoms: C_11  and  C_13
REMARK    8  A    between atoms: C_13  and  O_14
REMARK    9  A    between atoms: O_14  and  C_15
REMARK                            x       y       z     vdW  Elec       q    Type
REMARK                         _______ _______ _______ _____ _____    ______ ____
ROOT
ATOM      1  C   UNL     1       7.969  -5.097  26.714  0.00  0.00    +0.264 C 
ENDROOT
BRANCH   1   2
ATOM      2  O   UNL     1       7.096  -5.922  25.947  0.00  0.00    -0.486 OA
BRANCH   2   4
ATOM      3  C   UNL     1       6.208  -5.120  23.740  0.00  0.00    +0.161 A 
ATOM      4  C   UNL     1       6.145  -5.390  25.119  0.00  0.00    +0.162 A 
ATOM      5  C   UNL     1       4.954  -5.112  25.807  0.00  0.00    +0.049 A 
ATOM      6  C   UNL     1       3.833  -4.606  25.150  0.00  0.00    +0.004 A 
ATOM      7  C   UNL     1       3.885  -4.380  23.782  0.00  0.00    +0.004 A 
ATOM      8  C   UNL     1       5.063  -4.640  23.082  0.00  0.00    +0.049 A 
BRANCH   3  10
ATOM      9  C   UNL     1       7.169  -5.856  21.700  0.00  0.00    +0.277 C 
ATOM     10  O   UNL     1       7.355  -5.412  23.044  0.00  0.00    -0.491 OA
ENDBRANCH   3  10
ENDBRANCH   2   4
ENDBRANCH   1   2
BRANCH   1  11
ATOM     11  C   UNL     1       9.285  -4.774  25.977  0.00  0.00    +0.189 C 
BRANCH  11  12
ATOM     12  O   UNL     1       9.607  -5.732  24.960  0.00  0.00    -0.385 OA
ATOM     13  H   UNL     1      10.058  -6.478  25.398  0.00  0.00    +0.210 HD
ENDBRANCH  11  12
BRANCH  11  14
ATOM     14  C   UNL     1       9.178  -3.388  25.323  0.00  0.00    +0.268 C 
BRANCH  14  15
ATOM     15  O   UNL     1       9.821  -3.346  24.040  0.00  0.00    -0.448 OA
BRANCH  15  16
ATOM     16  C   UNL     1       9.540  -2.261  23.289  0.00  0.00    +0.398 C 
ATOM     17  O   UNL     1      10.146  -1.203  23.293  0.00  0.00    -0.227 OA
ATOM     18  N   UNL     1       8.458  -2.503  22.514  0.00  0.00    -0.295 N 
ATOM     19  H   UNL     1       8.165  -1.805  21.852  0.00  0.00    +0.148 HD
ATOM     20  H   UNL     1       8.054  -3.429  22.507  0.00  0.00    +0.148 HD
ENDBRANCH  15  16
ENDBRANCH  14  15
ENDBRANCH  11  14
ENDBRANCH   1  11
TORSDOF 8
ENDMDL
MODEL 6
REMARK VINA RESULT:      -4.9      2.617      3.471
REMARK  Name = 
REMARK  9 active torsions:
REMARK  status: ('A' for Active; 'I' for Inactive)
REMARK    1  A    between atoms: C_1  and  O_2
REMARK    2  A    between atoms: O_2  and  C_3
REMARK    3  A    between atoms: C_8  and  O_9
REMARK    4  A    between atoms: O_9  and  C_10
REMARK    5  A    between atoms: C_10  and  C_11
REMARK    6  A    between atoms: C_11  and  O_12
REMARK    7  A    between atoms: C_11  and  C_13
REMARK    8  A    between atoms: C_13  and  O_14
REMARK    9  A    between atoms: O_14  and  C_15
REMARK                            x       y       z     vdW  Elec       q    Type
REMARK                         _______ _______ _______ _____ _____    ______ ____
ROOT
ATOM      1  C   UNL     1       8.833  -2.349  25.237  0.00  0.00    +0.264 C 
ENDROOT
BRANCH   1   2
ATOM      2  O   UNL     1       8.155  -1.215  24.706  0.00  0.00    -0.486 OA
BRANCH   2   4
ATOM      3  C   UNL     1       8.411   0.888  23.358  0.00  0.00    +0.161 A 
ATOM      4  C   UNL     1       8.835  -0.121  24.240  0.00  0.00    +0.162 A 
ATOM      5  C   UNL     1      10.132  -0.051  24.773  0.00  0.00    +0.049 A 
ATOM      6  C   UNL     1      10.988   1.007  24.470  0.00  0.00    +0.004 A 
ATOM      7  C   UNL     1      10.552   2.023  23.633  0.00  0.00    +0.004 A 
ATOM      8  C   UNL     1       9.270   1.966  23.085  0.00  0.00    +0.049 A 
BRANCH   3  10
ATOM      9  C   UNL     1       6.216   1.786  23.415  0.00  0.00    +0.277 C 
ATOM     10  O   UNL     1       7.136   0.853  22.850  0.00  0.00    -0.491 OA
ENDBRANCH   3  10
ENDBRANCH   2   4
ENDBRANCH   1   2
BRANCH   1  11
ATOM     11  C   UNL     1       9.150  -3.411  24.165  0.00  0.00    +0.189 C 
BRANCH  11  12
ATOM     12  O   UNL     1       9.961  -4.484  24.663  0.00  0.00    -0.385 OA
ATOM     13  H   UNL     1       9.472  -5.313  24.506  0.00  0.00    +0.210 HD
ENDBRANCH  11  12
BRANCH  11  14
ATOM     14  C   UNL     1       7.839  -4.002  23.627  0.00  0.00    +0.268 C 
BRANCH  14  15
ATOM     15  O   UNL     1       7.511  -3.490  22.325  0.00  0.00    -0.448 OA
BRANCH  15  16
ATOM     16  C   UNL     1       6.225  -3.114  22.160  0.00  0.00    +0.398 C 
ATOM     17  O   UNL     1       5.366  -3.728  21.551  0.00  0.00    -0.227 OA
ATOM     18  N   UNL     1       6.010  -1.926  22.769  0.00  0.00    -0.295 N 
ATOM     19  H   UNL     1       5.078  -1.547  22.784  0.00  0.00    +0.148 HD
ATOM     20  H   UNL     1       6.748  -1.513  23.320  0.00  0.00    +0.148 HD
ENDBRANCH  15  16
ENDBRANCH  14  15
ENDBRANCH  11  14
ENDBRANCH   1  11
TORSDOF 8
ENDMDL
MODEL 7
REMARK VINA RESULT:      -4.9      1.574      2.202
REMARK  Name = 
REMARK  9 active torsions:
REMARK  status: ('A' for Active; 'I' for Inactive)
REMARK    1  A    between atoms: C_1  and  O_2
REMARK    2  A    between atoms: O_2  and  C_3
REMARK    3  A    between atoms: C_8  and  O_9
REMARK    4  A    between atoms: O_9  and  C_10
REMARK    5  A    between atoms: C_10  and  C_11
REMARK    6  A    between atoms: C_11  and  O_12
REMARK    7  A    between atoms: C_11  and  C_13
REMARK    8  A    between atoms: C_13  and  O_14
REMARK    9  A    between atoms: O_14  and  C_15
REMARK                            x       y       z     vdW  Elec       q    Type
REMARK                         _______ _______ _______ _____ _____    ______ ____
ROOT
ATOM      1  C   UNL     1       9.967  -2.681  23.961  0.00  0.00    +0.264 C 
ENDROOT
BRANCH   1   2
ATOM      2  O   UNL     1       9.404  -1.451  24.408  0.00  0.00    -0.486 OA
BRANCH   2   4
ATOM      3  C   UNL     1       7.699  -0.045  23.218  0.00  0.00    +0.161 A 
ATOM      4  C   UNL     1       8.998  -0.483  23.530  0.00  0.00    +0.162 A 
ATOM      5  C   UNL     1      10.088   0.131  22.893  0.00  0.00    +0.049 A 
ATOM      6  C   UNL     1       9.910   1.178  21.989  0.00  0.00    +0.004 A 
ATOM      7  C   UNL     1       8.630   1.636  21.716  0.00  0.00    +0.004 A 
ATOM      8  C   UNL     1       7.532   1.032  22.330  0.00  0.00    +0.049 A 
BRANCH   3  10
ATOM      9  C   UNL     1       6.167  -1.854  23.313  0.00  0.00    +0.277 C 
ATOM     10  O   UNL     1       6.621  -0.613  23.852  0.00  0.00    -0.491 OA
ENDBRANCH   3  10
ENDBRANCH   2   4
ENDBRANCH   1   2
BRANCH   1  11
ATOM     11  C   UNL     1       9.315  -3.911  24.625  0.00  0.00    +0.189 C 
BRANCH  11  12
ATOM     12  O   UNL     1      10.250  -4.966  24.888  0.00  0.00    -0.385 OA
ATOM     13  H   UNL     1       9.845  -5.796  24.574  0.00  0.00    +0.210 HD
ENDBRANCH  11  12
BRANCH  11  14
ATOM     14  C   UNL     1       8.666  -3.493  25.952  0.00  0.00    +0.268 C 
BRANCH  14  15
ATOM     15  O   UNL     1       8.574  -4.588  26.877  0.00  0.00    -0.448 OA
BRANCH  15  16
ATOM     16  C   UNL     1       7.422  -5.289  26.829  0.00  0.00    +0.398 C 
ATOM     17  O   UNL     1       6.536  -5.166  26.001  0.00  0.00    -0.227 OA
ATOM     18  N   UNL     1       7.372  -6.165  27.858  0.00  0.00    -0.295 N 
ATOM     19  H   UNL     1       6.597  -6.804  27.918  0.00  0.00    +0.148 HD
ATOM     20  H   UNL     1       8.176  -6.265  28.460  0.00  0.00    +0.148 HD
ENDBRANCH  15  16
ENDBRANCH  14  15
ENDBRANCH  11  14
ENDBRANCH   1  11
TORSDOF 8
ENDMDL
MODEL 8
REMARK VINA RESULT:      -4.8      2.553      5.779
REMARK  Name = 
REMARK  9 active torsions:
REMARK  status: ('A' for Active; 'I' for Inactive)
REMARK    1  A    between atoms: C_1  and  O_2
REMARK    2  A    between atoms: O_2  and  C_3
REMARK    3  A    between atoms: C_8  and  O_9
REMARK    4  A    between atoms: O_9  and  C_10
REMARK    5  A    between atoms: C_10  and  C_11
REMARK    6  A    between atoms: C_11  and  O_12
REMARK    7  A    between atoms: C_11  and  C_13
REMARK    8  A    between atoms: C_13  and  O_14
REMARK    9  A    between atoms: O_14  and  C_15
REMARK                            x       y       z     vdW  Elec       q    Type
REMARK                         _______ _______ _______ _____ _____    ______ ____
ROOT
ATOM      1  C   UNL     1       7.902  -2.094  22.302  0.00  0.00    +0.264 C 
ENDROOT
BRANCH   1   2
ATOM      2  O   UNL     1       7.538  -3.471  22.296  0.00  0.00    -0.486 OA
BRANCH   2   4
ATOM      3  C   UNL     1       7.656  -4.877  24.372  0.00  0.00    +0.161 A 
ATOM      4  C   UNL     1       7.017  -4.084  23.403  0.00  0.00    +0.162 A 
ATOM      5  C   UNL     1       5.642  -3.830  23.537  0.00  0.00    +0.049 A 
ATOM      6  C   UNL     1       4.913  -4.320  24.620  0.00  0.00    +0.004 A 
ATOM      7  C   UNL     1       5.555  -5.067  25.597  0.00  0.00    +0.004 A 
ATOM      8  C   UNL     1       6.918  -5.339  25.476  0.00  0.00    +0.049 A 
BRANCH   3  10
ATOM      9  C   UNL     1       9.737  -5.054  25.497  0.00  0.00    +0.277 C 
ATOM     10  O   UNL     1       9.005  -5.113  24.273  0.00  0.00    -0.491 OA
ENDBRANCH   3  10
ENDBRANCH   2   4
ENDBRANCH   1   2
BRANCH   1  11
ATOM     11  C   UNL     1       9.429  -1.880  22.278  0.00  0.00    +0.189 C 
BRANCH  11  12
ATOM     12  O   UNL     1       9.859  -1.033  21.204  0.00  0.00    -0.385 OA
ATOM     13  H   UNL     1      10.834  -1.010  21.226  0.00  0.00    +0.210 HD
ENDBRANCH  11  12
BRANCH  11  14
ATOM     14  C   UNL     1       9.878  -1.248  23.604  0.00  0.00    +0.268 C 
BRANCH  14  15
ATOM     15  O   UNL     1      10.776  -0.146  23.400  0.00  0.00    -0.448 OA
BRANCH  15  16
ATOM     16  C   UNL     1      10.632   0.883  24.262  0.00  0.00    +0.398 C 
ATOM     17  O   UNL     1      10.861   2.057  24.029  0.00  0.00    -0.227 OA
ATOM     18  N   UNL     1      10.199   0.426  25.459  0.00  0.00    -0.295 N 
ATOM     19  H   UNL     1       9.985   1.087  26.186  0.00  0.00    +0.148 HD
ATOM     20  H   UNL     1       9.957  -0.550  25.555  0.00  0.00    +0.148 HD
ENDBRANCH  15  16
ENDBRANCH  14  15
ENDBRANCH  11  14
ENDBRANCH   1  11
TORSDOF 8
ENDMDL
MODEL 9
REMARK VINA RESULT:      -4.7      4.798      7.349
REMARK  Name = 
REMARK  9 active torsions:
REMARK  status: ('A' for Active; 'I' for Inactive)
REMARK    1  A    between atoms: C_1  and  O_2
REMARK    2  A    between atoms: O_2  and  C_3
REMARK    3  A    between atoms: C_8  and  O_9
REMARK    4  A    between atoms: O_9  and  C_10
REMARK    5  A    between atoms: C_10  and  C_11
REMARK    6  A    between atoms: C_11  and  O_12
REMARK    7  A    between atoms: C_11  and  C_13
REMARK    8  A    between atoms: C_13  and  O_14
REMARK    9  A    between atoms: O_14  and  C_15
REMARK                            x       y       z     vdW  Elec       q    Type
REMARK                         _______ _______ _______ _____ _____    ______ ____
ROOT
ATOM      1  C   UNL     1       9.055   3.247  24.409  0.00  0.00    +0.264 C 
ENDROOT
BRANCH   1   2
ATOM      2  O   UNL     1      10.133   2.482  23.880  0.00  0.00    -0.486 OA
BRANCH   2   4
ATOM      3  C   UNL     1       9.923  -0.014  24.046  0.00  0.00    +0.161 A 
ATOM      4  C   UNL     1       9.946   1.222  23.378  0.00  0.00    +0.162 A 
ATOM      5  C   UNL     1       9.737   1.243  21.989  0.00  0.00    +0.049 A 
ATOM      6  C   UNL     1       9.480   0.075  21.273  0.00  0.00    +0.004 A 
ATOM      7  C   UNL     1       9.416  -1.138  21.942  0.00  0.00    +0.004 A 
ATOM      8  C   UNL     1       9.631  -1.182  23.320  0.00  0.00    +0.049 A 
BRANCH   3  10
ATOM      9  C   UNL     1       9.035  -0.651  26.152  0.00  0.00    +0.277 C 
ATOM     10  O   UNL     1      10.096  -0.053  25.408  0.00  0.00    -0.491 OA
ENDBRANCH   3  10
ENDBRANCH   2   4
ENDBRANCH   1   2
BRANCH   1  11
ATOM     11  C   UNL     1       8.901   4.618  23.720  0.00  0.00    +0.189 C 
BRANCH  11  12
ATOM     12  O   UNL     1       7.588   5.174  23.868  0.00  0.00    -0.385 OA
ATOM     13  H   UNL     1       7.402   5.695  23.064  0.00  0.00    +0.210 HD
ENDBRANCH  11  12
BRANCH  11  14
ATOM     14  C   UNL     1       9.917   5.605  24.314  0.00  0.00    +0.268 C 
BRANCH  14  15
ATOM     15  O   UNL     1      10.922   5.984  23.360  0.00  0.00    -0.448 OA
BRANCH  15  16
ATOM     16  C   UNL     1      12.192   5.696  23.714  0.00  0.00    +0.398 C 
ATOM     17  O   UNL     1      12.881   4.796  23.267  0.00  0.00    -0.227 OA
ATOM     18  N   UNL     1      12.610   6.558  24.669  0.00  0.00    -0.295 N 
ATOM     19  H   UNL     1      13.563   6.508  24.989  0.00  0.00    +0.148 HD
ATOM     20  H   UNL     1      12.013   7.327  24.935  0.00  0.00    +0.148 HD
ENDBRANCH  15  16
ENDBRANCH  14  15
ENDBRANCH  11  14
ENDBRANCH   1  11
TORSDOF 8
ENDMDL
