MODEL 1
REMARK VINA RESULT:      -4.6      0.000      0.000
REMARK  Name = 
REMARK  6 active torsions:
REMARK  status: ('A' for Active; 'I' for Inactive)
REMARK    1  A    between atoms: C_1  and  O_2
REMARK    2  A    between atoms: O_2  and  C_3
REMARK    3  A    between atoms: C_6  and  C_8
REMARK    4  A    between atoms: C_10  and  O_12
REMARK    5  A    between atoms: C_13  and  O_15
REMARK    6  A    between atoms: C_16  and  O_18
REMARK                            x       y       z     vdW  Elec       q    Type
REMARK                         _______ _______ _______ _____ _____    ______ ____
ROOT
ATOM      1  C   UNL     1       6.511  -4.810  25.680  0.00  0.00    +0.282 C 
ATOM      2  C   UNL     1       7.480  -4.773  26.888  0.00  0.00    +0.201 C 
ATOM      3  C   UNL     1       8.788  -4.046  26.527  0.00  0.00    +0.179 C 
ATOM      4  C   UNL     1       9.376  -4.575  25.211  0.00  0.00    +0.179 C 
ATOM      5  C   UNL     1       8.323  -4.615  24.086  0.00  0.00    +0.182 C 
ATOM      6  O   UNL     1       7.144  -5.310  24.488  0.00  0.00    -0.338 OA
ENDROOT
BRANCH   1   8
ATOM      7  C   UNL     1       4.565  -3.704  24.876  0.00  0.00    +0.197 C 
ATOM      8  O   UNL     1       5.884  -3.558  25.393  0.00  0.00    -0.352 OA
ENDBRANCH   1   8
BRANCH   2   9
ATOM      9  O   UNL     1       7.709  -6.116  27.343  0.00  0.00    -0.384 OA
ATOM     10  H   UNL     1       6.851  -6.515  27.567  0.00  0.00    +0.210 HD
ENDBRANCH   2   9
BRANCH   3  11
ATOM     11  O   UNL     1       8.559  -2.637  26.482  0.00  0.00    -0.386 OA
ATOM     12  H   UNL     1       8.673  -2.268  27.377  0.00  0.00    +0.210 HD
ENDBRANCH   3  11
BRANCH   4  13
ATOM     13  O   UNL     1       9.915  -5.886  25.469  0.00  0.00    -0.386 OA
ATOM     14  H   UNL     1      10.578  -6.091  24.788  0.00  0.00    +0.210 HD
ENDBRANCH   4  13
BRANCH   5  15
ATOM     15  C   UNL     1       7.981  -3.299  23.379  0.00  0.00    +0.059 C 
ATOM     16  S   UNL     1       9.103  -2.120  22.965  0.00  0.00    -0.062 S 
ENDBRANCH   5  15
TORSDOF 5
ENDMDL
MODEL 2
REMARK VINA RESULT:      -4.5      4.935      6.503
REMARK  Name = 
REMARK  6 active torsions:
REMARK  status: ('A' for Active; 'I' for Inactive)
REMARK    1  A    between atoms: C_1  and  O_2
REMARK    2  A    between atoms: O_2  and  C_3
REMARK    3  A    between atoms: C_6  and  C_8
REMARK    4  A    between atoms: C_10  and  O_12
REMARK    5  A    between atoms: C_13  and  O_15
REMARK    6  A    between atoms: C_16  and  O_18
REMARK                            x       y       z     vdW  Elec       q    Type
REMARK                         _______ _______ _______ _____ _____    ______ ____
ROOT
ATOM      1  C   UNL     1       9.874   1.825  23.770  0.00  0.00    +0.282 C 
ATOM      2  C   UNL     1       9.047   1.849  22.459  0.00  0.00    +0.201 C 
ATOM      3  C   UNL     1       8.245   0.545  22.286  0.00  0.00    +0.179 C 
ATOM      4  C   UNL     1       9.133  -0.689  22.498  0.00  0.00    +0.179 C 
ATOM      5  C   UNL     1       9.946  -0.595  23.805  0.00  0.00    +0.182 C 
ATOM      6  O   UNL     1      10.669   0.633  23.892  0.00  0.00    -0.338 OA
ENDROOT
BRANCH   1   8
ATOM      7  C   UNL     1       8.435   3.259  25.005  0.00  0.00    +0.197 C 
ATOM      8  O   UNL     1       9.096   1.999  24.956  0.00  0.00    -0.352 OA
ENDBRANCH   1   8
BRANCH   2   9
ATOM      9  O   UNL     1       9.932   2.096  21.354  0.00  0.00    -0.384 OA
ATOM     10  H   UNL     1      10.805   2.337  21.708  0.00  0.00    +0.210 HD
ENDBRANCH   2   9
BRANCH   3  11
ATOM     11  O   UNL     1       7.121   0.553  23.168  0.00  0.00    -0.386 OA
ATOM     12  H   UNL     1       7.180   1.332  23.752  0.00  0.00    +0.210 HD
ENDBRANCH   3  11
BRANCH   4  13
ATOM     13  O   UNL     1       9.998  -0.807  21.352  0.00  0.00    -0.386 OA
ATOM     14  H   UNL     1      10.748  -0.200  21.463  0.00  0.00    +0.210 HD
ENDBRANCH   4  13
BRANCH   5  15
ATOM     15  C   UNL     1       9.228  -0.913  25.120  0.00  0.00    +0.059 C 
ATOM     16  S   UNL     1       8.443  -2.360  25.451  0.00  0.00    -0.062 S 
ENDBRANCH   5  15
TORSDOF 5
ENDMDL
MODEL 3
REMARK VINA RESULT:      -4.4      3.727      5.062
REMARK  Name = 
REMARK  6 active torsions:
REMARK  status: ('A' for Active; 'I' for Inactive)
REMARK    1  A    between atoms: C_1  and  O_2
REMARK    2  A    between atoms: O_2  and  C_3
REMARK    3  A    between atoms: C_6  and  C_8
REMARK    4  A    between atoms: C_10  and  O_12
REMARK    5  A    between atoms: C_13  and  O_15
REMARK    6  A    between atoms: C_16  and  O_18
REMARK                            x       y       z     vdW  Elec       q    Type
REMARK                         _______ _______ _______ _____ _____    ______ ____
ROOT
ATOM      1  C   UNL     1       9.429  -0.970  24.469  0.00  0.00    +0.282 C 
ATOM      2  C   UNL     1      10.108  -1.911  23.442  0.00  0.00    +0.201 C 
ATOM      3  C   UNL     1       9.390  -1.857  22.081  0.00  0.00    +0.179 C 
ATOM      4  C   UNL     1       7.873  -2.023  22.242  0.00  0.00    +0.179 C 
ATOM      5  C   UNL     1       7.302  -1.075  23.316  0.00  0.00    +0.182 C 
ATOM      6  O   UNL     1       8.009  -1.187  24.551  0.00  0.00    -0.338 OA
ENDROOT
BRANCH   1   8
ATOM      7  C   UNL     1      11.046   0.773  24.468  0.00  0.00    +0.197 C 
ATOM      8  O   UNL     1       9.684   0.418  24.248  0.00  0.00    -0.352 OA
ENDBRANCH   1   8
BRANCH   2   9
ATOM      9  O   UNL     1      10.149  -3.242  23.984  0.00  0.00    -0.384 OA
ATOM     10  H   UNL     1      10.596  -3.821  23.344  0.00  0.00    +0.210 HD
ENDBRANCH   2   9
BRANCH   3  11
ATOM     11  O   UNL     1       9.727  -0.642  21.409  0.00  0.00    -0.386 OA
ATOM     12  H   UNL     1       8.988  -0.011  21.504  0.00  0.00    +0.210 HD
ENDBRANCH   3  11
BRANCH   4  13
ATOM     13  O   UNL     1       7.617  -3.402  22.572  0.00  0.00    -0.386 OA
ATOM     14  H   UNL     1       8.197  -3.965  22.032  0.00  0.00    +0.210 HD
ENDBRANCH   4  13
BRANCH   5  15
ATOM     15  C   UNL     1       7.079   0.391  22.932  0.00  0.00    +0.059 C 
ATOM     16  S   UNL     1       6.252   1.508  23.875  0.00  0.00    -0.062 S 
ENDBRANCH   5  15
TORSDOF 5
ENDMDL
MODEL 4
REMARK VINA RESULT:      -4.4      2.862      4.637
REMARK  Name = 
REMARK  6 active torsions:
REMARK  status: ('A' for Active; 'I' for Inactive)
REMARK    1  A    between atoms: C_1  and  O_2
REMARK    2  A    between atoms: O_2  and  C_3
REMARK    3  A    between atoms: C_6  and  C_8
REMARK    4  A    between atoms: C_10  and  O_12
REMARK    5  A    between atoms: C_13  and  O_15
REMARK    6  A    between atoms: C_16  and  O_18
REMARK                            x       y       z     vdW  Elec       q    Type
REMARK                         _______ _______ _______ _____ _____    ______ ____
ROOT
ATOM      1  C   UNL     1       8.259  -3.330  23.962  0.00  0.00    +0.282 C 
ATOM      2  C   UNL     1       7.953  -3.107  22.459  0.00  0.00    +0.201 C 
ATOM      3  C   UNL     1       8.476  -1.738  21.985  0.00  0.00    +0.179 C 
ATOM      4  C   UNL     1       8.038  -0.614  22.934  0.00  0.00    +0.179 C 
ATOM      5  C   UNL     1       8.345  -0.952  24.407  0.00  0.00    +0.182 C 
ATOM      6  O   UNL     1       7.824  -2.227  24.777  0.00  0.00    -0.338 OA
ENDROOT
BRANCH   1   8
ATOM      7  C   UNL     1       9.795  -4.706  25.146  0.00  0.00    +0.197 C 
ATOM      8  O   UNL     1       9.630  -3.616  24.244  0.00  0.00    -0.352 OA
ENDBRANCH   1   8
BRANCH   2   9
ATOM      9  O   UNL     1       6.540  -3.256  22.244  0.00  0.00    -0.384 OA
ATOM     10  H   UNL     1       6.071  -2.693  22.884  0.00  0.00    +0.210 HD
ENDBRANCH   2   9
BRANCH   3  11
ATOM     11  O   UNL     1       9.896  -1.791  21.838  0.00  0.00    -0.386 OA
ATOM     12  H   UNL     1      10.250  -0.882  21.840  0.00  0.00    +0.210 HD
ENDBRANCH   3  11
BRANCH   4  13
ATOM     13  O   UNL     1       6.629  -0.394  22.731  0.00  0.00    -0.386 OA
ATOM     14  H   UNL     1       6.257   0.009  23.533  0.00  0.00    +0.210 HD
ENDBRANCH   4  13
BRANCH   5  15
ATOM     15  C   UNL     1       9.786  -0.775  24.896  0.00  0.00    +0.059 C 
ATOM     16  S   UNL     1      10.735   0.579  24.598  0.00  0.00    -0.062 S 
ENDBRANCH   5  15
TORSDOF 5
ENDMDL
MODEL 5
REMARK VINA RESULT:      -4.4      5.391      6.992
REMARK  Name = 
REMARK  6 active torsions:
REMARK  status: ('A' for Active; 'I' for Inactive)
REMARK    1  A    between atoms: C_1  and  O_2
REMARK    2  A    between atoms: O_2  and  C_3
REMARK    3  A    between atoms: C_6  and  C_8
REMARK    4  A    between atoms: C_10  and  O_12
REMARK    5  A    between atoms: C_13  and  O_15
REMARK    6  A    between atoms: C_16  and  O_18
REMARK                            x       y       z     vdW  Elec       q    Type
REMARK                         _______ _______ _______ _____ _____    ______ ____
ROOT
ATOM      1  C   UNL     1       8.809   2.408  24.641  0.00  0.00    +0.282 C 
ATOM      2  C   UNL     1       8.074   2.801  23.335  0.00  0.00    +0.201 C 
ATOM      3  C   UNL     1       8.187   1.687  22.278  0.00  0.00    +0.179 C 
ATOM      4  C   UNL     1       9.639   1.216  22.116  0.00  0.00    +0.179 C 
ATOM      5  C   UNL     1      10.294   0.893  23.474  0.00  0.00    +0.182 C 
ATOM      6  O   UNL     1      10.159   1.972  24.397  0.00  0.00    -0.338 OA
ENDROOT
BRANCH   1   8
ATOM      7  C   UNL     1       6.910   1.906  25.980  0.00  0.00    +0.197 C 
ATOM      8  O   UNL     1       8.128   1.424  25.423  0.00  0.00    -0.352 OA
ENDBRANCH   1   8
BRANCH   2   9
ATOM      9  O   UNL     1       8.597   4.054  22.865  0.00  0.00    -0.384 OA
ATOM     10  H   UNL     1       7.849   4.638  22.650  0.00  0.00    +0.210 HD
ENDBRANCH   2   9
BRANCH   3  11
ATOM     11  O   UNL     1       7.311   0.610  22.620  0.00  0.00    -0.386 OA
ATOM     12  H   UNL     1       6.643   0.510  21.916  0.00  0.00    +0.210 HD
ENDBRANCH   3  11
BRANCH   4  13
ATOM     13  O   UNL     1      10.359   2.253  21.421  0.00  0.00    -0.386 OA
ATOM     14  H   UNL     1       9.731   2.947  21.159  0.00  0.00    +0.210 HD
ENDBRANCH   4  13
BRANCH   5  15
ATOM     15  C   UNL     1       9.956  -0.449  24.130  0.00  0.00    +0.059 C 
ATOM     16  S   UNL     1       9.890  -1.918  23.318  0.00  0.00    -0.062 S 
ENDBRANCH   5  15
TORSDOF 5
ENDMDL
MODEL 6
REMARK VINA RESULT:      -4.3      3.865      5.385
REMARK  Name = 
REMARK  6 active torsions:
REMARK  status: ('A' for Active; 'I' for Inactive)
REMARK    1  A    between atoms: C_1  and  O_2
REMARK    2  A    between atoms: O_2  and  C_3
REMARK    3  A    between atoms: C_6  and  C_8
REMARK    4  A    between atoms: C_10  and  O_12
REMARK    5  A    between atoms: C_13  and  O_15
REMARK    6  A    between atoms: C_16  and  O_18
REMARK                            x       y       z     vdW  Elec       q    Type
REMARK                         _______ _______ _______ _____ _____    ______ ____
ROOT
ATOM      1  C   UNL     1       7.613  -0.442  23.236  0.00  0.00    +0.282 C 
ATOM      2  C   UNL     1       8.321   0.601  22.335  0.00  0.00    +0.201 C 
ATOM      3  C   UNL     1       9.795   0.224  22.103  0.00  0.00    +0.179 C 
ATOM      4  C   UNL     1      10.501  -0.112  23.424  0.00  0.00    +0.179 C 
ATOM      5  C   UNL     1       9.697  -1.122  24.266  0.00  0.00    +0.182 C 
ATOM      6  O   UNL     1       8.345  -0.703  24.447  0.00  0.00    -0.338 OA
ENDROOT
BRANCH   1   8
ATOM      7  C   UNL     1       6.125  -2.288  23.054  0.00  0.00    +0.197 C 
ATOM      8  O   UNL     1       7.323  -1.680  22.583  0.00  0.00    -0.352 OA
ENDBRANCH   1   8
BRANCH   2   9
ATOM      9  O   UNL     1       8.178   1.903  22.928  0.00  0.00    -0.384 OA
ATOM     10  H   UNL     1       7.953   1.789  23.868  0.00  0.00    +0.210 HD
ENDBRANCH   2   9
BRANCH   3  11
ATOM     11  O   UNL     1       9.873  -0.853  21.167  0.00  0.00    -0.386 OA
ATOM     12  H   UNL     1       9.522  -1.662  21.584  0.00  0.00    +0.210 HD
ENDBRANCH   3  11
BRANCH   4  13
ATOM     13  O   UNL     1      10.700   1.123  24.139  0.00  0.00    -0.386 OA
ATOM     14  H   UNL     1      10.513   0.972  25.081  0.00  0.00    +0.210 HD
ENDBRANCH   4  13
BRANCH   5  15
ATOM     15  C   UNL     1       9.773  -2.601  23.874  0.00  0.00    +0.059 C 
ATOM     16  S   UNL     1       9.191  -3.867  24.813  0.00  0.00    -0.062 S 
ENDBRANCH   5  15
TORSDOF 5
ENDMDL
MODEL 7
REMARK VINA RESULT:      -4.3      4.240      5.592
REMARK  Name = 
REMARK  6 active torsions:
REMARK  status: ('A' for Active; 'I' for Inactive)
REMARK    1  A    between atoms: C_1  and  O_2
REMARK    2  A    between atoms: O_2  and  C_3
REMARK    3  A    between atoms: C_6  and  C_8
REMARK    4  A    between atoms: C_10  and  O_12
REMARK    5  A    between atoms: C_13  and  O_15
REMARK    6  A    between atoms: C_16  and  O_18
REMARK                            x       y       z     vdW  Elec       q    Type
REMARK                         _______ _______ _______ _____ _____    ______ ____
ROOT
ATOM      1  C   UNL     1       8.508  -1.531  23.165  0.00  0.00    +0.282 C 
ATOM      2  C   UNL     1      10.009  -1.299  22.858  0.00  0.00    +0.201 C 
ATOM      3  C   UNL     1      10.463   0.094  23.333  0.00  0.00    +0.179 C 
ATOM      4  C   UNL     1       9.501   1.189  22.852  0.00  0.00    +0.179 C 
ATOM      5  C   UNL     1       8.032   0.843  23.165  0.00  0.00    +0.182 C 
ATOM      6  O   UNL     1       7.681  -0.455  22.688  0.00  0.00    -0.338 OA
ENDROOT
BRANCH   1   8
ATOM      7  C   UNL     1       8.819  -2.970  25.033  0.00  0.00    +0.197 C 
ATOM      8  O   UNL     1       8.223  -1.772  24.545  0.00  0.00    -0.352 OA
ENDBRANCH   1   8
BRANCH   2   9
ATOM      9  O   UNL     1      10.233  -1.495  21.452  0.00  0.00    -0.384 OA
ATOM     10  H   UNL     1       9.409  -1.824  21.053  0.00  0.00    +0.210 HD
ENDBRANCH   2   9
BRANCH   3  11
ATOM     11  O   UNL     1      10.604   0.093  24.755  0.00  0.00    -0.386 OA
ATOM     12  H   UNL     1       9.829  -0.347  25.151  0.00  0.00    +0.210 HD
ENDBRANCH   3  11
BRANCH   4  13
ATOM     13  O   UNL     1       9.708   1.361  21.437  0.00  0.00    -0.386 OA
ATOM     14  H   UNL     1      10.356   2.073  21.300  0.00  0.00    +0.210 HD
ENDBRANCH   4  13
BRANCH   5  15
ATOM     15  C   UNL     1       7.534   1.064  24.597  0.00  0.00    +0.059 C 
ATOM     16  S   UNL     1       7.746   2.483  25.471  0.00  0.00    -0.062 S 
ENDBRANCH   5  15
TORSDOF 5
ENDMDL
MODEL 8
REMARK VINA RESULT:      -4.3      1.821      3.387
REMARK  Name = 
REMARK  6 active torsions:
REMARK  status: ('A' for Active; 'I' for Inactive)
REMARK    1  A    between atoms: C_1  and  O_2
REMARK    2  A    between atoms: O_2  and  C_3
REMARK    3  A    between atoms: C_6  and  C_8
REMARK    4  A    between atoms: C_10  and  O_12
REMARK    5  A    between atoms: C_13  and  O_15
REMARK    6  A    between atoms: C_16  and  O_18
REMARK                            x       y       z     vdW  Elec       q    Type
REMARK                         _______ _______ _______ _____ _____    ______ ____
ROOT
ATOM      1  C   UNL     1       9.187  -3.674  24.872  0.00  0.00    +0.282 C 
ATOM      2  C   UNL     1       8.829  -5.163  24.632  0.00  0.00    +0.201 C 
ATOM      3  C   UNL     1       7.406  -5.478  25.129  0.00  0.00    +0.179 C 
ATOM      4  C   UNL     1       7.183  -4.955  26.555  0.00  0.00    +0.179 C 
ATOM      5  C   UNL     1       7.610  -3.481  26.699  0.00  0.00    +0.182 C 
ATOM      6  O   UNL     1       8.940  -3.266  26.229  0.00  0.00    -0.338 OA
ENDROOT
BRANCH   1   8
ATOM      7  C   UNL     1       9.454  -1.920  23.289  0.00  0.00    +0.197 C 
ATOM      8  O   UNL     1       8.539  -2.766  23.979  0.00  0.00    -0.352 OA
ENDBRANCH   1   8
BRANCH   2   9
ATOM      9  O   UNL     1       9.822  -5.988  25.264  0.00  0.00    -0.384 OA
ATOM     10  H   UNL     1       9.495  -6.904  25.281  0.00  0.00    +0.210 HD
ENDBRANCH   2   9
BRANCH   3  11
ATOM     11  O   UNL     1       6.449  -4.950  24.209  0.00  0.00    -0.386 OA
ATOM     12  H   UNL     1       6.477  -3.975  24.247  0.00  0.00    +0.210 HD
ENDBRANCH   3  11
BRANCH   4  13
ATOM     13  O   UNL     1       7.923  -5.804  27.453  0.00  0.00    -0.386 OA
ATOM     14  H   UNL     1       8.609  -5.272  27.892  0.00  0.00    +0.210 HD
ENDBRANCH   4  13
BRANCH   5  15
ATOM     15  C   UNL     1       6.654  -2.404  26.178  0.00  0.00    +0.059 C 
ATOM     16  S   UNL     1       6.786  -0.765  26.520  0.00  0.00    -0.062 S 
ENDBRANCH   5  15
TORSDOF 5
ENDMDL
MODEL 9
REMARK VINA RESULT:      -4.3      6.305      7.957
REMARK  Name = 
REMARK  6 active torsions:
REMARK  status: ('A' for Active; 'I' for Inactive)
REMARK    1  A    between atoms: C_1  and  O_2
REMARK    2  A    between atoms: O_2  and  C_3
REMARK    3  A    between atoms: C_6  and  C_8
REMARK    4  A    between atoms: C_10  and  O_12
REMARK    5  A    between atoms: C_13  and  O_15
REMARK    6  A    between atoms: C_16  and  O_18
REMARK                            x       y       z     vdW  Elec       q    Type
REMARK                         _______ _______ _______ _____ _____    ______ ____
ROOT
ATOM      1  C   UNL     1       8.214   1.550  24.220  0.00  0.00    +0.282 C 
ATOM      2  C   UNL     1       7.892   1.049  22.789  0.00  0.00    +0.201 C 
ATOM      3  C   UNL     1       8.204   2.131  21.739  0.00  0.00    +0.179 C 
ATOM      4  C   UNL     1       7.591   3.483  22.131  0.00  0.00    +0.179 C 
ATOM      5  C   UNL     1       7.933   3.870  23.584  0.00  0.00    +0.182 C 
ATOM      6  O   UNL     1       7.609   2.825  24.500  0.00  0.00    -0.338 OA
ENDROOT
BRANCH   1   8
ATOM      7  C   UNL     1      10.191   0.330  24.727  0.00  0.00    +0.197 C 
ATOM      8  O   UNL     1       9.611   1.614  24.517  0.00  0.00    -0.352 OA
ENDBRANCH   1   8
BRANCH   2   9
ATOM      9  O   UNL     1       6.520   0.623  22.743  0.00  0.00    -0.384 OA
ATOM     10  H   UNL     1       6.054   1.162  22.082  0.00  0.00    +0.210 HD
ENDBRANCH   2   9
BRANCH   3  11
ATOM     11  O   UNL     1       9.617   2.220  21.547  0.00  0.00    -0.386 OA
ATOM     12  H   UNL     1       9.827   1.984  20.624  0.00  0.00    +0.210 HD
ENDBRANCH   3  11
BRANCH   4  13
ATOM     13  O   UNL     1       6.167   3.390  21.935  0.00  0.00    -0.386 OA
ATOM     14  H   UNL     1       5.950   3.731  21.051  0.00  0.00    +0.210 HD
ENDBRANCH   4  13
BRANCH   5  15
ATOM     15  C   UNL     1       9.325   4.444  23.863  0.00  0.00    +0.059 C 
ATOM     16  S   UNL     1       9.732   6.068  23.722  0.00  0.00    -0.062 S 
ENDBRANCH   5  15
TORSDOF 5
ENDMDL
