MODEL 1
REMARK VINA RESULT:      -5.7      0.000      0.000
REMARK  Name = 
REMARK  1 active torsions:
REMARK  status: ('A' for Active; 'I' for Inactive)
REMARK    1  A    between atoms: C_6  and  C_8
REMARK                            x       y       z     vdW  Elec       q    Type
REMARK                         _______ _______ _______ _____ _____    ______ ____
ROOT
ATOM      1  N   UNL     1      10.203  -5.640  25.618  0.00  0.00    -0.327 N 
ATOM      2  H   UNL     1      10.522  -5.095  26.407  0.00  0.00    +0.145 HD
ATOM      3  H   UNL     1       9.696  -6.491  25.820  0.00  0.00    +0.145 HD
ATOM      4  C   UNL     1       9.455  -4.850  24.772  0.00  0.00    +0.213 A 
ATOM      5  N   UNL     1       9.699  -3.539  24.755  0.00  0.00    -0.215 NA
ATOM      6  C   UNL     1       8.934  -2.777  23.942  0.00  0.00    +0.078 A 
ATOM      7  C   UNL     1       7.893  -3.306  23.211  0.00  0.00    +0.048 A 
ATOM      8  C   UNL     1       7.730  -4.667  23.300  0.00  0.00    +0.116 A 
ATOM      9  N   UNL     1       8.493  -5.456  24.072  0.00  0.00    -0.223 NA
ENDROOT
BRANCH   6  10
ATOM     10  C   UNL     1       9.279  -1.351  23.946  0.00  0.00    +0.027 A 
ATOM     11  C   UNL     1       9.588  -0.582  22.760  0.00  0.00    +0.039 A 
ATOM     12  C   UNL     1       9.831   0.735  23.047  0.00  0.00    +0.080 A 
ATOM     13 CL   UNL     1      10.218   1.977  21.926  0.00  0.00    -0.076 Cl
ATOM     14  S   UNL     1       9.702   1.096  24.688  0.00  0.00    -0.065 S 
ATOM     15  C   UNL     1       9.276  -0.514  25.048  0.00  0.00    +0.089 A 
ATOM     16 CL   UNL     1       8.870  -0.842  26.694  0.00  0.00    -0.075 Cl
ENDBRANCH   6  10
TORSDOF 1
ENDMDL
MODEL 2
REMARK VINA RESULT:      -5.5      3.438      5.341
REMARK  Name = 
REMARK  1 active torsions:
REMARK  status: ('A' for Active; 'I' for Inactive)
REMARK    1  A    between atoms: C_6  and  C_8
REMARK                            x       y       z     vdW  Elec       q    Type
REMARK                         _______ _______ _______ _____ _____    ______ ____
ROOT
ATOM      1  N   UNL     1       8.856   1.395  21.078  0.00  0.00    -0.327 N 
ATOM      2  H   UNL     1       7.934   0.983  21.034  0.00  0.00    +0.145 HD
ATOM      3  H   UNL     1       8.927   2.387  20.903  0.00  0.00    +0.145 HD
ATOM      4  C   UNL     1       9.445   1.100  22.288  0.00  0.00    +0.213 A 
ATOM      5  N   UNL     1       9.067  -0.013  22.917  0.00  0.00    -0.215 NA
ATOM      6  C   UNL     1       9.633  -0.270  24.118  0.00  0.00    +0.078 A 
ATOM      7  C   UNL     1      10.511   0.608  24.714  0.00  0.00    +0.048 A 
ATOM      8  C   UNL     1      10.835   1.723  23.979  0.00  0.00    +0.116 A 
ATOM      9  N   UNL     1      10.314   1.990  22.771  0.00  0.00    -0.223 NA
ENDROOT
BRANCH   6  10
ATOM     10  C   UNL     1       9.198  -1.527  24.738  0.00  0.00    +0.027 A 
ATOM     11  C   UNL     1       9.526  -2.842  24.233  0.00  0.00    +0.039 A 
ATOM     12  C   UNL     1       9.028  -3.840  25.028  0.00  0.00    +0.080 A 
ATOM     13 CL   UNL     1       9.205  -5.531  24.790  0.00  0.00    -0.076 Cl
ATOM     14  S   UNL     1       8.180  -3.265  26.368  0.00  0.00    -0.065 S 
ATOM     15  C   UNL     1       8.498  -1.651  25.924  0.00  0.00    +0.089 A 
ATOM     16 CL   UNL     1       7.947  -0.440  27.024  0.00  0.00    -0.075 Cl
ENDBRANCH   6  10
TORSDOF 1
ENDMDL
MODEL 3
REMARK VINA RESULT:      -5.4      3.943      5.654
REMARK  Name = 
REMARK  1 active torsions:
REMARK  status: ('A' for Active; 'I' for Inactive)
REMARK    1  A    between atoms: C_6  and  C_8
REMARK                            x       y       z     vdW  Elec       q    Type
REMARK                         _______ _______ _______ _____ _____    ______ ____
ROOT
ATOM      1  N   UNL     1       6.068   1.730  22.831  0.00  0.00    -0.327 N 
ATOM      2  H   UNL     1       5.718   1.422  23.727  0.00  0.00    +0.145 HD
ATOM      3  H   UNL     1       6.302   2.709  22.739  0.00  0.00    +0.145 HD
ATOM      4  C   UNL     1       7.152   0.964  22.460  0.00  0.00    +0.213 A 
ATOM      5  N   UNL     1       7.234  -0.280  22.934  0.00  0.00    -0.215 NA
ATOM      6  C   UNL     1       8.319  -1.007  22.585  0.00  0.00    +0.078 A 
ATOM      7  C   UNL     1       9.343  -0.474  21.833  0.00  0.00    +0.048 A 
ATOM      8  C   UNL     1       9.157   0.816  21.396  0.00  0.00    +0.116 A 
ATOM      9  N   UNL     1       8.076   1.551  21.698  0.00  0.00    -0.223 NA
ENDROOT
BRANCH   6  10
ATOM     10  C   UNL     1       8.328  -2.376  23.111  0.00  0.00    +0.027 A 
ATOM     11  C   UNL     1       9.247  -2.858  24.119  0.00  0.00    +0.039 A 
ATOM     12  C   UNL     1       9.005  -4.162  24.459  0.00  0.00    +0.080 A 
ATOM     13 CL   UNL     1       9.857  -5.099  25.618  0.00  0.00    -0.076 Cl
ATOM     14  S   UNL     1       7.712  -4.841  23.618  0.00  0.00    -0.065 S 
ATOM     15  C   UNL     1       7.422  -3.374  22.801  0.00  0.00    +0.089 A 
ATOM     16 CL   UNL     1       6.044  -3.344  21.762  0.00  0.00    -0.075 Cl
ENDBRANCH   6  10
TORSDOF 1
ENDMDL
MODEL 4
REMARK VINA RESULT:      -5.4      3.798      5.413
REMARK  Name = 
REMARK  1 active torsions:
REMARK  status: ('A' for Active; 'I' for Inactive)
REMARK    1  A    between atoms: C_6  and  C_8
REMARK                            x       y       z     vdW  Elec       q    Type
REMARK                         _______ _______ _______ _____ _____    ______ ____
ROOT
ATOM      1  N   UNL     1       9.823   2.134  21.485  0.00  0.00    -0.327 N 
ATOM      2  H   UNL     1       8.928   2.168  21.017  0.00  0.00    +0.145 HD
ATOM      3  H   UNL     1      10.198   3.007  21.828  0.00  0.00    +0.145 HD
ATOM      4  C   UNL     1       9.781   1.218  22.514  0.00  0.00    +0.213 A 
ATOM      5  N   UNL     1       8.921   0.203  22.417  0.00  0.00    -0.215 NA
ATOM      6  C   UNL     1       8.872  -0.668  23.450  0.00  0.00    +0.078 A 
ATOM      7  C   UNL     1       9.619  -0.487  24.594  0.00  0.00    +0.048 A 
ATOM      8  C   UNL     1      10.473   0.589  24.588  0.00  0.00    +0.116 A 
ATOM      9  N   UNL     1      10.568   1.453  23.566  0.00  0.00    -0.223 NA
ENDROOT
BRANCH   6  10
ATOM     10  C   UNL     1       7.932  -1.779  23.263  0.00  0.00    +0.027 A 
ATOM     11  C   UNL     1       8.261  -3.027  22.610  0.00  0.00    +0.039 A 
ATOM     12  C   UNL     1       7.211  -3.904  22.611  0.00  0.00    +0.080 A 
ATOM     13 CL   UNL     1       7.193  -5.490  21.953  0.00  0.00    -0.076 Cl
ATOM     14  S   UNL     1       5.834  -3.296  23.370  0.00  0.00    -0.065 S 
ATOM     15  C   UNL     1       6.638  -1.843  23.750  0.00  0.00    +0.089 A 
ATOM     16 CL   UNL     1       5.750  -0.710  24.702  0.00  0.00    -0.075 Cl
ENDBRANCH   6  10
TORSDOF 1
ENDMDL
MODEL 5
REMARK VINA RESULT:      -5.2      2.487      3.200
REMARK  Name = 
REMARK  1 active torsions:
REMARK  status: ('A' for Active; 'I' for Inactive)
REMARK    1  A    between atoms: C_6  and  C_8
REMARK                            x       y       z     vdW  Elec       q    Type
REMARK                         _______ _______ _______ _____ _____    ______ ____
ROOT
ATOM      1  N   UNL     1       6.215  -6.748  21.815  0.00  0.00    -0.327 N 
ATOM      2  H   UNL     1       7.167  -7.024  22.014  0.00  0.00    +0.145 HD
ATOM      3  H   UNL     1       5.480  -7.356  22.148  0.00  0.00    +0.145 HD
ATOM      4  C   UNL     1       5.991  -5.467  22.270  0.00  0.00    +0.213 A 
ATOM      5  N   UNL     1       7.033  -4.638  22.352  0.00  0.00    -0.215 NA
ATOM      6  C   UNL     1       6.799  -3.394  22.830  0.00  0.00    +0.078 A 
ATOM      7  C   UNL     1       5.558  -3.009  23.285  0.00  0.00    +0.048 A 
ATOM      8  C   UNL     1       4.555  -3.939  23.153  0.00  0.00    +0.116 A 
ATOM      9  N   UNL     1       4.748  -5.169  22.653  0.00  0.00    -0.223 NA
ENDROOT
BRANCH   6  10
ATOM     10  C   UNL     1       7.980  -2.525  22.861  0.00  0.00    +0.027 A 
ATOM     11  C   UNL     1       8.093  -1.275  22.141  0.00  0.00    +0.039 A 
ATOM     12  C   UNL     1       9.285  -0.645  22.382  0.00  0.00    +0.080 A 
ATOM     13 CL   UNL     1       9.803   0.859  21.737  0.00  0.00    -0.076 Cl
ATOM     14  S   UNL     1      10.283  -1.491  23.446  0.00  0.00    -0.065 S 
ATOM     15  C   UNL     1       9.111  -2.713  23.635  0.00  0.00    +0.089 A 
ATOM     16 CL   UNL     1       9.486  -3.953  24.776  0.00  0.00    -0.075 Cl
ENDBRANCH   6  10
TORSDOF 1
ENDMDL
MODEL 6
REMARK VINA RESULT:      -5.1      3.926      5.566
REMARK  Name = 
REMARK  1 active torsions:
REMARK  status: ('A' for Active; 'I' for Inactive)
REMARK    1  A    between atoms: C_6  and  C_8
REMARK                            x       y       z     vdW  Elec       q    Type
REMARK                         _______ _______ _______ _____ _____    ______ ____
ROOT
ATOM      1  N   UNL     1       6.068   1.904  22.699  0.00  0.00    -0.327 N 
ATOM      2  H   UNL     1       5.584   1.597  23.531  0.00  0.00    +0.145 HD
ATOM      3  H   UNL     1       6.410   2.855  22.688  0.00  0.00    +0.145 HD
ATOM      4  C   UNL     1       7.103   1.042  22.411  0.00  0.00    +0.213 A 
ATOM      5  N   UNL     1       7.001  -0.223  22.820  0.00  0.00    -0.215 NA
ATOM      6  C   UNL     1       8.040  -1.047  22.556  0.00  0.00    +0.078 A 
ATOM      7  C   UNL     1       9.195  -0.596  21.956  0.00  0.00    +0.048 A 
ATOM      8  C   UNL     1       9.195   0.724  21.572  0.00  0.00    +0.116 A 
ATOM      9  N   UNL     1       8.167   1.558  21.791  0.00  0.00    -0.223 NA
ENDROOT
BRANCH   6  10
ATOM     10  C   UNL     1       7.846  -2.431  23.003  0.00  0.00    +0.027 A 
ATOM     11  C   UNL     1       7.434  -3.517  22.141  0.00  0.00    +0.039 A 
ATOM     12  C   UNL     1       7.373  -4.711  22.808  0.00  0.00    +0.080 A 
ATOM     13 CL   UNL     1       6.942  -6.237  22.148  0.00  0.00    -0.076 Cl
ATOM     14  S   UNL     1       7.795  -4.589  24.435  0.00  0.00    -0.065 S 
ATOM     15  C   UNL     1       8.107  -2.923  24.269  0.00  0.00    +0.089 A 
ATOM     16 CL   UNL     1       8.731  -2.125  25.667  0.00  0.00    -0.075 Cl
ENDBRANCH   6  10
TORSDOF 1
ENDMDL
MODEL 7
REMARK VINA RESULT:      -5.0      3.551      5.071
REMARK  Name = 
REMARK  1 active torsions:
REMARK  status: ('A' for Active; 'I' for Inactive)
REMARK    1  A    between atoms: C_6  and  C_8
REMARK                            x       y       z     vdW  Elec       q    Type
REMARK                         _______ _______ _______ _____ _____    ______ ____
ROOT
ATOM      1  N   UNL     1      10.523   0.594  25.211  0.00  0.00    -0.327 N 
ATOM      2  H   UNL     1      10.580  -0.032  26.002  0.00  0.00    +0.145 HD
ATOM      3  H   UNL     1      11.375   1.056  24.926  0.00  0.00    +0.145 HD
ATOM      4  C   UNL     1       9.974  -0.062  24.131  0.00  0.00    +0.213 A 
ATOM      5  N   UNL     1       9.150  -1.083  24.367  0.00  0.00    -0.215 NA
ATOM      6  C   UNL     1       8.646  -1.735  23.295  0.00  0.00    +0.078 A 
ATOM      7  C   UNL     1       9.017  -1.417  22.007  0.00  0.00    +0.048 A 
ATOM      8  C   UNL     1       9.870  -0.348  21.875  0.00  0.00    +0.116 A 
ATOM      9  N   UNL     1      10.362   0.339  22.918  0.00  0.00    -0.223 NA
ENDROOT
BRANCH   6  10
ATOM     10  C   UNL     1       7.720  -2.824  23.627  0.00  0.00    +0.027 A 
ATOM     11  C   UNL     1       6.347  -2.893  23.177  0.00  0.00    +0.039 A 
ATOM     12  C   UNL     1       5.722  -4.037  23.596  0.00  0.00    +0.080 A 
ATOM     13 CL   UNL     1       4.103  -4.506  23.268  0.00  0.00    -0.076 Cl
ATOM     14  S   UNL     1       6.718  -5.044  24.511  0.00  0.00    -0.065 S 
ATOM     15  C   UNL     1       8.031  -3.973  24.330  0.00  0.00    +0.089 A 
ATOM     16 CL   UNL     1       9.533  -4.496  25.001  0.00  0.00    -0.075 Cl
ENDBRANCH   6  10
TORSDOF 1
ENDMDL
MODEL 8
REMARK VINA RESULT:      -5.0      5.352      6.919
REMARK  Name = 
REMARK  1 active torsions:
REMARK  status: ('A' for Active; 'I' for Inactive)
REMARK    1  A    between atoms: C_6  and  C_8
REMARK                            x       y       z     vdW  Elec       q    Type
REMARK                         _______ _______ _______ _____ _____    ______ ____
ROOT
ATOM      1  N   UNL     1       2.314  -9.192  25.235  0.00  0.00    -0.327 N 
ATOM      2  H   UNL     1       2.821  -9.176  26.109  0.00  0.00    +0.145 HD
ATOM      3  H   UNL     1       1.309  -9.285  25.286  0.00  0.00    +0.145 HD
ATOM      4  C   UNL     1       2.633  -8.081  24.485  0.00  0.00    +0.213 A 
ATOM      5  N   UNL     1       3.827  -7.517  24.674  0.00  0.00    -0.215 NA
ATOM      6  C   UNL     1       4.111  -6.409  23.952  0.00  0.00    +0.078 A 
ATOM      7  C   UNL     1       3.188  -5.832  23.107  0.00  0.00    +0.048 A 
ATOM      8  C   UNL     1       1.990  -6.495  22.985  0.00  0.00    +0.116 A 
ATOM      9  N   UNL     1       1.691  -7.614  23.663  0.00  0.00    -0.223 NA
ENDROOT
BRANCH   6  10
ATOM     10  C   UNL     1       5.452  -5.862  24.183  0.00  0.00    +0.027 A 
ATOM     11  C   UNL     1       6.016  -5.610  25.491  0.00  0.00    +0.039 A 
ATOM     12  C   UNL     1       7.300  -5.139  25.418  0.00  0.00    +0.080 A 
ATOM     13 CL   UNL     1       8.324  -4.731  26.735  0.00  0.00    -0.076 Cl
ATOM     14  S   UNL     1       7.866  -4.986  23.837  0.00  0.00    -0.065 S 
ATOM     15  C   UNL     1       6.400  -5.590  23.213  0.00  0.00    +0.089 A 
ATOM     16 CL   UNL     1       6.337  -5.809  21.502  0.00  0.00    -0.075 Cl
ENDBRANCH   6  10
TORSDOF 1
ENDMDL
MODEL 9
REMARK VINA RESULT:      -4.9      3.883      5.272
REMARK  Name = 
REMARK  1 active torsions:
REMARK  status: ('A' for Active; 'I' for Inactive)
REMARK    1  A    between atoms: C_6  and  C_8
REMARK                            x       y       z     vdW  Elec       q    Type
REMARK                         _______ _______ _______ _____ _____    ______ ____
ROOT
ATOM      1  N   UNL     1       9.979   1.333  24.903  0.00  0.00    -0.327 N 
ATOM      2  H   UNL     1       9.976   1.338  25.913  0.00  0.00    +0.145 HD
ATOM      3  H   UNL     1      10.770   1.764  24.442  0.00  0.00    +0.145 HD
ATOM      4  C   UNL     1       9.823   0.046  24.438  0.00  0.00    +0.213 A 
ATOM      5  N   UNL     1       9.177  -0.828  25.211  0.00  0.00    -0.215 NA
ATOM      6  C   UNL     1       9.061  -2.095  24.752  0.00  0.00    +0.078 A 
ATOM      7  C   UNL     1       9.644  -2.500  23.571  0.00  0.00    +0.048 A 
ATOM      8  C   UNL     1      10.284  -1.519  22.852  0.00  0.00    +0.116 A 
ATOM      9  N   UNL     1      10.389  -0.247  23.265  0.00  0.00    -0.223 NA
ENDROOT
BRANCH   6  10
ATOM     10  C   UNL     1       8.310  -2.993  25.635  0.00  0.00    +0.027 A 
ATOM     11  C   UNL     1       7.015  -2.686  26.202  0.00  0.00    +0.039 A 
ATOM     12  C   UNL     1       6.522  -3.719  26.954  0.00  0.00    +0.080 A 
ATOM     13 CL   UNL     1       5.018  -3.762  27.783  0.00  0.00    -0.076 Cl
ATOM     14  S   UNL     1       7.549  -5.054  27.009  0.00  0.00    -0.065 S 
ATOM     15  C   UNL     1       8.670  -4.282  25.985  0.00  0.00    +0.089 A 
ATOM     16 CL   UNL     1      10.039  -5.223  25.513  0.00  0.00    -0.075 Cl
ENDBRANCH   6  10
TORSDOF 1
ENDMDL
