MODEL 1
REMARK VINA RESULT:      -7.4      0.000      0.000
REMARK  Name = 
REMARK  8 active torsions:
REMARK  status: ('A' for Active; 'I' for Inactive)
REMARK    1  A    between atoms: C_1  and  C_2
REMARK    2  A    between atoms: C_2  and  C_3
REMARK    3  A    between atoms: C_3  and  C_4
REMARK    4  A    between atoms: C_15  and  C_16
REMARK    5  A    between atoms: C_15  and  C_17
REMARK    6  A    between atoms: C_21  and  O_23
REMARK    7  A    between atoms: C_24  and  C_26
REMARK    8  A    between atoms: C_27  and  C_29
REMARK                            x       y       z     vdW  Elec       q    Type
REMARK                         _______ _______ _______ _____ _____    ______ ____
ROOT
ATOM      1  C   UNL     1       8.027  -1.468  22.985  0.00  0.00    -0.026 A 
ATOM      2  C   UNL     1       7.070  -0.031  23.756  0.00  0.00    +0.064 A 
ATOM      3  C   UNL     1       6.295   1.247  24.421  0.00  0.00    +0.143 A 
ATOM      4  O   UNL     1       4.928   1.090  25.159  0.00  0.00    -0.481 OA
ATOM      5  C   UNL     1       4.316   2.228  26.072  0.00  0.00    +0.124 C 
ATOM      6  C   UNL     1       4.763   2.137  27.555  0.00  0.00    +0.060 C 
ATOM      7  C   UNL     1       2.748   2.299  26.119  0.00  0.00    +0.060 C 
ATOM      8  C   UNL     1       4.637   3.624  25.673  0.00  0.00    +0.020 C 
ATOM      9  C   UNL     1       5.706   3.887  24.957  0.00  0.00    +0.015 C 
ATOM     10  C   UNL     1       6.625   2.816  24.561  0.00  0.00    +0.059 A 
ATOM     11  C   UNL     1       7.853   3.359  24.272  0.00  0.00    +0.141 A 
ATOM     12  O   UNL     1       8.174   4.684  24.388  0.00  0.00    -0.488 OA
ATOM     13  C   UNL     1       9.564   5.084  24.344  0.00  0.00    +0.176 C 
ATOM     14  C   UNL     1       9.664   6.551  23.883  0.00  0.00    +0.052 C 
ATOM     15  C   UNL     1      10.360   4.267  23.351  0.00  0.00    +0.060 C 
ATOM     16  C   UNL     1      11.879   4.464  23.427  0.00  0.00    +0.014 C 
ATOM     17  C   UNL     1      10.108   2.797  23.509  0.00  0.00    +0.158 C 
ATOM     18  C   UNL     1       8.692   2.404  23.843  0.00  0.00    +0.067 A 
ATOM     19  C   UNL     1       8.265   0.939  23.668  0.00  0.00    +0.152 A 
ATOM     20  O   UNL     1       9.536   0.448  23.362  0.00  0.00    -0.422 OA
ATOM     21  C   UNL     1       9.277   0.022  22.112  0.00  0.00    +0.337 A 
ATOM     22  O   UNL     1       8.651   0.455  21.179  0.00  0.00    -0.245 OA
ATOM     23  C   UNL     1       9.315  -1.294  22.666  0.00  0.00    +0.096 A 
ENDROOT
BRANCH  17  24
ATOM     24  O   UNL     1      10.484   2.319  22.206  0.00  0.00    -0.387 OA
ATOM     25  H   UNL     1      11.290   1.780  22.344  0.00  0.00    +0.210 HD
ENDBRANCH  17  24
BRANCH   1  26
ATOM     26  C   UNL     1       7.941  -3.124  22.230  0.00  0.00    +0.036 C 
BRANCH  26  28
ATOM     27  C   UNL     1       6.559  -5.616  21.341  0.00  0.00    +0.004 C 
ATOM     28  C   UNL     1       7.233  -4.786  22.538  0.00  0.00    +0.001 C 
ENDBRANCH  26  28
ENDBRANCH   1  26
TORSDOF 3
ENDMDL
MODEL 2
REMARK VINA RESULT:      -7.3      1.989      6.070
REMARK  Name = 
REMARK  8 active torsions:
REMARK  status: ('A' for Active; 'I' for Inactive)
REMARK    1  A    between atoms: C_1  and  C_2
REMARK    2  A    between atoms: C_2  and  C_3
REMARK    3  A    between atoms: C_3  and  C_4
REMARK    4  A    between atoms: C_15  and  C_16
REMARK    5  A    between atoms: C_15  and  C_17
REMARK    6  A    between atoms: C_21  and  O_23
REMARK    7  A    between atoms: C_24  and  C_26
REMARK    8  A    between atoms: C_27  and  C_29
REMARK                            x       y       z     vdW  Elec       q    Type
REMARK                         _______ _______ _______ _____ _____    ______ ____
ROOT
ATOM      1  C   UNL     1       9.860   2.386  23.517  0.00  0.00    -0.026 A 
ATOM      2  C   UNL     1       8.613   1.911  24.857  0.00  0.00    +0.064 A 
ATOM      3  C   UNL     1       7.511   1.455  25.978  0.00  0.00    +0.143 A 
ATOM      4  O   UNL     1       7.136   2.371  27.185  0.00  0.00    -0.481 OA
ATOM      5  C   UNL     1       5.869   2.106  28.095  0.00  0.00    +0.124 C 
ATOM      6  C   UNL     1       4.582   2.801  27.580  0.00  0.00    +0.060 C 
ATOM      7  C   UNL     1       6.000   2.547  29.597  0.00  0.00    +0.060 C 
ATOM      8  C   UNL     1       5.479   0.681  28.266  0.00  0.00    +0.020 C 
ATOM      9  C   UNL     1       5.823  -0.219  27.374  0.00  0.00    +0.015 C 
ATOM     10  C   UNL     1       6.572   0.164  26.173  0.00  0.00    +0.059 A 
ATOM     11  C   UNL     1       6.389  -0.792  25.203  0.00  0.00    +0.141 A 
ATOM     12  O   UNL     1       5.591  -1.897  25.328  0.00  0.00    -0.488 OA
ATOM     13  C   UNL     1       5.248  -2.661  24.149  0.00  0.00    +0.176 C 
ATOM     14  C   UNL     1       4.905  -4.108  24.554  0.00  0.00    +0.052 C 
ATOM     15  C   UNL     1       6.400  -2.750  23.173  0.00  0.00    +0.060 C 
ATOM     16  C   UNL     1       6.038  -3.329  21.800  0.00  0.00    +0.014 C 
ATOM     17  C   UNL     1       7.025  -1.410  22.925  0.00  0.00    +0.158 C 
ATOM     18  C   UNL     1       7.120  -0.495  24.118  0.00  0.00    +0.067 A 
ATOM     19  C   UNL     1       8.051   0.724  24.050  0.00  0.00    +0.152 A 
ATOM     20  O   UNL     1       8.389   0.579  22.703  0.00  0.00    -0.422 OA
ATOM     21  C   UNL     1       9.708   0.363  22.862  0.00  0.00    +0.337 A 
ATOM     22  O   UNL     1      10.378  -0.273  23.635  0.00  0.00    -0.245 OA
ATOM     23  C   UNL     1       9.878   1.693  22.372  0.00  0.00    +0.096 A 
ENDROOT
BRANCH  17  24
ATOM     24  O   UNL     1       8.331  -1.803  22.470  0.00  0.00    -0.387 OA
ATOM     25  H   UNL     1       8.271  -2.765  22.289  0.00  0.00    +0.210 HD
ENDBRANCH  17  24
BRANCH   1  26
ATOM     26  C   UNL     1      11.339   3.360  23.090  0.00  0.00    +0.036 C 
BRANCH  26  28
ATOM     27  C   UNL     1      13.226   5.573  22.417  0.00  0.00    +0.004 C 
ATOM     28  C   UNL     1      12.091   5.002  23.398  0.00  0.00    +0.001 C 
ENDBRANCH  26  28
ENDBRANCH   1  26
TORSDOF 3
ENDMDL
MODEL 3
REMARK VINA RESULT:      -7.1      2.841      6.952
REMARK  Name = 
REMARK  8 active torsions:
REMARK  status: ('A' for Active; 'I' for Inactive)
REMARK    1  A    between atoms: C_1  and  C_2
REMARK    2  A    between atoms: C_2  and  C_3
REMARK    3  A    between atoms: C_3  and  C_4
REMARK    4  A    between atoms: C_15  and  C_16
REMARK    5  A    between atoms: C_15  and  C_17
REMARK    6  A    between atoms: C_21  and  O_23
REMARK    7  A    between atoms: C_24  and  C_26
REMARK    8  A    between atoms: C_27  and  C_29
REMARK                            x       y       z     vdW  Elec       q    Type
REMARK                         _______ _______ _______ _____ _____    ______ ____
ROOT
ATOM      1  C   UNL     1       9.041   0.161  23.903  0.00  0.00    -0.026 A 
ATOM      2  C   UNL     1       7.701  -0.452  25.087  0.00  0.00    +0.064 A 
ATOM      3  C   UNL     1       6.528  -1.028  26.072  0.00  0.00    +0.143 A 
ATOM      4  O   UNL     1       5.937  -0.175  27.237  0.00  0.00    -0.481 OA
ATOM      5  C   UNL     1       4.606  -0.572  27.995  0.00  0.00    +0.124 C 
ATOM      6  C   UNL     1       3.326   0.014  27.344  0.00  0.00    +0.060 C 
ATOM      7  C   UNL     1       4.527  -0.152  29.507  0.00  0.00    +0.060 C 
ATOM      8  C   UNL     1       4.332  -2.030  28.106  0.00  0.00    +0.020 C 
ATOM      9  C   UNL     1       4.856  -2.877  27.250  0.00  0.00    +0.015 C 
ATOM     10  C   UNL     1       5.696  -2.403  26.146  0.00  0.00    +0.059 A 
ATOM     11  C   UNL     1       5.712  -3.351  25.152  0.00  0.00    +0.141 A 
ATOM     12  O   UNL     1       5.010  -4.527  25.175  0.00  0.00    -0.488 OA
ATOM     13  C   UNL     1       4.874  -5.294  23.956  0.00  0.00    +0.176 C 
ATOM     14  C   UNL     1       4.622  -6.775  24.305  0.00  0.00    +0.052 C 
ATOM     15  C   UNL     1       6.131  -5.259  23.117  0.00  0.00    +0.060 C 
ATOM     16  C   UNL     1       5.979  -5.840  21.706  0.00  0.00    +0.014 C 
ATOM     17  C   UNL     1       6.653  -3.863  22.954  0.00  0.00    +0.158 C 
ATOM     18  C   UNL     1       6.529  -2.968  24.159  0.00  0.00    +0.067 A 
ATOM     19  C   UNL     1       7.346  -1.668  24.210  0.00  0.00    +0.152 A 
ATOM     20  O   UNL     1       7.844  -1.754  22.909  0.00  0.00    -0.422 OA
ATOM     21  C   UNL     1       9.151  -1.853  23.214  0.00  0.00    +0.337 A 
ATOM     22  O   UNL     1       9.786  -2.441  24.052  0.00  0.00    -0.245 OA
ATOM     23  C   UNL     1       9.251  -0.503  22.760  0.00  0.00    +0.096 A 
ENDROOT
BRANCH  17  24
ATOM     24  O   UNL     1       8.033  -4.127  22.646  0.00  0.00    -0.387 OA
ATOM     25  H   UNL     1       8.022  -4.760  21.898  0.00  0.00    +0.210 HD
ENDBRANCH  17  24
BRANCH   1  26
ATOM     26  C   UNL     1      10.463   1.274  23.656  0.00  0.00    +0.036 C 
BRANCH  26  28
ATOM     27  C   UNL     1       9.796   4.179  23.823  0.00  0.00    +0.004 C 
ATOM     28  C   UNL     1      10.845   3.045  23.387  0.00  0.00    +0.001 C 
ENDBRANCH  26  28
ENDBRANCH   1  26
TORSDOF 3
ENDMDL
MODEL 4
REMARK VINA RESULT:      -7.1      1.936      5.747
REMARK  Name = 
REMARK  8 active torsions:
REMARK  status: ('A' for Active; 'I' for Inactive)
REMARK    1  A    between atoms: C_1  and  C_2
REMARK    2  A    between atoms: C_2  and  C_3
REMARK    3  A    between atoms: C_3  and  C_4
REMARK    4  A    between atoms: C_15  and  C_16
REMARK    5  A    between atoms: C_15  and  C_17
REMARK    6  A    between atoms: C_21  and  O_23
REMARK    7  A    between atoms: C_24  and  C_26
REMARK    8  A    between atoms: C_27  and  C_29
REMARK                            x       y       z     vdW  Elec       q    Type
REMARK                         _______ _______ _______ _____ _____    ______ ____
ROOT
ATOM      1  C   UNL     1       5.247   1.992  27.003  0.00  0.00    -0.026 A 
ATOM      2  C   UNL     1       6.651   1.088  26.115  0.00  0.00    +0.064 A 
ATOM      3  C   UNL     1       7.886   0.361  25.325  0.00  0.00    +0.143 A 
ATOM      4  O   UNL     1       7.905  -1.178  25.064  0.00  0.00    -0.481 OA
ATOM      5  C   UNL     1       8.908  -1.857  24.046  0.00  0.00    +0.124 C 
ATOM      6  C   UNL     1       8.355  -1.943  22.599  0.00  0.00    +0.060 C 
ATOM      7  C   UNL     1       9.358  -3.320  24.401  0.00  0.00    +0.060 C 
ATOM      8  C   UNL     1      10.232  -1.197  23.899  0.00  0.00    +0.020 C 
ATOM      9  C   UNL     1      10.381   0.076  24.188  0.00  0.00    +0.015 C 
ATOM     10  C   UNL     1       9.240   0.883  24.631  0.00  0.00    +0.059 A 
ATOM     11  C   UNL     1       9.510   2.210  24.401  0.00  0.00    +0.141 A 
ATOM     12  O   UNL     1      10.644   2.690  23.804  0.00  0.00    -0.488 OA
ATOM     13  C   UNL     1      10.680   4.064  23.351  0.00  0.00    +0.176 C 
ATOM     14  C   UNL     1      12.141   4.551  23.299  0.00  0.00    +0.052 C 
ATOM     15  C   UNL     1       9.951   4.994  24.295  0.00  0.00    +0.060 C 
ATOM     16  C   UNL     1       9.735   6.415  23.760  0.00  0.00    +0.014 C 
ATOM     17  C   UNL     1       8.599   4.463  24.667  0.00  0.00    +0.158 C 
ATOM     18  C   UNL     1       8.506   2.972  24.860  0.00  0.00    +0.067 A 
ATOM     19  C   UNL     1       7.282   2.389  25.581  0.00  0.00    +0.152 A 
ATOM     20  O   UNL     1       6.575   3.590  25.670  0.00  0.00    -0.422 OA
ATOM     21  C   UNL     1       6.539   3.688  27.013  0.00  0.00    +0.337 A 
ATOM     22  O   UNL     1       7.326   3.483  27.901  0.00  0.00    -0.245 OA
ATOM     23  C   UNL     1       5.163   3.323  26.897  0.00  0.00    +0.096 A 
ENDROOT
BRANCH  17  24
ATOM     24  O   UNL     1       8.368   5.160  25.903  0.00  0.00    -0.387 OA
ATOM     25  H   UNL     1       7.836   5.949  25.668  0.00  0.00    +0.210 HD
ENDBRANCH  17  24
BRANCH   1  26
ATOM     26  C   UNL     1       3.897   1.884  28.221  0.00  0.00    +0.036 C 
BRANCH  26  28
ATOM     27  C   UNL     1       4.314  -0.251  30.265  0.00  0.00    +0.004 C 
ATOM     28  C   UNL     1       3.446   1.002  29.762  0.00  0.00    +0.001 C 
ENDBRANCH  26  28
ENDBRANCH   1  26
TORSDOF 3
ENDMDL
MODEL 5
REMARK VINA RESULT:      -6.9      2.101      7.044
REMARK  Name = 
REMARK  8 active torsions:
REMARK  status: ('A' for Active; 'I' for Inactive)
REMARK    1  A    between atoms: C_1  and  C_2
REMARK    2  A    between atoms: C_2  and  C_3
REMARK    3  A    between atoms: C_3  and  C_4
REMARK    4  A    between atoms: C_15  and  C_16
REMARK    5  A    between atoms: C_15  and  C_17
REMARK    6  A    between atoms: C_21  and  O_23
REMARK    7  A    between atoms: C_24  and  C_26
REMARK    8  A    between atoms: C_27  and  C_29
REMARK                            x       y       z     vdW  Elec       q    Type
REMARK                         _______ _______ _______ _____ _____    ______ ____
ROOT
ATOM      1  C   UNL     1       9.092   1.326  23.698  0.00  0.00    -0.026 A 
ATOM      2  C   UNL     1       8.121  -0.292  23.575  0.00  0.00    +0.064 A 
ATOM      3  C   UNL     1       7.247  -1.674  23.518  0.00  0.00    +0.143 A 
ATOM      4  O   UNL     1       7.720  -2.915  22.699  0.00  0.00    -0.481 OA
ATOM      5  C   UNL     1       7.074  -4.349  22.874  0.00  0.00    +0.124 C 
ATOM      6  C   UNL     1       7.764  -5.209  23.966  0.00  0.00    +0.060 C 
ATOM      7  C   UNL     1       7.056  -5.254  21.590  0.00  0.00    +0.060 C 
ATOM      8  C   UNL     1       5.632  -4.372  23.239  0.00  0.00    +0.020 C 
ATOM      9  C   UNL     1       5.078  -3.345  23.840  0.00  0.00    +0.015 C 
ATOM     10  C   UNL     1       5.872  -2.164  24.194  0.00  0.00    +0.059 A 
ATOM     11  C   UNL     1       5.237  -1.478  25.200  0.00  0.00    +0.141 A 
ATOM     12  O   UNL     1       4.073  -1.869  25.806  0.00  0.00    -0.488 OA
ATOM     13  C   UNL     1       3.667  -1.231  27.040  0.00  0.00    +0.176 C 
ATOM     14  C   UNL     1       2.139  -1.350  27.203  0.00  0.00    +0.052 C 
ATOM     15  C   UNL     1       3.985   0.248  27.048  0.00  0.00    +0.060 C 
ATOM     16  C   UNL     1       3.811   0.936  28.407  0.00  0.00    +0.014 C 
ATOM     17  C   UNL     1       5.392   0.518  26.605  0.00  0.00    +0.158 C 
ATOM     18  C   UNL     1       5.913  -0.357  25.495  0.00  0.00    +0.067 A 
ATOM     19  C   UNL     1       7.181   0.071  24.741  0.00  0.00    +0.152 A 
ATOM     20  O   UNL     1       7.479   1.163  25.558  0.00  0.00    -0.422 OA
ATOM     21  C   UNL     1       7.353   2.131  24.631  0.00  0.00    +0.337 A 
ATOM     22  O   UNL     1       6.584   2.352  23.732  0.00  0.00    -0.245 OA
ATOM     23  C   UNL     1       8.779   2.200  24.662  0.00  0.00    +0.096 A 
ENDROOT
BRANCH  17  24
ATOM     24  O   UNL     1       5.281   1.885  26.176  0.00  0.00    -0.387 OA
ATOM     25  H   UNL     1       4.616   2.296  26.768  0.00  0.00    +0.210 HD
ENDBRANCH  17  24
BRANCH   1  26
ATOM     26  C   UNL     1      10.288   2.448  22.905  0.00  0.00    +0.036 C 
BRANCH  26  28
ATOM     27  C   UNL     1      11.000   5.250  23.648  0.00  0.00    +0.004 C 
ATOM     28  C   UNL     1      11.497   3.759  23.327  0.00  0.00    +0.001 C 
ENDBRANCH  26  28
ENDBRANCH   1  26
TORSDOF 3
ENDMDL
MODEL 6
REMARK VINA RESULT:      -6.8      2.502      5.621
REMARK  Name = 
REMARK  8 active torsions:
REMARK  status: ('A' for Active; 'I' for Inactive)
REMARK    1  A    between atoms: C_1  and  C_2
REMARK    2  A    between atoms: C_2  and  C_3
REMARK    3  A    between atoms: C_3  and  C_4
REMARK    4  A    between atoms: C_15  and  C_16
REMARK    5  A    between atoms: C_15  and  C_17
REMARK    6  A    between atoms: C_21  and  O_23
REMARK    7  A    between atoms: C_24  and  C_26
REMARK    8  A    between atoms: C_27  and  C_29
REMARK                            x       y       z     vdW  Elec       q    Type
REMARK                         _______ _______ _______ _____ _____    ______ ____
ROOT
ATOM      1  C   UNL     1       5.187  -3.076  23.761  0.00  0.00    -0.026 A 
ATOM      2  C   UNL     1       6.331  -1.572  23.816  0.00  0.00    +0.064 A 
ATOM      3  C   UNL     1       7.292  -0.251  23.917  0.00  0.00    +0.143 A 
ATOM      4  O   UNL     1       8.139   0.246  22.704  0.00  0.00    -0.481 OA
ATOM      5  C   UNL     1       8.821   1.674  22.668  0.00  0.00    +0.124 C 
ATOM      6  C   UNL     1       7.909   2.779  22.073  0.00  0.00    +0.060 C 
ATOM      7  C   UNL     1      10.165   1.771  21.860  0.00  0.00    +0.060 C 
ATOM      8  C   UNL     1       9.257   2.219  23.981  0.00  0.00    +0.020 C 
ATOM      9  C   UNL     1       8.698   1.807  25.096  0.00  0.00    +0.015 C 
ATOM     10  C   UNL     1       7.611   0.824  25.071  0.00  0.00    +0.059 A 
ATOM     11  C   UNL     1       6.889   0.919  26.236  0.00  0.00    +0.141 A 
ATOM     12  O   UNL     1       7.124   1.826  27.234  0.00  0.00    -0.488 OA
ATOM     13  C   UNL     1       6.124   2.023  28.262  0.00  0.00    +0.176 C 
ATOM     14  C   UNL     1       6.797   2.565  29.538  0.00  0.00    +0.052 C 
ATOM     15  C   UNL     1       5.445   0.729  28.652  0.00  0.00    +0.060 C 
ATOM     16  C   UNL     1       4.213   0.894  29.549  0.00  0.00    +0.014 C 
ATOM     17  C   UNL     1       5.002  -0.052  27.451  0.00  0.00    +0.158 C 
ATOM     18  C   UNL     1       5.929  -0.017  26.263  0.00  0.00    +0.067 A 
ATOM     19  C   UNL     1       5.747  -1.055  25.146  0.00  0.00    +0.152 A 
ATOM     20  O   UNL     1       4.570  -1.612  25.649  0.00  0.00    -0.422 OA
ATOM     21  C   UNL     1       5.032  -2.856  25.875  0.00  0.00    +0.337 A 
ATOM     22  O   UNL     1       6.053  -3.315  26.318  0.00  0.00    -0.245 OA
ATOM     23  C   UNL     1       4.273  -3.233  24.726  0.00  0.00    +0.096 A 
ENDROOT
BRANCH  17  24
ATOM     24  O   UNL     1       4.923  -1.376  28.006  0.00  0.00    -0.387 OA
ATOM     25  H   UNL     1       5.163  -1.984  27.277  0.00  0.00    +0.210 HD
ENDBRANCH  17  24
BRANCH   1  26
ATOM     26  C   UNL     1       4.831  -4.691  22.997  0.00  0.00    +0.036 C 
BRANCH  26  28
ATOM     27  C   UNL     1       7.250  -6.018  21.857  0.00  0.00    +0.004 C 
ATOM     28  C   UNL     1       5.655  -6.016  22.037  0.00  0.00    +0.001 C 
ENDBRANCH  26  28
ENDBRANCH   1  26
TORSDOF 3
ENDMDL
MODEL 7
REMARK VINA RESULT:      -6.8      5.415      9.539
REMARK  Name = 
REMARK  8 active torsions:
REMARK  status: ('A' for Active; 'I' for Inactive)
REMARK    1  A    between atoms: C_1  and  C_2
REMARK    2  A    between atoms: C_2  and  C_3
REMARK    3  A    between atoms: C_3  and  C_4
REMARK    4  A    between atoms: C_15  and  C_16
REMARK    5  A    between atoms: C_15  and  C_17
REMARK    6  A    between atoms: C_21  and  O_23
REMARK    7  A    between atoms: C_24  and  C_26
REMARK    8  A    between atoms: C_27  and  C_29
REMARK                            x       y       z     vdW  Elec       q    Type
REMARK                         _______ _______ _______ _____ _____    ______ ____
ROOT
ATOM      1  C   UNL     1       7.443  -3.512  23.876  0.00  0.00    -0.026 A 
ATOM      2  C   UNL     1       6.644  -4.430  25.323  0.00  0.00    +0.064 A 
ATOM      3  C   UNL     1       5.902  -5.235  26.539  0.00  0.00    +0.143 A 
ATOM      4  O   UNL     1       6.384  -5.119  28.019  0.00  0.00    -0.481 OA
ATOM      5  C   UNL     1       5.514  -5.622  29.241  0.00  0.00    +0.124 C 
ATOM      6  C   UNL     1       4.556  -4.539  29.805  0.00  0.00    +0.060 C 
ATOM      7  C   UNL     1       6.317  -6.146  30.485  0.00  0.00    +0.060 C 
ATOM      8  C   UNL     1       4.636  -6.792  28.976  0.00  0.00    +0.020 C 
ATOM      9  C   UNL     1       4.240  -7.069  27.754  0.00  0.00    +0.015 C 
ATOM     10  C   UNL     1       4.628  -6.214  26.629  0.00  0.00    +0.059 A 
ATOM     11  C   UNL     1       3.741  -6.396  25.596  0.00  0.00    +0.141 A 
ATOM     12  O   UNL     1       2.641  -7.211  25.639  0.00  0.00    -0.488 OA
ATOM     13  C   UNL     1       1.630  -7.091  24.611  0.00  0.00    +0.176 C 
ATOM     14  C   UNL     1       0.861  -8.421  24.487  0.00  0.00    +0.052 C 
ATOM     15  C   UNL     1       2.231  -6.815  23.251  0.00  0.00    +0.060 C 
ATOM     16  C   UNL     1       1.218  -6.433  22.165  0.00  0.00    +0.014 C 
ATOM     17  C   UNL     1       3.244  -5.711  23.302  0.00  0.00    +0.158 C 
ATOM     18  C   UNL     1       4.115  -5.672  24.530  0.00  0.00    +0.067 A 
ATOM     19  C   UNL     1       5.395  -4.823  24.511  0.00  0.00    +0.152 A 
ATOM     20  O   UNL     1       5.163  -4.233  23.266  0.00  0.00    -0.422 OA
ATOM     21  C   UNL     1       6.232  -4.735  22.619  0.00  0.00    +0.337 A 
ATOM     22  O   UNL     1       6.783  -5.805  22.590  0.00  0.00    -0.245 OA
ATOM     23  C   UNL     1       6.777  -3.419  22.719  0.00  0.00    +0.096 A 
ENDROOT
BRANCH  17  24
ATOM     24  O   UNL     1       4.019  -6.003  22.127  0.00  0.00    -0.387 OA
ATOM     25  H   UNL     1       4.906  -5.621  22.293  0.00  0.00    +0.210 HD
ENDBRANCH  17  24
BRANCH   1  26
ATOM     26  C   UNL     1       8.956  -2.753  23.203  0.00  0.00    +0.036 C 
BRANCH  26  28
ATOM     27  C   UNL     1       9.172  -0.287  21.534  0.00  0.00    +0.004 C 
ATOM     28  C   UNL     1       9.667  -1.108  22.821  0.00  0.00    +0.001 C 
ENDBRANCH  26  28
ENDBRANCH   1  26
TORSDOF 3
ENDMDL
MODEL 8
REMARK VINA RESULT:      -6.8      2.955      4.635
REMARK  Name = 
REMARK  8 active torsions:
REMARK  status: ('A' for Active; 'I' for Inactive)
REMARK    1  A    between atoms: C_1  and  C_2
REMARK    2  A    between atoms: C_2  and  C_3
REMARK    3  A    between atoms: C_3  and  C_4
REMARK    4  A    between atoms: C_15  and  C_16
REMARK    5  A    between atoms: C_15  and  C_17
REMARK    6  A    between atoms: C_21  and  O_23
REMARK    7  A    between atoms: C_24  and  C_26
REMARK    8  A    between atoms: C_27  and  C_29
REMARK                            x       y       z     vdW  Elec       q    Type
REMARK                         _______ _______ _______ _____ _____    ______ ____
ROOT
ATOM      1  C   UNL     1       4.820  -5.142  24.561  0.00  0.00    -0.026 A 
ATOM      2  C   UNL     1       4.745  -3.327  25.084  0.00  0.00    +0.064 A 
ATOM      3  C   UNL     1       4.736  -1.747  25.509  0.00  0.00    +0.143 A 
ATOM      4  O   UNL     1       3.762  -1.191  26.595  0.00  0.00    -0.481 OA
ATOM      5  C   UNL     1       3.940   0.240  27.247  0.00  0.00    +0.124 C 
ATOM      6  C   UNL     1       4.836   0.234  28.514  0.00  0.00    +0.060 C 
ATOM      7  C   UNL     1       2.615   0.962  27.685  0.00  0.00    +0.060 C 
ATOM      8  C   UNL     1       4.538   1.283  26.373  0.00  0.00    +0.020 C 
ATOM      9  C   UNL     1       5.296   0.948  25.354  0.00  0.00    +0.015 C 
ATOM     10  C   UNL     1       5.596  -0.459  25.073  0.00  0.00    +0.059 A 
ATOM     11  C   UNL     1       6.741  -0.535  24.318  0.00  0.00    +0.141 A 
ATOM     12  O   UNL     1       7.504   0.536  23.937  0.00  0.00    -0.488 OA
ATOM     13  C   UNL     1       8.831   0.308  23.406  0.00  0.00    +0.176 C 
ATOM     14  C   UNL     1       9.238   1.496  22.512  0.00  0.00    +0.052 C 
ATOM     15  C   UNL     1       8.891  -0.926  22.534  0.00  0.00    +0.060 C 
ATOM     16  C   UNL     1      10.306  -1.367  22.141  0.00  0.00    +0.014 C 
ATOM     17  C   UNL     1       8.240  -2.105  23.192  0.00  0.00    +0.158 C 
ATOM     18  C   UNL     1       6.998  -1.811  23.993  0.00  0.00    +0.067 A 
ATOM     19  C   UNL     1       6.075  -2.972  24.391  0.00  0.00    +0.152 A 
ATOM     20  O   UNL     1       6.907  -3.991  23.923  0.00  0.00    -0.422 OA
ATOM     21  C   UNL     1       6.086  -4.485  22.978  0.00  0.00    +0.337 A 
ATOM     22  O   UNL     1       5.347  -4.003  22.158  0.00  0.00    -0.245 OA
ATOM     23  C   UNL     1       5.883  -5.577  23.874  0.00  0.00    +0.096 A 
ENDROOT
BRANCH  17  24
ATOM     24  O   UNL     1       7.935  -2.918  22.046  0.00  0.00    -0.387 OA
ATOM     25  H   UNL     1       7.320  -3.610  22.367  0.00  0.00    +0.210 HD
ENDBRANCH  17  24
BRANCH   1  26
ATOM     26  C   UNL     1       3.920  -6.718  24.396  0.00  0.00    +0.036 C 
BRANCH  26  28
ATOM     27  C   UNL     1       1.463  -6.556  22.708  0.00  0.00    +0.004 C 
ATOM     28  C   UNL     1       2.329  -7.383  23.777  0.00  0.00    +0.001 C 
ENDBRANCH  26  28
ENDBRANCH   1  26
TORSDOF 3
ENDMDL
MODEL 9
REMARK VINA RESULT:      -6.5      4.808      8.715
REMARK  Name = 
REMARK  8 active torsions:
REMARK  status: ('A' for Active; 'I' for Inactive)
REMARK    1  A    between atoms: C_1  and  C_2
REMARK    2  A    between atoms: C_2  and  C_3
REMARK    3  A    between atoms: C_3  and  C_4
REMARK    4  A    between atoms: C_15  and  C_16
REMARK    5  A    between atoms: C_15  and  C_17
REMARK    6  A    between atoms: C_21  and  O_23
REMARK    7  A    between atoms: C_24  and  C_26
REMARK    8  A    between atoms: C_27  and  C_29
REMARK                            x       y       z     vdW  Elec       q    Type
REMARK                         _______ _______ _______ _____ _____    ______ ____
ROOT
ATOM      1  C   UNL     1       6.399  -2.587  22.931  0.00  0.00    -0.026 A 
ATOM      2  C   UNL     1       5.251  -2.619  24.434  0.00  0.00    +0.064 A 
ATOM      3  C   UNL     1       4.224  -2.691  25.705  0.00  0.00    +0.143 A 
ATOM      4  O   UNL     1       4.166  -1.564  26.783  0.00  0.00    -0.481 OA
ATOM      5  C   UNL     1       2.987  -1.447  27.832  0.00  0.00    +0.124 C 
ATOM      6  C   UNL     1       1.797  -0.587  27.331  0.00  0.00    +0.060 C 
ATOM      7  C   UNL     1       3.372  -0.842  29.230  0.00  0.00    +0.060 C 
ATOM      8  C   UNL     1       2.365  -2.730  28.257  0.00  0.00    +0.020 C 
ATOM      9  C   UNL     1       2.432  -3.792  27.488  0.00  0.00    +0.015 C 
ATOM     10  C   UNL     1       3.093  -3.732  26.181  0.00  0.00    +0.059 A 
ATOM     11  C   UNL     1       2.627  -4.755  25.392  0.00  0.00    +0.141 A 
ATOM     12  O   UNL     1       1.660  -5.652  25.757  0.00  0.00    -0.488 OA
ATOM     13  C   UNL     1       1.048  -6.486  24.746  0.00  0.00    +0.176 C 
ATOM     14  C   UNL     1       0.495  -7.768  25.400  0.00  0.00    +0.052 C 
ATOM     15  C   UNL     1       2.042  -6.933  23.698  0.00  0.00    +0.060 C 
ATOM     16  C   UNL     1       1.421  -7.609  22.469  0.00  0.00    +0.014 C 
ATOM     17  C   UNL     1       2.868  -5.790  23.190  0.00  0.00    +0.158 C 
ATOM     18  C   UNL     1       3.267  -4.759  24.213  0.00  0.00    +0.067 A 
ATOM     19  C   UNL     1       4.392  -3.769  23.874  0.00  0.00    +0.152 A 
ATOM     20  O   UNL     1       4.538  -4.159  22.541  0.00  0.00    -0.422 OA
ATOM     21  C   UNL     1       5.804  -4.609  22.614  0.00  0.00    +0.337 A 
ATOM     22  O   UNL     1       6.432  -5.254  23.415  0.00  0.00    -0.245 OA
ATOM     23  C   UNL     1       6.156  -3.418  21.911  0.00  0.00    +0.096 A 
ENDROOT
BRANCH  17  24
ATOM     24  O   UNL     1       4.018  -6.492  22.687  0.00  0.00    -0.387 OA
ATOM     25  H   UNL     1       4.525  -6.771  23.478  0.00  0.00    +0.210 HD
ENDBRANCH  17  24
BRANCH   1  26
ATOM     26  C   UNL     1       7.971  -1.992  22.229  0.00  0.00    +0.036 C 
BRANCH  26  28
ATOM     27  C   UNL     1       9.718   0.378  21.739  0.00  0.00    +0.004 C 
ATOM     28  C   UNL     1       9.387  -0.906  22.643  0.00  0.00    +0.001 C 
ENDBRANCH  26  28
ENDBRANCH   1  26
TORSDOF 3
ENDMDL
