MODEL 1
REMARK VINA RESULT:      -5.7      0.000      0.000
REMARK  Name = 
REMARK  7 active torsions:
REMARK  status: ('A' for Active; 'I' for Inactive)
REMARK    1  A    between atoms: C_1  and  C_2
REMARK    2  A    between atoms: C_2  and  C_3
REMARK    3  A    between atoms: C_2  and  N_4
REMARK    4  A    between atoms: N_4  and  N_5
REMARK    5  A    between atoms: C_6  and  C_8
REMARK    6  A    between atoms: C_8  and  O_9
REMARK    7  A    between atoms: O_9  and  C_10
REMARK                            x       y       z     vdW  Elec       q    Type
REMARK                         _______ _______ _______ _____ _____    ______ ____
ROOT
ATOM      1  N   UNL     1       7.430  -3.739  23.806  0.00  0.00    -0.248 N 
ATOM      2  H   UNL     1       7.095  -2.781  23.922  0.00  0.00    +0.169 HD
ATOM      3  C   UNL     1       8.738  -4.012  24.181  0.00  0.00    +0.264 C 
ATOM      4  O   UNL     1       9.175  -5.151  24.339  0.00  0.00    -0.271 OA
ENDROOT
BRANCH   1   5
ATOM      5  N   UNL     1       6.487  -4.788  23.739  0.00  0.00    -0.238 NA
ATOM      6  H   UNL     1       7.002  -5.664  23.911  0.00  0.00    +0.145 HD
BRANCH   5   8
ATOM      7  C   UNL     1       5.791  -3.461  21.817  0.00  0.00    +0.025 C 
ATOM      8  C   UNL     1       5.863  -4.871  22.407  0.00  0.00    +0.067 C 
ATOM      9  C   UNL     1       6.664  -5.782  21.473  0.00  0.00    +0.025 C 
ENDBRANCH   5   8
ENDBRANCH   1   5
BRANCH   3  10
ATOM     10  C   UNL     1       9.621  -2.769  24.260  0.00  0.00    +0.325 C 
BRANCH  10  11
ATOM     11  O   UNL     1       9.743  -2.134  22.987  0.00  0.00    -0.483 OA
BRANCH  11  12
ATOM     12  C   UNL     1       9.936  -0.780  23.017  0.00  0.00    +0.121 A 
ATOM     13  C   UNL     1      10.253  -0.245  24.271  0.00  0.00    +0.047 A 
ATOM     14  C   UNL     1      10.455   1.129  24.425  0.00  0.00    +0.023 A 
ATOM     15  C   UNL     1      10.322   1.974  23.326  0.00  0.00    +0.041 A 
ATOM     16 CL   UNL     1      10.564   3.667  23.509  0.00  0.00    -0.084 Cl
ATOM     17  C   UNL     1       9.989   1.455  22.078  0.00  0.00    +0.023 A 
ATOM     18  C   UNL     1       9.796   0.078  21.925  0.00  0.00    +0.047 A 
ENDBRANCH  11  12
ENDBRANCH  10  11
ENDBRANCH   3  10
TORSDOF 5
ENDMDL
MODEL 2
REMARK VINA RESULT:      -5.6      3.879      6.765
REMARK  Name = 
REMARK  7 active torsions:
REMARK  status: ('A' for Active; 'I' for Inactive)
REMARK    1  A    between atoms: C_1  and  C_2
REMARK    2  A    between atoms: C_2  and  C_3
REMARK    3  A    between atoms: C_2  and  N_4
REMARK    4  A    between atoms: N_4  and  N_5
REMARK    5  A    between atoms: C_6  and  C_8
REMARK    6  A    between atoms: C_8  and  O_9
REMARK    7  A    between atoms: O_9  and  C_10
REMARK                            x       y       z     vdW  Elec       q    Type
REMARK                         _______ _______ _______ _____ _____    ______ ____
ROOT
ATOM      1  N   UNL     1      10.668  -0.079  23.620  0.00  0.00    -0.248 N 
ATOM      2  H   UNL     1      11.260  -0.416  22.859  0.00  0.00    +0.169 HD
ATOM      3  C   UNL     1       9.890  -1.012  24.291  0.00  0.00    +0.264 C 
ATOM      4  O   UNL     1       9.346  -0.790  25.372  0.00  0.00    -0.271 OA
ENDROOT
BRANCH   1   5
ATOM      5  N   UNL     1      10.994   1.144  24.248  0.00  0.00    -0.238 NA
ATOM      6  H   UNL     1      10.575   1.117  25.189  0.00  0.00    +0.145 HD
BRANCH   5   8
ATOM      7  C   UNL     1      10.041   1.836  22.114  0.00  0.00    +0.025 C 
ATOM      8  C   UNL     1      10.429   2.294  23.521  0.00  0.00    +0.067 C 
ATOM      9  C   UNL     1       9.199   2.856  24.239  0.00  0.00    +0.025 C 
ENDBRANCH   5   8
ENDBRANCH   1   5
BRANCH   3  10
ATOM     10  C   UNL     1       9.671  -2.301  23.503  0.00  0.00    +0.325 C 
BRANCH  10  11
ATOM     11  O   UNL     1      10.057  -3.447  24.262  0.00  0.00    -0.483 OA
BRANCH  11  12
ATOM     12  C   UNL     1       9.033  -4.138  24.852  0.00  0.00    +0.121 A 
ATOM     13  C   UNL     1       7.910  -4.352  24.046  0.00  0.00    +0.047 A 
ATOM     14  C   UNL     1       6.796  -5.031  24.548  0.00  0.00    +0.023 A 
ATOM     15  C   UNL     1       6.799  -5.482  25.865  0.00  0.00    +0.041 A 
ATOM     16 CL   UNL     1       5.430  -6.313  26.493  0.00  0.00    -0.084 Cl
ATOM     17  C   UNL     1       7.904  -5.257  26.682  0.00  0.00    +0.023 A 
ATOM     18  C   UNL     1       9.021  -4.586  26.174  0.00  0.00    +0.047 A 
ENDBRANCH  11  12
ENDBRANCH  10  11
ENDBRANCH   3  10
TORSDOF 5
ENDMDL
MODEL 3
REMARK VINA RESULT:      -5.4      1.703      2.803
REMARK  Name = 
REMARK  7 active torsions:
REMARK  status: ('A' for Active; 'I' for Inactive)
REMARK    1  A    between atoms: C_1  and  C_2
REMARK    2  A    between atoms: C_2  and  C_3
REMARK    3  A    between atoms: C_2  and  N_4
REMARK    4  A    between atoms: N_4  and  N_5
REMARK    5  A    between atoms: C_6  and  C_8
REMARK    6  A    between atoms: C_8  and  O_9
REMARK    7  A    between atoms: O_9  and  C_10
REMARK                            x       y       z     vdW  Elec       q    Type
REMARK                         _______ _______ _______ _____ _____    ______ ____
ROOT
ATOM      1  N   UNL     1       7.767  -3.753  24.107  0.00  0.00    -0.248 N 
ATOM      2  H   UNL     1       8.488  -3.201  24.575  0.00  0.00    +0.169 HD
ATOM      3  C   UNL     1       7.621  -3.589  22.737  0.00  0.00    +0.264 C 
ATOM      4  O   UNL     1       6.986  -4.367  22.024  0.00  0.00    -0.271 OA
ENDROOT
BRANCH   1   5
ATOM      5  N   UNL     1       7.303  -4.936  24.725  0.00  0.00    -0.238 NA
ATOM      6  H   UNL     1       6.291  -4.815  24.880  0.00  0.00    +0.145 HD
BRANCH   5   8
ATOM      7  C   UNL     1       8.772  -3.911  26.378  0.00  0.00    +0.025 C 
ATOM      8  C   UNL     1       7.950  -5.154  26.031  0.00  0.00    +0.067 C 
ATOM      9  C   UNL     1       6.914  -5.411  27.128  0.00  0.00    +0.025 C 
ENDBRANCH   5   8
ENDBRANCH   1   5
BRANCH   3  10
ATOM     10  C   UNL     1       8.219  -2.287  22.212  0.00  0.00    +0.325 C 
BRANCH  10  11
ATOM     11  O   UNL     1       9.515  -2.050  22.762  0.00  0.00    -0.483 OA
BRANCH  11  12
ATOM     12  C   UNL     1       9.820  -0.741  23.015  0.00  0.00    +0.121 A 
ATOM     13  C   UNL     1       9.708   0.125  21.921  0.00  0.00    +0.047 A 
ATOM     14  C   UNL     1      10.012   1.483  22.057  0.00  0.00    +0.023 A 
ATOM     15  C   UNL     1      10.446   1.973  23.286  0.00  0.00    +0.041 A 
ATOM     16 CL   UNL     1      10.828   3.641  23.461  0.00  0.00    -0.084 Cl
ATOM     17  C   UNL     1      10.579   1.117  24.376  0.00  0.00    +0.023 A 
ATOM     18  C   UNL     1      10.266  -0.240  24.240  0.00  0.00    +0.047 A 
ENDBRANCH  11  12
ENDBRANCH  10  11
ENDBRANCH   3  10
TORSDOF 5
ENDMDL
MODEL 4
REMARK VINA RESULT:      -5.3      1.774      2.227
REMARK  Name = 
REMARK  7 active torsions:
REMARK  status: ('A' for Active; 'I' for Inactive)
REMARK    1  A    between atoms: C_1  and  C_2
REMARK    2  A    between atoms: C_2  and  C_3
REMARK    3  A    between atoms: C_2  and  N_4
REMARK    4  A    between atoms: N_4  and  N_5
REMARK    5  A    between atoms: C_6  and  C_8
REMARK    6  A    between atoms: C_8  and  O_9
REMARK    7  A    between atoms: O_9  and  C_10
REMARK                            x       y       z     vdW  Elec       q    Type
REMARK                         _______ _______ _______ _____ _____    ______ ____
ROOT
ATOM      1  N   UNL     1       7.826  -3.427  24.807  0.00  0.00    -0.248 N 
ATOM      2  H   UNL     1       8.401  -3.493  25.648  0.00  0.00    +0.169 HD
ATOM      3  C   UNL     1       8.471  -3.158  23.608  0.00  0.00    +0.264 C 
ATOM      4  O   UNL     1       7.945  -3.310  22.506  0.00  0.00    -0.271 OA
ENDROOT
BRANCH   1   5
ATOM      5  N   UNL     1       6.556  -4.046  24.797  0.00  0.00    -0.238 NA
ATOM      6  H   UNL     1       5.908  -3.404  25.277  0.00  0.00    +0.145 HD
BRANCH   5   8
ATOM      7  C   UNL     1       7.702  -5.281  26.558  0.00  0.00    +0.025 C 
ATOM      8  C   UNL     1       6.571  -5.324  25.529  0.00  0.00    +0.067 C 
ATOM      9  C   UNL     1       5.236  -5.575  26.237  0.00  0.00    +0.025 C 
ENDBRANCH   5   8
ENDBRANCH   1   5
BRANCH   3  10
ATOM     10  C   UNL     1       9.855  -2.539  23.786  0.00  0.00    +0.325 C 
BRANCH  10  11
ATOM     11  O   UNL     1      10.234  -1.772  22.644  0.00  0.00    -0.483 OA
BRANCH  11  12
ATOM     12  C   UNL     1      10.183  -0.414  22.800  0.00  0.00    +0.121 A 
ATOM     13  C   UNL     1      10.509   0.058  24.077  0.00  0.00    +0.047 A 
ATOM     14  C   UNL     1      10.474   1.426  24.358  0.00  0.00    +0.023 A 
ATOM     15  C   UNL     1      10.095   2.325  23.364  0.00  0.00    +0.041 A 
ATOM     16 CL   UNL     1      10.044   4.011  23.704  0.00  0.00    -0.084 Cl
ATOM     17  C   UNL     1       9.751   1.866  22.096  0.00  0.00    +0.023 A 
ATOM     18  C   UNL     1       9.795   0.496  21.815  0.00  0.00    +0.047 A 
ENDBRANCH  11  12
ENDBRANCH  10  11
ENDBRANCH   3  10
TORSDOF 5
ENDMDL
MODEL 5
REMARK VINA RESULT:      -5.3      1.584      2.181
REMARK  Name = 
REMARK  7 active torsions:
REMARK  status: ('A' for Active; 'I' for Inactive)
REMARK    1  A    between atoms: C_1  and  C_2
REMARK    2  A    between atoms: C_2  and  C_3
REMARK    3  A    between atoms: C_2  and  N_4
REMARK    4  A    between atoms: N_4  and  N_5
REMARK    5  A    between atoms: C_6  and  C_8
REMARK    6  A    between atoms: C_8  and  O_9
REMARK    7  A    between atoms: O_9  and  C_10
REMARK                            x       y       z     vdW  Elec       q    Type
REMARK                         _______ _______ _______ _____ _____    ______ ____
ROOT
ATOM      1  N   UNL     1       8.152  -2.721  23.138  0.00  0.00    -0.248 N 
ATOM      2  H   UNL     1       7.697  -1.927  22.685  0.00  0.00    +0.169 HD
ATOM      3  C   UNL     1       9.506  -2.608  23.421  0.00  0.00    +0.264 C 
ATOM      4  O   UNL     1      10.105  -3.366  24.184  0.00  0.00    -0.271 OA
ENDROOT
BRANCH   1   5
ATOM      5  N   UNL     1       7.361  -3.645  23.855  0.00  0.00    -0.238 NA
ATOM      6  H   UNL     1       8.001  -4.362  24.226  0.00  0.00    +0.145 HD
BRANCH   5   8
ATOM      7  C   UNL     1       5.626  -3.234  22.193  0.00  0.00    +0.025 C 
ATOM      8  C   UNL     1       6.377  -4.308  22.982  0.00  0.00    +0.067 C 
ATOM      9  C   UNL     1       7.058  -5.279  22.013  0.00  0.00    +0.025 C 
ENDBRANCH   5   8
ENDBRANCH   1   5
BRANCH   3  10
ATOM     10  C   UNL     1      10.212  -1.530  22.602  0.00  0.00    +0.325 C 
BRANCH  10  11
ATOM     11  O   UNL     1      10.567  -0.410  23.412  0.00  0.00    -0.483 OA
BRANCH  11  12
ATOM     12  C   UNL     1       9.821   0.720  23.218  0.00  0.00    +0.121 A 
ATOM     13  C   UNL     1       9.152   0.797  21.991  0.00  0.00    +0.047 A 
ATOM     14  C   UNL     1       8.374   1.915  21.676  0.00  0.00    +0.023 A 
ATOM     15  C   UNL     1       8.279   2.967  22.583  0.00  0.00    +0.041 A 
ATOM     16 CL   UNL     1       7.329   4.348  22.200  0.00  0.00    -0.084 Cl
ATOM     17  C   UNL     1       8.955   2.909  23.798  0.00  0.00    +0.023 A 
ATOM     18  C   UNL     1       9.726   1.786  24.115  0.00  0.00    +0.047 A 
ENDBRANCH  11  12
ENDBRANCH  10  11
ENDBRANCH   3  10
TORSDOF 5
ENDMDL
MODEL 6
REMARK VINA RESULT:      -5.3      1.300      1.988
REMARK  Name = 
REMARK  7 active torsions:
REMARK  status: ('A' for Active; 'I' for Inactive)
REMARK    1  A    between atoms: C_1  and  C_2
REMARK    2  A    between atoms: C_2  and  C_3
REMARK    3  A    between atoms: C_2  and  N_4
REMARK    4  A    between atoms: N_4  and  N_5
REMARK    5  A    between atoms: C_6  and  C_8
REMARK    6  A    between atoms: C_8  and  O_9
REMARK    7  A    between atoms: O_9  and  C_10
REMARK                            x       y       z     vdW  Elec       q    Type
REMARK                         _______ _______ _______ _____ _____    ______ ____
ROOT
ATOM      1  N   UNL     1       7.014  -3.720  23.851  0.00  0.00    -0.248 N 
ATOM      2  H   UNL     1       6.339  -2.996  23.597  0.00  0.00    +0.169 HD
ATOM      3  C   UNL     1       8.356  -3.457  23.616  0.00  0.00    +0.264 C 
ATOM      4  O   UNL     1       9.273  -4.116  24.105  0.00  0.00    -0.271 OA
ENDROOT
BRANCH   1   5
ATOM      5  N   UNL     1       6.647  -4.690  24.810  0.00  0.00    -0.238 NA
ATOM      6  H   UNL     1       7.421  -5.369  24.858  0.00  0.00    +0.145 HD
BRANCH   5   8
ATOM      7  C   UNL     1       5.675  -6.088  23.066  0.00  0.00    +0.025 C 
ATOM      8  C   UNL     1       5.424  -5.408  24.413  0.00  0.00    +0.067 C 
ATOM      9  C   UNL     1       5.032  -6.457  25.457  0.00  0.00    +0.025 C 
ENDBRANCH   5   8
ENDBRANCH   1   5
BRANCH   3  10
ATOM     10  C   UNL     1       8.589  -2.347  22.594  0.00  0.00    +0.325 C 
BRANCH  10  11
ATOM     11  O   UNL     1       9.933  -1.868  22.642  0.00  0.00    -0.483 OA
BRANCH  11  12
ATOM     12  C   UNL     1      10.077  -0.540  22.938  0.00  0.00    +0.121 A 
ATOM     13  C   UNL     1       9.820   0.343  21.882  0.00  0.00    +0.047 A 
ATOM     14  C   UNL     1       9.953   1.723  22.063  0.00  0.00    +0.023 A 
ATOM     15  C   UNL     1      10.361   2.220  23.297  0.00  0.00    +0.041 A 
ATOM     16 CL   UNL     1      10.533   3.917  23.526  0.00  0.00    -0.084 Cl
ATOM     17  C   UNL     1      10.638   1.351  24.349  0.00  0.00    +0.023 A 
ATOM     18  C   UNL     1      10.496  -0.029  24.168  0.00  0.00    +0.047 A 
ENDBRANCH  11  12
ENDBRANCH  10  11
ENDBRANCH   3  10
TORSDOF 5
ENDMDL
MODEL 7
REMARK VINA RESULT:      -5.2      4.148      6.925
REMARK  Name = 
REMARK  7 active torsions:
REMARK  status: ('A' for Active; 'I' for Inactive)
REMARK    1  A    between atoms: C_1  and  C_2
REMARK    2  A    between atoms: C_2  and  C_3
REMARK    3  A    between atoms: C_2  and  N_4
REMARK    4  A    between atoms: N_4  and  N_5
REMARK    5  A    between atoms: C_6  and  C_8
REMARK    6  A    between atoms: C_8  and  O_9
REMARK    7  A    between atoms: O_9  and  C_10
REMARK                            x       y       z     vdW  Elec       q    Type
REMARK                         _______ _______ _______ _____ _____    ______ ____
ROOT
ATOM      1  N   UNL     1       9.982   2.838  22.426  0.00  0.00    -0.248 N 
ATOM      2  H   UNL     1       9.689   3.009  21.462  0.00  0.00    +0.169 HD
ATOM      3  C   UNL     1      10.186   1.521  22.811  0.00  0.00    +0.264 C 
ATOM      4  O   UNL     1      10.781   1.199  23.839  0.00  0.00    -0.271 OA
ENDROOT
BRANCH   1   5
ATOM      5  N   UNL     1      10.600   3.884  23.147  0.00  0.00    -0.238 NA
ATOM      6  H   UNL     1      11.231   3.442  23.832  0.00  0.00    +0.145 HD
BRANCH   5   8
ATOM      7  C   UNL     1      10.029   6.164  23.789  0.00  0.00    +0.025 C 
ATOM      8  C   UNL     1       9.613   4.694  23.880  0.00  0.00    +0.067 C 
ATOM      9  C   UNL     1       8.207   4.518  23.299  0.00  0.00    +0.025 C 
ENDBRANCH   5   8
ENDBRANCH   1   5
BRANCH   3  10
ATOM     10  C   UNL     1       9.496   0.506  21.902  0.00  0.00    +0.325 C 
BRANCH  10  11
ATOM     11  O   UNL     1      10.132  -0.770  21.969  0.00  0.00    -0.483 OA
BRANCH  11  12
ATOM     12  C   UNL     1       9.418  -1.755  22.595  0.00  0.00    +0.121 A 
ATOM     13  C   UNL     1      10.048  -2.349  23.694  0.00  0.00    +0.047 A 
ATOM     14  C   UNL     1       9.420  -3.379  24.400  0.00  0.00    +0.023 A 
ATOM     15  C   UNL     1       8.166  -3.828  23.995  0.00  0.00    +0.041 A 
ATOM     16 CL   UNL     1       7.389  -5.099  24.855  0.00  0.00    -0.084 Cl
ATOM     17  C   UNL     1       7.538  -3.257  22.892  0.00  0.00    +0.023 A 
ATOM     18  C   UNL     1       8.165  -2.220  22.192  0.00  0.00    +0.047 A 
ENDBRANCH  11  12
ENDBRANCH  10  11
ENDBRANCH   3  10
TORSDOF 5
ENDMDL
MODEL 8
REMARK VINA RESULT:      -5.2      3.910      6.206
REMARK  Name = 
REMARK  7 active torsions:
REMARK  status: ('A' for Active; 'I' for Inactive)
REMARK    1  A    between atoms: C_1  and  C_2
REMARK    2  A    between atoms: C_2  and  C_3
REMARK    3  A    between atoms: C_2  and  N_4
REMARK    4  A    between atoms: N_4  and  N_5
REMARK    5  A    between atoms: C_6  and  C_8
REMARK    6  A    between atoms: C_8  and  O_9
REMARK    7  A    between atoms: O_9  and  C_10
REMARK                            x       y       z     vdW  Elec       q    Type
REMARK                         _______ _______ _______ _____ _____    ______ ____
ROOT
ATOM      1  N   UNL     1       8.773   1.505  21.356  0.00  0.00    -0.248 N 
ATOM      2  H   UNL     1       8.394   1.286  20.434  0.00  0.00    +0.169 HD
ATOM      3  C   UNL     1       9.630   0.580  21.935  0.00  0.00    +0.264 C 
ATOM      4  O   UNL     1      10.348   0.833  22.902  0.00  0.00    -0.271 OA
ENDROOT
BRANCH   1   5
ATOM      5  N   UNL     1       8.808   2.853  21.778  0.00  0.00    -0.238 NA
ATOM      6  H   UNL     1       9.677   2.974  22.318  0.00  0.00    +0.145 HD
BRANCH   5   8
ATOM      7  C   UNL     1       7.331   4.660  22.481  0.00  0.00    +0.025 C 
ATOM      8  C   UNL     1       7.668   3.177  22.652  0.00  0.00    +0.067 C 
ATOM      9  C   UNL     1       6.442   2.326  22.308  0.00  0.00    +0.025 C 
ENDBRANCH   5   8
ENDBRANCH   1   5
BRANCH   3  10
ATOM     10  C   UNL     1       9.511  -0.819  21.335  0.00  0.00    +0.325 C 
BRANCH  10  11
ATOM     11  O   UNL     1      10.087  -1.804  22.193  0.00  0.00    -0.483 OA
BRANCH  11  12
ATOM     12  C   UNL     1       9.200  -2.542  22.927  0.00  0.00    +0.121 A 
ATOM     13  C   UNL     1       9.675  -3.002  24.160  0.00  0.00    +0.047 A 
ATOM     14  C   UNL     1       8.861  -3.781  24.988  0.00  0.00    +0.023 A 
ATOM     15  C   UNL     1       7.575  -4.116  24.573  0.00  0.00    +0.041 A 
ATOM     16 CL   UNL     1       6.570  -5.080  25.583  0.00  0.00    -0.084 Cl
ATOM     17  C   UNL     1       7.099  -3.680  23.340  0.00  0.00    +0.023 A 
ATOM     18  C   UNL     1       7.912  -2.893  22.517  0.00  0.00    +0.047 A 
ENDBRANCH  11  12
ENDBRANCH  10  11
ENDBRANCH   3  10
TORSDOF 5
ENDMDL
MODEL 9
REMARK VINA RESULT:      -5.1      3.533      6.620
REMARK  Name = 
REMARK  7 active torsions:
REMARK  status: ('A' for Active; 'I' for Inactive)
REMARK    1  A    between atoms: C_1  and  C_2
REMARK    2  A    between atoms: C_2  and  C_3
REMARK    3  A    between atoms: C_2  and  N_4
REMARK    4  A    between atoms: N_4  and  N_5
REMARK    5  A    between atoms: C_6  and  C_8
REMARK    6  A    between atoms: C_8  and  O_9
REMARK    7  A    between atoms: O_9  and  C_10
REMARK                            x       y       z     vdW  Elec       q    Type
REMARK                         _______ _______ _______ _____ _____    ______ ____
ROOT
ATOM      1  N   UNL     1       8.709  -1.643  24.229  0.00  0.00    -0.248 N 
ATOM      2  H   UNL     1       7.835  -1.857  24.712  0.00  0.00    +0.169 HD
ATOM      3  C   UNL     1       9.570  -2.699  23.963  0.00  0.00    +0.264 C 
ATOM      4  O   UNL     1      10.511  -2.624  23.173  0.00  0.00    -0.271 OA
ENDROOT
BRANCH   1   5
ATOM      5  N   UNL     1       8.795  -0.458  23.466  0.00  0.00    -0.238 NA
ATOM      6  H   UNL     1       9.569  -0.589  22.798  0.00  0.00    +0.145 HD
BRANCH   5   8
ATOM      7  C   UNL     1       8.321   0.581  25.619  0.00  0.00    +0.025 C 
ATOM      8  C   UNL     1       9.103   0.709  24.310  0.00  0.00    +0.067 C 
ATOM      9  C   UNL     1      10.602   0.798  24.611  0.00  0.00    +0.025 C 
ENDBRANCH   5   8
ENDBRANCH   1   5
BRANCH   3  10
ATOM     10  C   UNL     1       9.316  -3.927  24.834  0.00  0.00    +0.325 C 
BRANCH  10  11
ATOM     11  O   UNL     1       8.955  -5.059  24.045  0.00  0.00    -0.483 OA
BRANCH  11  12
ATOM     12  C   UNL     1       7.612  -5.266  23.887  0.00  0.00    +0.121 A 
ATOM     13  C   UNL     1       7.205  -5.615  22.593  0.00  0.00    +0.047 A 
ATOM     14  C   UNL     1       5.854  -5.833  22.310  0.00  0.00    +0.023 A 
ATOM     15  C   UNL     1       4.905  -5.685  23.318  0.00  0.00    +0.041 A 
ATOM     16 CL   UNL     1       3.239  -5.946  22.976  0.00  0.00    -0.084 Cl
ATOM     17  C   UNL     1       5.296  -5.320  24.603  0.00  0.00    +0.023 A 
ATOM     18  C   UNL     1       6.650  -5.111  24.887  0.00  0.00    +0.047 A 
ENDBRANCH  11  12
ENDBRANCH  10  11
ENDBRANCH   3  10
TORSDOF 5
ENDMDL
