MODEL 1
REMARK VINA RESULT:      -7.2      0.000      0.000
REMARK  Name = 
REMARK  9 active torsions:
REMARK  status: ('A' for Active; 'I' for Inactive)
REMARK    1  A    between atoms: C_5  and  C_6
REMARK    2  A    between atoms: C_7  and  C_8
REMARK    3  A    between atoms: CA_9  and  C_28
REMARK    4  A    between atoms: CA_13  and  N_15
REMARK    5  A    between atoms: C_16  and  CA_18
REMARK    6  A    between atoms: CA_18  and  N_20
REMARK    7  A    between atoms: CA_18  and  C_21
REMARK    8  A    between atoms: C_24  and  O_25
REMARK    9  A    between atoms: C_28  and  O_29
REMARK                            x       y       z     vdW  Elec       q    Type
REMARK                         _______ _______ _______ _____ _____    ______ ____
ROOT
ATOM      1  C   UNL     1       9.198  -3.370  24.574  0.00  0.00    +0.169 C 
ATOM      2  CA  UNL     1       9.796  -2.073  23.939  0.00  0.00    +0.191 C 
ATOM      3  C   UNL     1       8.904  -2.468  22.712  0.00  0.00    +0.244 C 
ATOM      4  O   UNL     1       8.652  -2.068  21.600  0.00  0.00    -0.273 OA
ATOM      5  N   UNL     1       8.286  -3.421  23.446  0.00  0.00    -0.249 N 
ATOM      6  CA  UNL     1       7.203  -4.255  23.353  0.00  0.00    +0.126 C 
ATOM      7  C   UNL     1       6.716  -4.851  24.483  0.00  0.00    -0.009 C 
ATOM      8  C   UNL     1       7.295  -4.634  25.877  0.00  0.00    +0.108 C 
ATOM      9  S   UNL     1       8.247  -3.118  26.089  0.00  0.00    -0.131 S 
ENDROOT
BRANCH   2  10
ATOM     10  N   UNL     1       9.409  -0.812  24.610  0.00  0.00    -0.300 N 
ATOM     11  H   UNL     1       8.736  -0.819  25.380  0.00  0.00    +0.150 HD
ATOM     12  C   UNL     1       9.799   0.441  24.207  0.00  0.00    +0.235 C 
ATOM     13  O   UNL     1      10.583   0.638  23.286  0.00  0.00    -0.274 OA
BRANCH  12  14
ATOM     14  CA  UNL     1       9.142   1.572  25.042  0.00  0.00    +0.168 C 
BRANCH  14  15
ATOM     15  C   UNL     1       8.618   2.687  24.156  0.00  0.00    -0.022 A 
ATOM     16  C   UNL     1       9.010   4.026  24.321  0.00  0.00    +0.009 A 
ATOM     17  C   UNL     1       8.540   5.020  23.459  0.00  0.00    +0.046 A 
ATOM     18  C   UNL     1       7.665   4.685  22.435  0.00  0.00    +0.117 A 
ATOM     19  C   UNL     1       7.226   3.375  22.275  0.00  0.00    +0.046 A 
ATOM     20  C   UNL     1       7.700   2.381  23.137  0.00  0.00    +0.009 A 
BRANCH  18  21
ATOM     21  O   UNL     1       7.258   5.678  21.595  0.00  0.00    -0.507 OA
ATOM     22  H   UNL     1       7.298   5.348  20.684  0.00  0.00    +0.292 HD
ENDBRANCH  18  21
ENDBRANCH  14  15
BRANCH  14  23
ATOM     23  N   UNL     1       8.070   0.997  25.902  0.00  0.00    -0.316 NA
ATOM     24  H1  UNL     1       8.340   1.133  26.877  0.00  0.00    +0.119 HD
ATOM     25  H2  UNL     1       7.234   1.569  25.768  0.00  0.00    +0.119 HD
ENDBRANCH  14  23
ENDBRANCH  12  14
ENDBRANCH   2  10
BRANCH   7  26
ATOM     26  C   UNL     1       5.503  -5.688  24.518  0.00  0.00    +0.002 C 
ATOM     27  C   UNL     1       5.085  -6.415  25.570  0.00  0.00    -0.030 C 
ATOM     28  C   UNL     1       3.815  -7.204  25.586  0.00  0.00    +0.035 C 
ENDBRANCH   7  26
BRANCH   6  29
ATOM     29  C   UNL     1       6.569  -4.529  22.002  0.00  0.00    +0.352 C 
ATOM     30  OXT UNL     1       6.791  -5.540  21.351  0.00  0.00    -0.244 OA
BRANCH  29  31
ATOM     31  O   UNL     1       5.737  -3.595  21.506  0.00  0.00    -0.476 OA
ATOM     32  H   UNL     1       6.116  -2.741  21.204  0.00  0.00    +0.295 HD
ENDBRANCH  29  31
ENDBRANCH   6  29
TORSDOF 8
ENDMDL
MODEL 2
REMARK VINA RESULT:      -7.1      1.131      1.635
REMARK  Name = 
REMARK  9 active torsions:
REMARK  status: ('A' for Active; 'I' for Inactive)
REMARK    1  A    between atoms: C_5  and  C_6
REMARK    2  A    between atoms: C_7  and  C_8
REMARK    3  A    between atoms: CA_9  and  C_28
REMARK    4  A    between atoms: CA_13  and  N_15
REMARK    5  A    between atoms: C_16  and  CA_18
REMARK    6  A    between atoms: CA_18  and  N_20
REMARK    7  A    between atoms: CA_18  and  C_21
REMARK    8  A    between atoms: C_24  and  O_25
REMARK    9  A    between atoms: C_28  and  O_29
REMARK                            x       y       z     vdW  Elec       q    Type
REMARK                         _______ _______ _______ _____ _____    ______ ____
ROOT
ATOM      1  C   UNL     1       8.769  -4.200  24.695  0.00  0.00    +0.169 C 
ATOM      2  CA  UNL     1       9.267  -2.986  23.843  0.00  0.00    +0.191 C 
ATOM      3  C   UNL     1       8.047  -3.348  22.928  0.00  0.00    +0.244 C 
ATOM      4  O   UNL     1       7.532  -2.971  21.903  0.00  0.00    -0.273 OA
ATOM      5  N   UNL     1       7.583  -4.213  23.860  0.00  0.00    -0.249 N 
ATOM      6  CA  UNL     1       6.456  -4.949  24.112  0.00  0.00    +0.126 C 
ATOM      7  C   UNL     1       6.252  -5.455  25.366  0.00  0.00    -0.009 C 
ATOM      8  C   UNL     1       7.205  -5.237  26.537  0.00  0.00    +0.108 C 
ATOM      9  S   UNL     1       8.290  -3.805  26.391  0.00  0.00    -0.131 S 
ENDROOT
BRANCH   2  10
ATOM     10  N   UNL     1       9.174  -1.671  24.515  0.00  0.00    -0.300 N 
ATOM     11  H   UNL     1       8.544  -1.536  25.309  0.00  0.00    +0.150 HD
ATOM     12  C   UNL     1       9.799  -0.526  24.085  0.00  0.00    +0.235 C 
ATOM     13  O   UNL     1      10.572  -0.499  23.134  0.00  0.00    -0.274 OA
BRANCH  12  14
ATOM     14  CA  UNL     1       9.422   0.718  24.930  0.00  0.00    +0.168 C 
BRANCH  14  15
ATOM     15  C   UNL     1       8.780   1.797  24.078  0.00  0.00    -0.022 A 
ATOM     16  C   UNL     1       7.738   1.522  23.176  0.00  0.00    +0.009 A 
ATOM     17  C   UNL     1       7.141   2.548  22.438  0.00  0.00    +0.046 A 
ATOM     18  C   UNL     1       7.591   3.853  22.588  0.00  0.00    +0.117 A 
ATOM     19  C   UNL     1       8.650   4.147  23.441  0.00  0.00    +0.046 A 
ATOM     20  C   UNL     1       9.244   3.120  24.180  0.00  0.00    +0.009 A 
BRANCH  18  21
ATOM     21  O   UNL     1       6.960   4.829  21.877  0.00  0.00    -0.507 OA
ATOM     22  H   UNL     1       6.308   5.260  22.453  0.00  0.00    +0.292 HD
ENDBRANCH  18  21
ENDBRANCH  14  15
BRANCH  14  23
ATOM     23  N   UNL     1       8.540   0.304  26.058  0.00  0.00    -0.316 NA
ATOM     24  H1  UNL     1       8.656   0.982  26.813  0.00  0.00    +0.119 HD
ATOM     25  H2  UNL     1       7.575   0.411  25.743  0.00  0.00    +0.119 HD
ENDBRANCH  14  23
ENDBRANCH  12  14
ENDBRANCH   2  10
BRANCH   7  26
ATOM     26  C   UNL     1       5.035  -6.179  25.778  0.00  0.00    +0.002 C 
ATOM     27  C   UNL     1       4.366  -5.989  26.929  0.00  0.00    -0.030 C 
ATOM     28  C   UNL     1       3.099  -6.702  27.282  0.00  0.00    +0.035 C 
ENDBRANCH   7  26
BRANCH   6  29
ATOM     29  C   UNL     1       5.458  -5.218  23.002  0.00  0.00    +0.352 C 
ATOM     30  OXT UNL     1       4.563  -4.439  22.702  0.00  0.00    -0.244 OA
BRANCH  29  31
ATOM     31  O   UNL     1       5.567  -6.382  22.337  0.00  0.00    -0.476 OA
ATOM     32  H   UNL     1       4.997  -6.530  21.550  0.00  0.00    +0.295 HD
ENDBRANCH  29  31
ENDBRANCH   6  29
TORSDOF 8
ENDMDL
MODEL 3
REMARK VINA RESULT:      -7.0      2.362      8.124
REMARK  Name = 
REMARK  9 active torsions:
REMARK  status: ('A' for Active; 'I' for Inactive)
REMARK    1  A    between atoms: C_5  and  C_6
REMARK    2  A    between atoms: C_7  and  C_8
REMARK    3  A    between atoms: CA_9  and  C_28
REMARK    4  A    between atoms: CA_13  and  N_15
REMARK    5  A    between atoms: C_16  and  CA_18
REMARK    6  A    between atoms: CA_18  and  N_20
REMARK    7  A    between atoms: CA_18  and  C_21
REMARK    8  A    between atoms: C_24  and  O_25
REMARK    9  A    between atoms: C_28  and  O_29
REMARK                            x       y       z     vdW  Elec       q    Type
REMARK                         _______ _______ _______ _____ _____    ______ ____
ROOT
ATOM      1  C   UNL     1       7.120  -0.664  23.111  0.00  0.00    +0.169 C 
ATOM      2  CA  UNL     1       7.827  -2.055  23.219  0.00  0.00    +0.191 C 
ATOM      3  C   UNL     1       9.133  -1.215  23.003  0.00  0.00    +0.244 C 
ATOM      4  O   UNL     1      10.324  -1.389  22.905  0.00  0.00    -0.273 OA
ATOM      5  N   UNL     1       8.440  -0.064  23.162  0.00  0.00    -0.249 N 
ATOM      6  CA  UNL     1       8.685   1.274  23.320  0.00  0.00    +0.126 C 
ATOM      7  C   UNL     1       7.692   2.088  23.791  0.00  0.00    -0.009 C 
ATOM      8  C   UNL     1       6.301   1.595  24.178  0.00  0.00    +0.108 C 
ATOM      9  S   UNL     1       6.187  -0.160  24.573  0.00  0.00    -0.131 S 
ENDROOT
BRANCH   2  10
ATOM     10  N   UNL     1       7.720  -2.710  24.542  0.00  0.00    -0.300 N 
ATOM     11  H   UNL     1       7.201  -2.264  25.302  0.00  0.00    +0.150 HD
ATOM     12  C   UNL     1       8.375  -3.862  24.900  0.00  0.00    +0.235 C 
ATOM     13  O   UNL     1       9.060  -4.516  24.122  0.00  0.00    -0.274 OA
BRANCH  12  14
ATOM     14  CA  UNL     1       8.152  -4.243  26.387  0.00  0.00    +0.168 C 
BRANCH  14  15
ATOM     15  C   UNL     1       6.937  -5.135  26.559  0.00  0.00    -0.022 A 
ATOM     16  C   UNL     1       6.523  -5.609  27.816  0.00  0.00    +0.009 A 
ATOM     17  C   UNL     1       5.375  -6.395  27.941  0.00  0.00    +0.046 A 
ATOM     18  C   UNL     1       4.640  -6.723  26.810  0.00  0.00    +0.117 A 
ATOM     19  C   UNL     1       5.051  -6.305  25.548  0.00  0.00    +0.046 A 
ATOM     20  C   UNL     1       6.200  -5.517  25.425  0.00  0.00    +0.009 A 
BRANCH  18  21
ATOM     21  O   UNL     1       3.508  -7.462  26.979  0.00  0.00    -0.507 OA
ATOM     22  H   UNL     1       3.008  -7.095  27.726  0.00  0.00    +0.292 HD
ENDBRANCH  18  21
ENDBRANCH  14  15
BRANCH  14  23
ATOM     23  N   UNL     1       9.387  -4.876  26.929  0.00  0.00    -0.316 NA
ATOM     24  H1  UNL     1       9.386  -5.858  26.650  0.00  0.00    +0.119 HD
ATOM     25  H2  UNL     1      10.181  -4.456  26.444  0.00  0.00    +0.119 HD
ENDBRANCH  14  23
ENDBRANCH  12  14
ENDBRANCH   2  10
BRANCH   7  26
ATOM     26  C   UNL     1       7.868   3.521  24.090  0.00  0.00    +0.002 C 
ATOM     27  C   UNL     1       8.214   4.032  25.285  0.00  0.00    -0.030 C 
ATOM     28  C   UNL     1       8.443   5.490  25.531  0.00  0.00    +0.035 C 
ENDBRANCH   7  26
BRANCH   6  29
ATOM     29  C   UNL     1      10.041   1.848  22.954  0.00  0.00    +0.352 C 
ATOM     30  OXT UNL     1      10.943   2.004  23.765  0.00  0.00    -0.244 OA
BRANCH  29  31
ATOM     31  O   UNL     1      10.236   2.211  21.674  0.00  0.00    -0.476 OA
ATOM     32  H   UNL     1      11.072   1.946  21.231  0.00  0.00    +0.295 HD
ENDBRANCH  29  31
ENDBRANCH   6  29
TORSDOF 8
ENDMDL
MODEL 4
REMARK VINA RESULT:      -6.9      1.955      2.396
REMARK  Name = 
REMARK  9 active torsions:
REMARK  status: ('A' for Active; 'I' for Inactive)
REMARK    1  A    between atoms: C_5  and  C_6
REMARK    2  A    between atoms: C_7  and  C_8
REMARK    3  A    between atoms: CA_9  and  C_28
REMARK    4  A    between atoms: CA_13  and  N_15
REMARK    5  A    between atoms: C_16  and  CA_18
REMARK    6  A    between atoms: CA_18  and  N_20
REMARK    7  A    between atoms: CA_18  and  C_21
REMARK    8  A    between atoms: C_24  and  O_25
REMARK    9  A    between atoms: C_28  and  O_29
REMARK                            x       y       z     vdW  Elec       q    Type
REMARK                         _______ _______ _______ _____ _____    ______ ____
ROOT
ATOM      1  C   UNL     1       8.584  -1.697  26.026  0.00  0.00    +0.169 C 
ATOM      2  CA  UNL     1       9.453  -0.843  25.046  0.00  0.00    +0.191 C 
ATOM      3  C   UNL     1       9.774  -2.232  24.394  0.00  0.00    +0.244 C 
ATOM      4  O   UNL     1      10.433  -2.685  23.489  0.00  0.00    -0.273 OA
ATOM      5  N   UNL     1       8.816  -2.825  25.144  0.00  0.00    -0.249 N 
ATOM      6  CA  UNL     1       8.166  -4.028  25.224  0.00  0.00    +0.126 C 
ATOM      7  C   UNL     1       7.000  -4.115  25.934  0.00  0.00    -0.009 C 
ATOM      8  C   UNL     1       6.347  -2.934  26.645  0.00  0.00    +0.108 C 
ATOM      9  S   UNL     1       6.820  -1.306  26.031  0.00  0.00    -0.131 S 
ENDROOT
BRANCH   2  10
ATOM     10  N   UNL     1       8.691   0.088  24.184  0.00  0.00    -0.300 N 
ATOM     11  H   UNL     1       7.679   0.188  24.294  0.00  0.00    +0.150 HD
ATOM     12  C   UNL     1       9.219   0.784  23.125  0.00  0.00    +0.235 C 
ATOM     13  O   UNL     1      10.410   0.764  22.833  0.00  0.00    -0.274 OA
BRANCH  12  14
ATOM     14  CA  UNL     1       8.150   1.593  22.344  0.00  0.00    +0.168 C 
BRANCH  14  15
ATOM     15  C   UNL     1       8.148   3.054  22.753  0.00  0.00    -0.022 A 
ATOM     16  C   UNL     1       8.986   3.554  23.764  0.00  0.00    +0.009 A 
ATOM     17  C   UNL     1       8.988   4.913  24.085  0.00  0.00    +0.046 A 
ATOM     18  C   UNL     1       8.142   5.781  23.405  0.00  0.00    +0.117 A 
ATOM     19  C   UNL     1       7.271   5.306  22.431  0.00  0.00    +0.046 A 
ATOM     20  C   UNL     1       7.273   3.946  22.110  0.00  0.00    +0.009 A 
BRANCH  18  21
ATOM     21  O   UNL     1       8.200   7.104  23.724  0.00  0.00    -0.507 OA
ATOM     22  H   UNL     1       7.744   7.240  24.569  0.00  0.00    +0.292 HD
ENDBRANCH  18  21
ENDBRANCH  14  15
BRANCH  14  23
ATOM     23  N   UNL     1       8.372   1.426  20.880  0.00  0.00    -0.316 NA
ATOM     24  H1  UNL     1       7.981   0.524  20.603  0.00  0.00    +0.119 HD
ATOM     25  H2  UNL     1       7.801   2.128  20.406  0.00  0.00    +0.119 HD
ENDBRANCH  14  23
ENDBRANCH  12  14
ENDBRANCH   2  10
BRANCH   7  26
ATOM     26  C   UNL     1       6.167  -5.329  26.010  0.00  0.00    +0.002 C 
ATOM     27  C   UNL     1       5.172  -5.648  25.164  0.00  0.00    -0.030 C 
ATOM     28  C   UNL     1       4.390  -6.920  25.241  0.00  0.00    +0.035 C 
ENDBRANCH   7  26
BRANCH   6  29
ATOM     29  C   UNL     1       8.750  -5.255  24.550  0.00  0.00    +0.352 C 
ATOM     30  OXT UNL     1       8.383  -5.655  23.453  0.00  0.00    -0.244 OA
BRANCH  29  31
ATOM     31  O   UNL     1       9.705  -5.932  25.212  0.00  0.00    -0.476 OA
ATOM     32  H   UNL     1      10.166  -6.667  24.751  0.00  0.00    +0.295 HD
ENDBRANCH  29  31
ENDBRANCH   6  29
TORSDOF 8
ENDMDL
MODEL 5
REMARK VINA RESULT:      -6.8      2.349      3.900
REMARK  Name = 
REMARK  9 active torsions:
REMARK  status: ('A' for Active; 'I' for Inactive)
REMARK    1  A    between atoms: C_5  and  C_6
REMARK    2  A    between atoms: C_7  and  C_8
REMARK    3  A    between atoms: CA_9  and  C_28
REMARK    4  A    between atoms: CA_13  and  N_15
REMARK    5  A    between atoms: C_16  and  CA_18
REMARK    6  A    between atoms: CA_18  and  N_20
REMARK    7  A    between atoms: CA_18  and  C_21
REMARK    8  A    between atoms: C_24  and  O_25
REMARK    9  A    between atoms: C_28  and  O_29
REMARK                            x       y       z     vdW  Elec       q    Type
REMARK                         _______ _______ _______ _____ _____    ______ ____
ROOT
ATOM      1  C   UNL     1       6.482  -5.921  24.510  0.00  0.00    +0.169 C 
ATOM      2  CA  UNL     1       7.148  -4.829  23.610  0.00  0.00    +0.191 C 
ATOM      3  C   UNL     1       5.784  -4.879  22.838  0.00  0.00    +0.244 C 
ATOM      4  O   UNL     1       5.260  -4.367  21.878  0.00  0.00    -0.273 OA
ATOM      5  N   UNL     1       5.241  -5.642  23.814  0.00  0.00    -0.249 N 
ATOM      6  CA  UNL     1       4.010  -6.110  24.191  0.00  0.00    +0.126 C 
ATOM      7  C   UNL     1       3.834  -6.590  25.460  0.00  0.00    -0.009 C 
ATOM      8  C   UNL     1       4.935  -6.626  26.515  0.00  0.00    +0.108 C 
ATOM      9  S   UNL     1       6.295  -5.474  26.250  0.00  0.00    -0.131 S 
ENDROOT
BRANCH   2  10
ATOM     10  N   UNL     1       7.433  -3.546  24.290  0.00  0.00    -0.300 N 
ATOM     11  H   UNL     1       6.670  -2.920  24.559  0.00  0.00    +0.150 HD
ATOM     12  C   UNL     1       8.689  -3.035  24.505  0.00  0.00    +0.235 C 
ATOM     13  O   UNL     1       9.718  -3.639  24.223  0.00  0.00    -0.274 OA
BRANCH  12  14
ATOM     14  CA  UNL     1       8.662  -1.621  25.140  0.00  0.00    +0.168 C 
BRANCH  14  15
ATOM     15  C   UNL     1       9.161  -0.565  24.172  0.00  0.00    -0.022 A 
ATOM     16  C   UNL     1       8.757  -0.527  22.826  0.00  0.00    +0.009 A 
ATOM     17  C   UNL     1       9.204   0.486  21.974  0.00  0.00    +0.046 A 
ATOM     18  C   UNL     1      10.068   1.459  22.457  0.00  0.00    +0.117 A 
ATOM     19  C   UNL     1      10.518   1.421  23.772  0.00  0.00    +0.046 A 
ATOM     20  C   UNL     1      10.068   0.409  24.624  0.00  0.00    +0.009 A 
BRANCH  18  21
ATOM     21  O   UNL     1      10.452   2.449  21.602  0.00  0.00    -0.507 OA
ATOM     22  H   UNL     1      11.341   2.747  21.853  0.00  0.00    +0.292 HD
ENDBRANCH  18  21
ENDBRANCH  14  15
BRANCH  14  23
ATOM     23  N   UNL     1       7.286  -1.321  25.628  0.00  0.00    -0.316 NA
ATOM     24  H1  UNL     1       7.351  -1.051  26.610  0.00  0.00    +0.119 HD
ATOM     25  H2  UNL     1       6.966  -0.484  25.137  0.00  0.00    +0.119 HD
ENDBRANCH  14  23
ENDBRANCH  12  14
ENDBRANCH   2  10
BRANCH   7  26
ATOM     26  C   UNL     1       2.537  -7.030  26.005  0.00  0.00    +0.002 C 
ATOM     27  C   UNL     1       1.998  -6.618  27.166  0.00  0.00    -0.030 C 
ATOM     28  C   UNL     1       0.650  -7.043  27.655  0.00  0.00    +0.035 C 
ENDBRANCH   7  26
BRANCH   6  29
ATOM     29  C   UNL     1       2.861  -6.115  23.200  0.00  0.00    +0.352 C 
ATOM     30  OXT UNL     1       2.166  -5.132  22.976  0.00  0.00    -0.244 OA
BRANCH  29  31
ATOM     31  O   UNL     1       2.598  -7.267  22.560  0.00  0.00    -0.476 OA
ATOM     32  H   UNL     1       3.289  -7.966  22.545  0.00  0.00    +0.295 HD
ENDBRANCH  29  31
ENDBRANCH   6  29
TORSDOF 8
ENDMDL
MODEL 6
REMARK VINA RESULT:      -6.7      2.388      8.152
REMARK  Name = 
REMARK  9 active torsions:
REMARK  status: ('A' for Active; 'I' for Inactive)
REMARK    1  A    between atoms: C_5  and  C_6
REMARK    2  A    between atoms: C_7  and  C_8
REMARK    3  A    between atoms: CA_9  and  C_28
REMARK    4  A    between atoms: CA_13  and  N_15
REMARK    5  A    between atoms: C_16  and  CA_18
REMARK    6  A    between atoms: CA_18  and  N_20
REMARK    7  A    between atoms: CA_18  and  C_21
REMARK    8  A    between atoms: C_24  and  O_25
REMARK    9  A    between atoms: C_28  and  O_29
REMARK                            x       y       z     vdW  Elec       q    Type
REMARK                         _______ _______ _______ _____ _____    ______ ____
ROOT
ATOM      1  C   UNL     1       8.569   1.944  21.837  0.00  0.00    +0.169 C 
ATOM      2  CA  UNL     1       9.709   0.970  22.282  0.00  0.00    +0.191 C 
ATOM      3  C   UNL     1      10.235   2.221  23.068  0.00  0.00    +0.244 C 
ATOM      4  O   UNL     1      11.160   2.527  23.782  0.00  0.00    -0.273 OA
ATOM      5  N   UNL     1       9.087   2.887  22.809  0.00  0.00    -0.249 N 
ATOM      6  CA  UNL     1       8.454   4.039  23.197  0.00  0.00    +0.126 C 
ATOM      7  C   UNL     1       7.119   4.190  22.940  0.00  0.00    -0.009 C 
ATOM      8  C   UNL     1       6.261   3.133  22.250  0.00  0.00    +0.108 C 
ATOM      9  S   UNL     1       6.902   1.450  22.325  0.00  0.00    -0.131 S 
ENDROOT
BRANCH   2  10
ATOM     10  N   UNL     1       9.271  -0.160  23.131  0.00  0.00    -0.300 N 
ATOM     11  H   UNL     1       8.953   0.003  24.089  0.00  0.00    +0.150 HD
ATOM     12  C   UNL     1       9.360  -1.484  22.779  0.00  0.00    +0.235 C 
ATOM     13  O   UNL     1       9.741  -1.863  21.677  0.00  0.00    -0.274 OA
BRANCH  12  14
ATOM     14  CA  UNL     1       8.925  -2.440  23.920  0.00  0.00    +0.168 C 
BRANCH  14  15
ATOM     15  C   UNL     1       7.638  -3.167  23.580  0.00  0.00    -0.022 A 
ATOM     16  C   UNL     1       6.538  -2.516  22.997  0.00  0.00    +0.009 A 
ATOM     17  C   UNL     1       5.384  -3.226  22.657  0.00  0.00    +0.046 A 
ATOM     18  C   UNL     1       5.317  -4.589  22.911  0.00  0.00    +0.117 A 
ATOM     19  C   UNL     1       6.373  -5.251  23.527  0.00  0.00    +0.046 A 
ATOM     20  C   UNL     1       7.528  -4.539  23.863  0.00  0.00    +0.009 A 
BRANCH  18  21
ATOM     21  O   UNL     1       4.187  -5.251  22.532  0.00  0.00    -0.507 OA
ATOM     22  H   UNL     1       3.545  -4.604  22.201  0.00  0.00    +0.292 HD
ENDBRANCH  18  21
ENDBRANCH  14  15
BRANCH  14  23
ATOM     23  N   UNL     1      10.034  -3.388  24.224  0.00  0.00    -0.316 NA
ATOM     24  H1  UNL     1      10.233  -3.330  25.224  0.00  0.00    +0.119 HD
ATOM     25  H2  UNL     1       9.676  -4.332  24.072  0.00  0.00    +0.119 HD
ENDBRANCH  14  23
ENDBRANCH  12  14
ENDBRANCH   2  10
BRANCH   7  26
ATOM     26  C   UNL     1       6.314   5.339  23.392  0.00  0.00    +0.002 C 
ATOM     27  C   UNL     1       5.609   5.397  24.536  0.00  0.00    -0.030 C 
ATOM     28  C   UNL     1       4.854   6.607  24.988  0.00  0.00    +0.035 C 
ENDBRANCH   7  26
BRANCH   6  29
ATOM     29  C   UNL     1       9.235   5.143  23.885  0.00  0.00    +0.352 C 
ATOM     30  OXT UNL     1       9.277   5.276  25.100  0.00  0.00    -0.244 OA
BRANCH  29  31
ATOM     31  O   UNL     1       9.893   6.017  23.103  0.00  0.00    -0.476 OA
ATOM     32  H   UNL     1      10.774   6.339  23.395  0.00  0.00    +0.295 HD
ENDBRANCH  29  31
ENDBRANCH   6  29
TORSDOF 8
ENDMDL
MODEL 7
REMARK VINA RESULT:      -6.7      2.220      8.298
REMARK  Name = 
REMARK  9 active torsions:
REMARK  status: ('A' for Active; 'I' for Inactive)
REMARK    1  A    between atoms: C_5  and  C_6
REMARK    2  A    between atoms: C_7  and  C_8
REMARK    3  A    between atoms: CA_9  and  C_28
REMARK    4  A    between atoms: CA_13  and  N_15
REMARK    5  A    between atoms: C_16  and  CA_18
REMARK    6  A    between atoms: CA_18  and  N_20
REMARK    7  A    between atoms: CA_18  and  C_21
REMARK    8  A    between atoms: C_24  and  O_25
REMARK    9  A    between atoms: C_28  and  O_29
REMARK                            x       y       z     vdW  Elec       q    Type
REMARK                         _______ _______ _______ _____ _____    ______ ____
ROOT
ATOM      1  C   UNL     1       7.423  -0.656  23.164  0.00  0.00    +0.169 C 
ATOM      2  CA  UNL     1       7.932  -2.133  23.107  0.00  0.00    +0.191 C 
ATOM      3  C   UNL     1       9.321  -1.486  23.439  0.00  0.00    +0.244 C 
ATOM      4  O   UNL     1      10.468  -1.824  23.606  0.00  0.00    -0.273 OA
ATOM      5  N   UNL     1       8.726  -0.298  23.691  0.00  0.00    -0.249 N 
ATOM      6  CA  UNL     1       9.045   0.922  24.226  0.00  0.00    +0.126 C 
ATOM      7  C   UNL     1       8.043   1.769  24.612  0.00  0.00    -0.009 C 
ATOM      8  C   UNL     1       6.559   1.435  24.504  0.00  0.00    +0.108 C 
ATOM      9  S   UNL     1       6.168  -0.322  24.419  0.00  0.00    -0.131 S 
ENDROOT
BRANCH   2  10
ATOM     10  N   UNL     1       7.392  -3.022  24.159  0.00  0.00    -0.300 N 
ATOM     11  H   UNL     1       6.593  -2.729  24.727  0.00  0.00    +0.150 HD
ATOM     12  C   UNL     1       7.954  -4.215  24.542  0.00  0.00    +0.235 C 
ATOM     13  O   UNL     1       8.929  -4.708  23.986  0.00  0.00    -0.274 OA
BRANCH  12  14
ATOM     14  CA  UNL     1       7.224  -4.865  25.746  0.00  0.00    +0.168 C 
BRANCH  14  15
ATOM     15  C   UNL     1       6.033  -5.690  25.297  0.00  0.00    -0.022 A 
ATOM     16  C   UNL     1       5.644  -5.779  23.949  0.00  0.00    +0.009 A 
ATOM     17  C   UNL     1       4.568  -6.583  23.566  0.00  0.00    +0.046 A 
ATOM     18  C   UNL     1       3.864  -7.293  24.530  0.00  0.00    +0.117 A 
ATOM     19  C   UNL     1       4.199  -7.190  25.875  0.00  0.00    +0.046 A 
ATOM     20  C   UNL     1       5.278  -6.387  26.256  0.00  0.00    +0.009 A 
BRANCH  18  21
ATOM     21  O   UNL     1       2.844  -8.093  24.111  0.00  0.00    -0.507 OA
ATOM     22  H   UNL     1       2.774  -8.026  23.145  0.00  0.00    +0.292 HD
ENDBRANCH  18  21
ENDBRANCH  14  15
BRANCH  14  23
ATOM     23  N   UNL     1       8.193  -5.674  26.537  0.00  0.00    -0.316 NA
ATOM     24  H1  UNL     1       8.180  -5.330  27.499  0.00  0.00    +0.119 HD
ATOM     25  H2  UNL     1       7.826  -6.626  26.584  0.00  0.00    +0.119 HD
ENDBRANCH  14  23
ENDBRANCH  12  14
ENDBRANCH   2  10
BRANCH   7  26
ATOM     26  C   UNL     1       8.266   3.062  25.285  0.00  0.00    +0.002 C 
ATOM     27  C   UNL     1       8.267   4.265  24.684  0.00  0.00    -0.030 C 
ATOM     28  C   UNL     1       8.437   5.560  25.413  0.00  0.00    +0.035 C 
ENDBRANCH   7  26
BRANCH   6  29
ATOM     29  C   UNL     1      10.499   1.335  24.365  0.00  0.00    +0.352 C 
ATOM     30  OXT UNL     1      11.015   2.208  23.680  0.00  0.00    -0.244 OA
BRANCH  29  31
ATOM     31  O   UNL     1      11.244   0.688  25.278  0.00  0.00    -0.476 OA
ATOM     32  H   UNL     1      11.328   1.076  26.177  0.00  0.00    +0.295 HD
ENDBRANCH  29  31
ENDBRANCH   6  29
TORSDOF 8
ENDMDL
MODEL 8
REMARK VINA RESULT:      -6.5      2.600      8.656
REMARK  Name = 
REMARK  9 active torsions:
REMARK  status: ('A' for Active; 'I' for Inactive)
REMARK    1  A    between atoms: C_5  and  C_6
REMARK    2  A    between atoms: C_7  and  C_8
REMARK    3  A    between atoms: CA_9  and  C_28
REMARK    4  A    between atoms: CA_13  and  N_15
REMARK    5  A    between atoms: C_16  and  CA_18
REMARK    6  A    between atoms: CA_18  and  N_20
REMARK    7  A    between atoms: CA_18  and  C_21
REMARK    8  A    between atoms: C_24  and  O_25
REMARK    9  A    between atoms: C_28  and  O_29
REMARK                            x       y       z     vdW  Elec       q    Type
REMARK                         _______ _______ _______ _____ _____    ______ ____
ROOT
ATOM      1  C   UNL     1       8.525   0.738  25.350  0.00  0.00    +0.169 C 
ATOM      2  CA  UNL     1       7.109   0.081  25.265  0.00  0.00    +0.191 C 
ATOM      3  C   UNL     1       6.740   1.384  24.475  0.00  0.00    +0.244 C 
ATOM      4  O   UNL     1       5.780   1.887  23.943  0.00  0.00    -0.273 OA
ATOM      5  N   UNL     1       8.045   1.734  24.411  0.00  0.00    -0.249 N 
ATOM      6  CA  UNL     1       8.835   2.655  23.774  0.00  0.00    +0.126 C 
ATOM      7  C   UNL     1      10.188   2.459  23.726  0.00  0.00    -0.009 C 
ATOM      8  C   UNL     1      10.894   1.250  24.330  0.00  0.00    +0.108 C 
ATOM      9  S   UNL     1       9.859  -0.204  24.578  0.00  0.00    -0.131 S 
ENDROOT
BRANCH   2  10
ATOM     10  N   UNL     1       7.045  -1.167  24.473  0.00  0.00    -0.300 N 
ATOM     11  H   UNL     1       7.834  -1.452  23.888  0.00  0.00    +0.150 HD
ATOM     12  C   UNL     1       5.932  -1.962  24.352  0.00  0.00    +0.235 C 
ATOM     13  O   UNL     1       4.890  -1.757  24.963  0.00  0.00    -0.274 OA
BRANCH  12  14
ATOM     14  CA  UNL     1       6.139  -3.141  23.365  0.00  0.00    +0.168 C 
BRANCH  14  15
ATOM     15  C   UNL     1       5.551  -4.430  23.905  0.00  0.00    -0.022 A 
ATOM     16  C   UNL     1       6.006  -5.025  25.094  0.00  0.00    +0.009 A 
ATOM     17  C   UNL     1       5.412  -6.191  25.584  0.00  0.00    +0.046 A 
ATOM     18  C   UNL     1       4.368  -6.777  24.881  0.00  0.00    +0.117 A 
ATOM     19  C   UNL     1       3.926  -6.235  23.679  0.00  0.00    +0.046 A 
ATOM     20  C   UNL     1       4.521  -5.067  23.192  0.00  0.00    +0.009 A 
BRANCH  18  21
ATOM     21  O   UNL     1       3.792  -7.893  25.411  0.00  0.00    -0.507 OA
ATOM     22  H   UNL     1       4.407  -8.637  25.308  0.00  0.00    +0.292 HD
ENDBRANCH  18  21
ENDBRANCH  14  15
BRANCH  14  23
ATOM     23  N   UNL     1       5.567  -2.783  22.036  0.00  0.00    -0.316 NA
ATOM     24  H1  UNL     1       6.245  -2.194  21.549  0.00  0.00    +0.119 HD
ATOM     25  H2  UNL     1       5.511  -3.643  21.489  0.00  0.00    +0.119 HD
ENDBRANCH  14  23
ENDBRANCH  12  14
ENDBRANCH   2  10
BRANCH   7  26
ATOM     26  C   UNL     1      11.124   3.329  22.990  0.00  0.00    +0.002 C 
ATOM     27  C   UNL     1      11.829   4.344  23.521  0.00  0.00    -0.030 C 
ATOM     28  C   UNL     1      12.815   5.164  22.752  0.00  0.00    +0.035 C 
ENDBRANCH   7  26
BRANCH   6  29
ATOM     29  C   UNL     1       8.213   3.890  23.150  0.00  0.00    +0.352 C 
ATOM     30  OXT UNL     1       8.210   4.986  23.693  0.00  0.00    -0.244 OA
BRANCH  29  31
ATOM     31  O   UNL     1       7.625   3.749  21.948  0.00  0.00    -0.476 OA
ATOM     32  H   UNL     1       8.091   3.231  21.255  0.00  0.00    +0.295 HD
ENDBRANCH  29  31
ENDBRANCH   6  29
TORSDOF 8
ENDMDL
MODEL 9
REMARK VINA RESULT:      -6.5      2.186      8.043
REMARK  Name = 
REMARK  9 active torsions:
REMARK  status: ('A' for Active; 'I' for Inactive)
REMARK    1  A    between atoms: C_5  and  C_6
REMARK    2  A    between atoms: C_7  and  C_8
REMARK    3  A    between atoms: CA_9  and  C_28
REMARK    4  A    between atoms: CA_13  and  N_15
REMARK    5  A    between atoms: C_16  and  CA_18
REMARK    6  A    between atoms: CA_18  and  N_20
REMARK    7  A    between atoms: CA_18  and  C_21
REMARK    8  A    between atoms: C_24  and  O_25
REMARK    9  A    between atoms: C_28  and  O_29
REMARK                            x       y       z     vdW  Elec       q    Type
REMARK                         _______ _______ _______ _____ _____    ______ ____
ROOT
ATOM      1  C   UNL     1       9.137  -0.120  22.442  0.00  0.00    +0.169 C 
ATOM      2  CA  UNL     1       9.901  -1.051  23.440  0.00  0.00    +0.191 C 
ATOM      3  C   UNL     1      10.484   0.298  23.984  0.00  0.00    +0.244 C 
ATOM      4  O   UNL     1      11.257   0.683  24.829  0.00  0.00    -0.273 OA
ATOM      5  N   UNL     1       9.602   1.001  23.237  0.00  0.00    -0.249 N 
ATOM      6  CA  UNL     1       9.159   2.291  23.106  0.00  0.00    +0.126 C 
ATOM      7  C   UNL     1       7.989   2.534  22.442  0.00  0.00    -0.009 C 
ATOM      8  C   UNL     1       7.110   1.443  21.839  0.00  0.00    +0.108 C 
ATOM      9  S   UNL     1       7.335  -0.203  22.539  0.00  0.00    -0.131 S 
ENDROOT
BRANCH   2  10
ATOM     10  N   UNL     1       9.041  -1.788  24.392  0.00  0.00    -0.300 N 
ATOM     11  H   UNL     1       8.307  -1.301  24.913  0.00  0.00    +0.150 HD
ATOM     12  C   UNL     1       9.212  -3.102  24.747  0.00  0.00    +0.235 C 
ATOM     13  O   UNL     1      10.059  -3.831  24.242  0.00  0.00    -0.274 OA
BRANCH  12  14
ATOM     14  CA  UNL     1       8.223  -3.561  25.850  0.00  0.00    +0.168 C 
BRANCH  14  15
ATOM     15  C   UNL     1       7.176  -4.512  25.300  0.00  0.00    -0.022 A 
ATOM     16  C   UNL     1       6.345  -5.280  26.134  0.00  0.00    +0.009 A 
ATOM     17  C   UNL     1       5.363  -6.113  25.593  0.00  0.00    +0.046 A 
ATOM     18  C   UNL     1       5.214  -6.195  24.215  0.00  0.00    +0.117 A 
ATOM     19  C   UNL     1       6.052  -5.481  23.365  0.00  0.00    +0.046 A 
ATOM     20  C   UNL     1       7.033  -4.645  23.909  0.00  0.00    +0.009 A 
BRANCH  18  21
ATOM     21  O   UNL     1       4.222  -6.992  23.729  0.00  0.00    -0.507 OA
ATOM     22  H   UNL     1       4.361  -7.115  22.777  0.00  0.00    +0.292 HD
ENDBRANCH  18  21
ENDBRANCH  14  15
BRANCH  14  23
ATOM     23  N   UNL     1       8.984  -4.167  26.980  0.00  0.00    -0.316 NA
ATOM     24  H1  UNL     1       9.979  -4.031  26.799  0.00  0.00    +0.119 HD
ATOM     25  H2  UNL     1       8.780  -3.613  27.813  0.00  0.00    +0.119 HD
ENDBRANCH  14  23
ENDBRANCH  12  14
ENDBRANCH   2  10
BRANCH   7  26
ATOM     26  C   UNL     1       7.368   3.866  22.321  0.00  0.00    +0.002 C 
ATOM     27  C   UNL     1       6.306   4.300  23.022  0.00  0.00    -0.030 C 
ATOM     28  C   UNL     1       5.744   5.682  22.913  0.00  0.00    +0.035 C 
ENDBRANCH   7  26
BRANCH   6  29
ATOM     29  C   UNL     1       9.976   3.437  23.673  0.00  0.00    +0.352 C 
ATOM     30  OXT UNL     1       9.613   4.108  24.630  0.00  0.00    -0.244 OA
BRANCH  29  31
ATOM     31  O   UNL     1      11.143   3.725  23.071  0.00  0.00    -0.476 OA
ATOM     32  H   UNL     1      11.349   4.664  22.867  0.00  0.00    +0.295 HD
ENDBRANCH  29  31
ENDBRANCH   6  29
TORSDOF 8
ENDMDL
