MODEL 1
REMARK VINA RESULT:      -7.1      0.000      0.000
REMARK  Name = 
REMARK  7 active torsions:
REMARK  status: ('A' for Active; 'I' for Inactive)
REMARK    1  A    between atoms: C_1  and  C_2
REMARK    2  A    between atoms: C_2  and  C_3
REMARK    3  A    between atoms: C_2  and  C_4
REMARK    4  A    between atoms: C_4  and  C_5
REMARK    5  A    between atoms: C_7  and  C_11
REMARK    6  A    between atoms: C_20  and  C_21
REMARK    7  A    between atoms: C_21  and  O_22
REMARK                            x       y       z     vdW  Elec       q    Type
REMARK                         _______ _______ _______ _____ _____    ______ ____
ROOT
ATOM      1  C   UNL     1       7.989  -0.413  23.709  0.00  0.00    +0.169 A 
ATOM      2  C   UNL     1       9.284  -0.422  23.190  0.00  0.00    +0.093 A 
ATOM      3  C   UNL     1      10.006   0.778  23.190  0.00  0.00    +0.027 A 
ATOM      4  C   UNL     1       9.427   1.952  23.675  0.00  0.00    +0.001 A 
ATOM      5  C   UNL     1       8.123   1.879  24.199  0.00  0.00    +0.072 A 
ATOM      6  C   UNL     1       7.571   3.044  24.722  0.00  0.00    +0.028 A 
ATOM      7  C   UNL     1       8.263   4.261  24.708  0.00  0.00    +0.002 A 
ATOM      8  C   UNL     1       9.541   4.327  24.163  0.00  0.00    +0.001 A 
ATOM      9  C   UNL     1      10.126   3.172  23.654  0.00  0.00    +0.010 A 
ATOM     10  N   UNL     1       7.424   0.727  24.206  0.00  0.00    -0.238 NA
ENDROOT
BRANCH   1  16
ATOM     11  C   UNL     1       6.000  -3.474  24.399  0.00  0.00    +0.249 C 
ATOM     12  C   UNL     1       5.634  -3.090  22.973  0.00  0.00    +0.354 C 
ATOM     13  O   UNL     1       4.915  -3.683  22.185  0.00  0.00    -0.242 OA
ATOM     14  N   UNL     1       6.252  -1.909  22.736  0.00  0.00    -0.165 N 
ATOM     15  H   UNL     1       6.234  -1.521  21.806  0.00  0.00    +0.301 HD
ATOM     16  C   UNL     1       7.070  -1.606  23.769  0.00  0.00    +0.340 C 
ATOM     17  N   UNL     1       6.968  -2.393  24.803  0.00  0.00    -0.062 NA
ATOM     18  C   UNL     1       4.749  -3.341  25.271  0.00  0.00    +0.078 C 
BRANCH  11  20
ATOM     19  C   UNL     1       7.819  -5.087  23.511  0.00  0.00    +0.012 C 
ATOM     20  C   UNL     1       6.692  -4.856  24.527  0.00  0.00    +0.046 C 
ATOM     21  C   UNL     1       7.234  -5.137  25.935  0.00  0.00    +0.012 C 
ENDBRANCH  11  20
ENDBRANCH   1  16
BRANCH   2  22
ATOM     22  C   UNL     1       9.965  -1.646  22.739  0.00  0.00    +0.339 C 
ATOM     23  O   UNL     1      10.284  -2.548  23.490  0.00  0.00    -0.245 OA
BRANCH  22  24
ATOM     24  O   UNL     1      10.145  -1.724  21.404  0.00  0.00    -0.477 OA
ATOM     25  H   UNL     1      10.548  -0.958  20.951  0.00  0.00    +0.295 HD
ENDBRANCH  22  24
ENDBRANCH   2  22
TORSDOF 4
ENDMDL
MODEL 2
REMARK VINA RESULT:      -7.1      2.139      2.790
REMARK  Name = 
REMARK  7 active torsions:
REMARK  status: ('A' for Active; 'I' for Inactive)
REMARK    1  A    between atoms: C_1  and  C_2
REMARK    2  A    between atoms: C_2  and  C_3
REMARK    3  A    between atoms: C_2  and  C_4
REMARK    4  A    between atoms: C_4  and  C_5
REMARK    5  A    between atoms: C_7  and  C_11
REMARK    6  A    between atoms: C_20  and  C_21
REMARK    7  A    between atoms: C_21  and  O_22
REMARK                            x       y       z     vdW  Elec       q    Type
REMARK                         _______ _______ _______ _____ _____    ______ ____
ROOT
ATOM      1  C   UNL     1       7.823  -2.412  23.406  0.00  0.00    +0.169 A 
ATOM      2  C   UNL     1       8.994  -2.541  24.151  0.00  0.00    +0.093 A 
ATOM      3  C   UNL     1       9.881  -1.457  24.184  0.00  0.00    +0.027 A 
ATOM      4  C   UNL     1       9.602  -0.292  23.466  0.00  0.00    +0.001 A 
ATOM      5  C   UNL     1       8.391  -0.230  22.753  0.00  0.00    +0.072 A 
ATOM      6  C   UNL     1       8.099   0.951  22.078  0.00  0.00    +0.028 A 
ATOM      7  C   UNL     1       8.982   2.037  22.074  0.00  0.00    +0.002 A 
ATOM      8  C   UNL     1      10.189   1.954  22.761  0.00  0.00    +0.001 A 
ATOM      9  C   UNL     1      10.496   0.793  23.463  0.00  0.00    +0.010 A 
ATOM     10  N   UNL     1       7.531  -1.267  22.719  0.00  0.00    -0.238 NA
ENDROOT
BRANCH   1  16
ATOM     11  C   UNL     1       5.132  -4.965  23.623  0.00  0.00    +0.249 C 
ATOM     12  C   UNL     1       5.708  -5.129  22.223  0.00  0.00    +0.354 C 
ATOM     13  O   UNL     1       5.423  -5.960  21.375  0.00  0.00    -0.242 OA
ATOM     14  N   UNL     1       6.610  -4.131  22.073  0.00  0.00    -0.165 N 
ATOM     15  H   UNL     1       7.194  -4.114  21.252  0.00  0.00    +0.301 HD
ATOM     16  C   UNL     1       6.773  -3.481  23.249  0.00  0.00    +0.340 C 
ATOM     17  N   UNL     1       5.941  -3.829  24.190  0.00  0.00    -0.062 NA
ATOM     18  C   UNL     1       3.680  -4.497  23.495  0.00  0.00    +0.078 C 
BRANCH  11  20
ATOM     19  C   UNL     1       5.759  -5.893  25.956  0.00  0.00    +0.012 C 
ATOM     20  C   UNL     1       5.296  -6.214  24.528  0.00  0.00    +0.046 C 
ATOM     21  C   UNL     1       4.032  -7.081  24.603  0.00  0.00    +0.012 C 
ENDBRANCH  11  20
ENDBRANCH   1  16
BRANCH   2  22
ATOM     22  C   UNL     1       9.297  -3.716  24.984  0.00  0.00    +0.339 C 
ATOM     23  O   UNL     1      10.133  -4.548  24.685  0.00  0.00    -0.245 OA
BRANCH  22  24
ATOM     24  O   UNL     1       8.622  -3.761  26.151  0.00  0.00    -0.477 OA
ATOM     25  H   UNL     1       7.656  -3.618  26.127  0.00  0.00    +0.295 HD
ENDBRANCH  22  24
ENDBRANCH   2  22
TORSDOF 4
ENDMDL
MODEL 3
REMARK VINA RESULT:      -7.0      2.304      6.837
REMARK  Name = 
REMARK  7 active torsions:
REMARK  status: ('A' for Active; 'I' for Inactive)
REMARK    1  A    between atoms: C_1  and  C_2
REMARK    2  A    between atoms: C_2  and  C_3
REMARK    3  A    between atoms: C_2  and  C_4
REMARK    4  A    between atoms: C_4  and  C_5
REMARK    5  A    between atoms: C_7  and  C_11
REMARK    6  A    between atoms: C_20  and  C_21
REMARK    7  A    between atoms: C_21  and  O_22
REMARK                            x       y       z     vdW  Elec       q    Type
REMARK                         _______ _______ _______ _____ _____    ______ ____
ROOT
ATOM      1  C   UNL     1       7.228  -3.753  24.314  0.00  0.00    +0.169 A 
ATOM      2  C   UNL     1       7.557  -4.743  25.238  0.00  0.00    +0.093 A 
ATOM      3  C   UNL     1       6.591  -5.709  25.549  0.00  0.00    +0.027 A 
ATOM      4  C   UNL     1       5.325  -5.657  24.962  0.00  0.00    +0.001 A 
ATOM      5  C   UNL     1       5.073  -4.639  24.024  0.00  0.00    +0.072 A 
ATOM      6  C   UNL     1       3.825  -4.622  23.409  0.00  0.00    +0.028 A 
ATOM      7  C   UNL     1       2.834  -5.560  23.724  0.00  0.00    +0.002 A 
ATOM      8  C   UNL     1       3.086  -6.545  24.672  0.00  0.00    +0.001 A 
ATOM      9  C   UNL     1       4.333  -6.599  25.285  0.00  0.00    +0.010 A 
ATOM     10  N   UNL     1       5.999  -3.709  23.717  0.00  0.00    -0.238 NA
ENDROOT
BRANCH   1  16
ATOM     11  C   UNL     1       9.008  -0.618  23.417  0.00  0.00    +0.249 C 
ATOM     12  C   UNL     1       9.892  -1.732  22.875  0.00  0.00    +0.354 C 
ATOM     13  O   UNL     1      10.917  -1.639  22.218  0.00  0.00    -0.242 OA
ATOM     14  N   UNL     1       9.329  -2.890  23.293  0.00  0.00    -0.165 N 
ATOM     15  H   UNL     1       9.694  -3.766  22.953  0.00  0.00    +0.301 HD
ATOM     16  C   UNL     1       8.137  -2.633  23.880  0.00  0.00    +0.340 C 
ATOM     17  N   UNL     1       7.874  -1.369  24.062  0.00  0.00    -0.062 NA
ATOM     18  C   UNL     1       9.778   0.116  24.518  0.00  0.00    +0.078 C 
BRANCH  11  20
ATOM     19  C   UNL     1       7.103   0.982  22.704  0.00  0.00    +0.012 C 
ATOM     20  C   UNL     1       8.442   0.331  22.329  0.00  0.00    +0.046 C 
ATOM     21  C   UNL     1       9.425   1.433  21.911  0.00  0.00    +0.012 C 
ENDBRANCH  11  20
ENDBRANCH   1  16
BRANCH   2  22
ATOM     22  C   UNL     1       8.900  -4.885  25.826  0.00  0.00    +0.339 C 
ATOM     23  O   UNL     1       9.171  -4.540  26.961  0.00  0.00    -0.245 OA
BRANCH  22  24
ATOM     24  O   UNL     1       9.796  -5.500  25.027  0.00  0.00    -0.477 OA
ATOM     25  H   UNL     1       9.739  -6.470  24.936  0.00  0.00    +0.295 HD
ENDBRANCH  22  24
ENDBRANCH   2  22
TORSDOF 4
ENDMDL
MODEL 4
REMARK VINA RESULT:      -6.9      1.998      6.855
REMARK  Name = 
REMARK  7 active torsions:
REMARK  status: ('A' for Active; 'I' for Inactive)
REMARK    1  A    between atoms: C_1  and  C_2
REMARK    2  A    between atoms: C_2  and  C_3
REMARK    3  A    between atoms: C_2  and  C_4
REMARK    4  A    between atoms: C_4  and  C_5
REMARK    5  A    between atoms: C_7  and  C_11
REMARK    6  A    between atoms: C_20  and  C_21
REMARK    7  A    between atoms: C_21  and  O_22
REMARK                            x       y       z     vdW  Elec       q    Type
REMARK                         _______ _______ _______ _____ _____    ______ ____
ROOT
ATOM      1  C   UNL     1       7.144  -3.749  24.548  0.00  0.00    +0.169 A 
ATOM      2  C   UNL     1       6.357  -4.561  23.733  0.00  0.00    +0.093 A 
ATOM      3  C   UNL     1       5.565  -5.543  24.342  0.00  0.00    +0.027 A 
ATOM      4  C   UNL     1       5.590  -5.713  25.727  0.00  0.00    +0.001 A 
ATOM      5  C   UNL     1       6.396  -4.843  26.485  0.00  0.00    +0.072 A 
ATOM      6  C   UNL     1       6.380  -4.989  27.869  0.00  0.00    +0.028 A 
ATOM      7  C   UNL     1       5.617  -5.981  28.498  0.00  0.00    +0.002 A 
ATOM      8  C   UNL     1       4.846  -6.852  27.736  0.00  0.00    +0.001 A 
ATOM      9  C   UNL     1       4.826  -6.713  26.352  0.00  0.00    +0.010 A 
ATOM     10  N   UNL     1       7.157  -3.894  25.906  0.00  0.00    -0.238 NA
ENDROOT
BRANCH   1  16
ATOM     11  C   UNL     1       8.953  -0.680  23.492  0.00  0.00    +0.249 C 
ATOM     12  C   UNL     1       9.833  -1.828  23.019  0.00  0.00    +0.354 C 
ATOM     13  O   UNL     1      10.862  -1.779  22.366  0.00  0.00    -0.242 OA
ATOM     14  N   UNL     1       9.258  -2.957  23.496  0.00  0.00    -0.165 N 
ATOM     15  H   UNL     1       9.620  -3.853  23.208  0.00  0.00    +0.301 HD
ATOM     16  C   UNL     1       8.065  -2.661  24.059  0.00  0.00    +0.340 C 
ATOM     17  N   UNL     1       7.808  -1.387  24.169  0.00  0.00    -0.062 NA
ATOM     18  C   UNL     1       9.720   0.109  24.556  0.00  0.00    +0.078 C 
BRANCH  11  20
ATOM     19  C   UNL     1       7.087   0.927  22.694  0.00  0.00    +0.012 C 
ATOM     20  C   UNL     1       8.401   0.211  22.349  0.00  0.00    +0.046 C 
ATOM     21  C   UNL     1       9.411   1.251  21.845  0.00  0.00    +0.012 C 
ENDBRANCH  11  20
ENDBRANCH   1  16
BRANCH   2  22
ATOM     22  C   UNL     1       6.238  -4.372  22.277  0.00  0.00    +0.339 C 
ATOM     23  O   UNL     1       6.882  -5.011  21.467  0.00  0.00    -0.245 OA
BRANCH  22  24
ATOM     24  O   UNL     1       5.298  -3.478  21.907  0.00  0.00    -0.477 OA
ATOM     25  H   UNL     1       4.361  -3.726  22.020  0.00  0.00    +0.295 HD
ENDBRANCH  22  24
ENDBRANCH   2  22
TORSDOF 4
ENDMDL
MODEL 5
REMARK VINA RESULT:      -6.8      1.774      2.454
REMARK  Name = 
REMARK  7 active torsions:
REMARK  status: ('A' for Active; 'I' for Inactive)
REMARK    1  A    between atoms: C_1  and  C_2
REMARK    2  A    between atoms: C_2  and  C_3
REMARK    3  A    between atoms: C_2  and  C_4
REMARK    4  A    between atoms: C_4  and  C_5
REMARK    5  A    between atoms: C_7  and  C_11
REMARK    6  A    between atoms: C_20  and  C_21
REMARK    7  A    between atoms: C_21  and  O_22
REMARK                            x       y       z     vdW  Elec       q    Type
REMARK                         _______ _______ _______ _____ _____    ______ ____
ROOT
ATOM      1  C   UNL     1       8.407  -1.136  24.175  0.00  0.00    +0.169 A 
ATOM      2  C   UNL     1       9.128  -0.408  23.230  0.00  0.00    +0.093 A 
ATOM      3  C   UNL     1       9.193   0.984  23.375  0.00  0.00    +0.027 A 
ATOM      4  C   UNL     1       8.528   1.618  24.426  0.00  0.00    +0.001 A 
ATOM      5  C   UNL     1       7.836   0.814  25.350  0.00  0.00    +0.072 A 
ATOM      6  C   UNL     1       7.215   1.450  26.421  0.00  0.00    +0.028 A 
ATOM      7  C   UNL     1       7.244   2.842  26.571  0.00  0.00    +0.002 A 
ATOM      8  C   UNL     1       7.908   3.628  25.636  0.00  0.00    +0.001 A 
ATOM      9  C   UNL     1       8.557   3.016  24.568  0.00  0.00    +0.010 A 
ATOM     10  N   UNL     1       7.772  -0.526  25.220  0.00  0.00    -0.238 NA
ENDROOT
BRANCH   1  16
ATOM     11  C   UNL     1       7.352  -4.696  24.024  0.00  0.00    +0.249 C 
ATOM     12  C   UNL     1       8.790  -4.740  24.519  0.00  0.00    +0.354 C 
ATOM     13  O   UNL     1       9.444  -5.708  24.873  0.00  0.00    -0.242 OA
ATOM     14  N   UNL     1       9.241  -3.464  24.469  0.00  0.00    -0.165 N 
ATOM     15  H   UNL     1      10.144  -3.245  24.859  0.00  0.00    +0.301 HD
ATOM     16  C   UNL     1       8.220  -2.631  24.161  0.00  0.00    +0.340 C 
ATOM     17  N   UNL     1       7.107  -3.223  23.827  0.00  0.00    -0.062 NA
ATOM     18  C   UNL     1       7.293  -5.374  22.653  0.00  0.00    +0.078 C 
BRANCH  11  20
ATOM     19  C   UNL     1       6.538  -4.798  26.478  0.00  0.00    +0.012 C 
ATOM     20  C   UNL     1       6.315  -5.258  25.031  0.00  0.00    +0.046 C 
ATOM     21  C   UNL     1       4.862  -4.961  24.637  0.00  0.00    +0.012 C 
ENDBRANCH  11  20
ENDBRANCH   1  16
BRANCH   2  22
ATOM     22  C   UNL     1       9.907  -1.035  22.150  0.00  0.00    +0.339 C 
ATOM     23  O   UNL     1      10.822  -1.810  22.351  0.00  0.00    -0.245 OA
BRANCH  22  24
ATOM     24  O   UNL     1       9.477  -0.736  20.907  0.00  0.00    -0.477 OA
ATOM     25  H   UNL     1       8.543  -0.921  20.688  0.00  0.00    +0.295 HD
ENDBRANCH  22  24
ENDBRANCH   2  22
TORSDOF 4
ENDMDL
MODEL 6
REMARK VINA RESULT:      -6.6      2.774      4.009
REMARK  Name = 
REMARK  7 active torsions:
REMARK  status: ('A' for Active; 'I' for Inactive)
REMARK    1  A    between atoms: C_1  and  C_2
REMARK    2  A    between atoms: C_2  and  C_3
REMARK    3  A    between atoms: C_2  and  C_4
REMARK    4  A    between atoms: C_4  and  C_5
REMARK    5  A    between atoms: C_7  and  C_11
REMARK    6  A    between atoms: C_20  and  C_21
REMARK    7  A    between atoms: C_21  and  O_22
REMARK                            x       y       z     vdW  Elec       q    Type
REMARK                         _______ _______ _______ _____ _____    ______ ____
ROOT
ATOM      1  C   UNL     1       7.660  -3.477  24.286  0.00  0.00    +0.169 A 
ATOM      2  C   UNL     1       9.021  -3.690  24.500  0.00  0.00    +0.093 A 
ATOM      3  C   UNL     1       9.924  -2.721  24.040  0.00  0.00    +0.027 A 
ATOM      4  C   UNL     1       9.464  -1.589  23.365  0.00  0.00    +0.001 A 
ATOM      5  C   UNL     1       8.075  -1.435  23.204  0.00  0.00    +0.072 A 
ATOM      6  C   UNL     1       7.622  -0.282  22.571  0.00  0.00    +0.028 A 
ATOM      7  C   UNL     1       8.507   0.686  22.079  0.00  0.00    +0.002 A 
ATOM      8  C   UNL     1       9.879   0.510  22.221  0.00  0.00    +0.001 A 
ATOM      9  C   UNL     1      10.358  -0.624  22.870  0.00  0.00    +0.010 A 
ATOM     10  N   UNL     1       7.200  -2.360  23.647  0.00  0.00    -0.238 NA
ENDROOT
BRANCH   1  16
ATOM     11  C   UNL     1       4.590  -5.472  24.916  0.00  0.00    +0.249 C 
ATOM     12  C   UNL     1       5.595  -5.977  25.940  0.00  0.00    +0.354 C 
ATOM     13  O   UNL     1       5.428  -6.794  26.832  0.00  0.00    -0.242 OA
ATOM     14  N   UNL     1       6.762  -5.353  25.656  0.00  0.00    -0.165 N 
ATOM     15  H   UNL     1       7.544  -5.460  26.283  0.00  0.00    +0.301 HD
ATOM     16  C   UNL     1       6.559  -4.419  24.698  0.00  0.00    +0.340 C 
ATOM     17  N   UNL     1       5.373  -4.434  24.157  0.00  0.00    -0.062 NA
ATOM     18  C   UNL     1       4.263  -6.617  23.955  0.00  0.00    +0.078 C 
BRANCH  11  20
ATOM     19  C   UNL     1       3.366  -3.277  25.536  0.00  0.00    +0.012 C 
ATOM     20  C   UNL     1       3.329  -4.812  25.534  0.00  0.00    +0.046 C 
ATOM     21  C   UNL     1       2.019  -5.272  24.881  0.00  0.00    +0.012 C 
ENDBRANCH  11  20
ENDBRANCH   1  16
BRANCH   2  22
ATOM     22  C   UNL     1       9.550  -4.827  25.271  0.00  0.00    +0.339 C 
ATOM     23  O   UNL     1       9.702  -4.801  26.477  0.00  0.00    -0.245 OA
BRANCH  22  24
ATOM     24  O   UNL     1       9.788  -5.934  24.538  0.00  0.00    -0.477 OA
ATOM     25  H   UNL     1      10.530  -6.510  24.806  0.00  0.00    +0.295 HD
ENDBRANCH  22  24
ENDBRANCH   2  22
TORSDOF 4
ENDMDL
MODEL 7
REMARK VINA RESULT:      -6.6      2.321      6.628
REMARK  Name = 
REMARK  7 active torsions:
REMARK  status: ('A' for Active; 'I' for Inactive)
REMARK    1  A    between atoms: C_1  and  C_2
REMARK    2  A    between atoms: C_2  and  C_3
REMARK    3  A    between atoms: C_2  and  C_4
REMARK    4  A    between atoms: C_4  and  C_5
REMARK    5  A    between atoms: C_7  and  C_11
REMARK    6  A    between atoms: C_20  and  C_21
REMARK    7  A    between atoms: C_21  and  O_22
REMARK                            x       y       z     vdW  Elec       q    Type
REMARK                         _______ _______ _______ _____ _____    ______ ____
ROOT
ATOM      1  C   UNL     1       6.569  -3.417  24.216  0.00  0.00    +0.169 A 
ATOM      2  C   UNL     1       6.195  -4.507  23.431  0.00  0.00    +0.093 A 
ATOM      3  C   UNL     1       5.637  -5.623  24.068  0.00  0.00    +0.027 A 
ATOM      4  C   UNL     1       5.487  -5.644  25.455  0.00  0.00    +0.001 A 
ATOM      5  C   UNL     1       5.869  -4.499  26.179  0.00  0.00    +0.072 A 
ATOM      6  C   UNL     1       5.674  -4.510  27.556  0.00  0.00    +0.028 A 
ATOM      7  C   UNL     1       5.143  -5.625  28.218  0.00  0.00    +0.002 A 
ATOM      8  C   UNL     1       4.793  -6.760  27.495  0.00  0.00    +0.001 A 
ATOM      9  C   UNL     1       4.958  -6.768  26.114  0.00  0.00    +0.010 A 
ATOM     10  N   UNL     1       6.404  -3.421  25.573  0.00  0.00    -0.238 NA
ENDROOT
BRANCH   1  16
ATOM     11  C   UNL     1       8.644  -0.515  23.180  0.00  0.00    +0.249 C 
ATOM     12  C   UNL     1       7.213  -0.095  22.875  0.00  0.00    +0.354 C 
ATOM     13  O   UNL     1       6.806   0.979  22.461  0.00  0.00    -0.242 OA
ATOM     14  N   UNL     1       6.444  -1.180  23.130  0.00  0.00    -0.165 N 
ATOM     15  H   UNL     1       5.441  -1.091  23.099  0.00  0.00    +0.301 HD
ATOM     16  C   UNL     1       7.197  -2.149  23.699  0.00  0.00    +0.340 C 
ATOM     17  N   UNL     1       8.478  -1.908  23.725  0.00  0.00    -0.062 NA
ATOM     18  C   UNL     1       9.410  -0.610  21.859  0.00  0.00    +0.078 C 
BRANCH  11  20
ATOM     19  C   UNL     1       9.371  -0.238  25.648  0.00  0.00    +0.012 C 
ATOM     20  C   UNL     1       9.354   0.369  24.238  0.00  0.00    +0.046 C 
ATOM     21  C   UNL     1      10.789   0.751  23.849  0.00  0.00    +0.012 C 
ENDBRANCH  11  20
ENDBRANCH   1  16
BRANCH   2  22
ATOM     22  C   UNL     1       6.263  -4.504  21.960  0.00  0.00    +0.339 C 
ATOM     23  O   UNL     1       5.635  -3.728  21.265  0.00  0.00    -0.245 OA
BRANCH  22  24
ATOM     24  O   UNL     1       7.139  -5.389  21.441  0.00  0.00    -0.477 OA
ATOM     25  H   UNL     1       6.780  -6.175  20.986  0.00  0.00    +0.295 HD
ENDBRANCH  22  24
ENDBRANCH   2  22
TORSDOF 4
ENDMDL
MODEL 8
REMARK VINA RESULT:      -6.6      2.685      4.266
REMARK  Name = 
REMARK  7 active torsions:
REMARK  status: ('A' for Active; 'I' for Inactive)
REMARK    1  A    between atoms: C_1  and  C_2
REMARK    2  A    between atoms: C_2  and  C_3
REMARK    3  A    between atoms: C_2  and  C_4
REMARK    4  A    between atoms: C_4  and  C_5
REMARK    5  A    between atoms: C_7  and  C_11
REMARK    6  A    between atoms: C_20  and  C_21
REMARK    7  A    between atoms: C_21  and  O_22
REMARK                            x       y       z     vdW  Elec       q    Type
REMARK                         _______ _______ _______ _____ _____    ______ ____
ROOT
ATOM      1  C   UNL     1       7.182  -3.613  24.137  0.00  0.00    +0.169 A 
ATOM      2  C   UNL     1       7.387  -3.541  22.760  0.00  0.00    +0.093 A 
ATOM      3  C   UNL     1       8.260  -2.560  22.270  0.00  0.00    +0.027 A 
ATOM      4  C   UNL     1       8.882  -1.667  23.144  0.00  0.00    +0.001 A 
ATOM      5  C   UNL     1       8.640  -1.814  24.523  0.00  0.00    +0.072 A 
ATOM      6  C   UNL     1       9.299  -0.949  25.390  0.00  0.00    +0.028 A 
ATOM      7  C   UNL     1      10.154   0.057  24.921  0.00  0.00    +0.002 A 
ATOM      8  C   UNL     1      10.365   0.209  23.555  0.00  0.00    +0.001 A 
ATOM      9  C   UNL     1       9.735  -0.657  22.667  0.00  0.00    +0.010 A 
ATOM     10  N   UNL     1       7.805  -2.757  25.001  0.00  0.00    -0.238 NA
ENDROOT
BRANCH   1  16
ATOM     11  C   UNL     1       4.480  -5.768  25.501  0.00  0.00    +0.249 C 
ATOM     12  C   UNL     1       5.694  -6.079  26.365  0.00  0.00    +0.354 C 
ATOM     13  O   UNL     1       5.766  -6.805  27.343  0.00  0.00    -0.242 OA
ATOM     14  N   UNL     1       6.726  -5.397  25.815  0.00  0.00    -0.165 N 
ATOM     15  H   UNL     1       7.612  -5.372  26.294  0.00  0.00    +0.301 HD
ATOM     16  C   UNL     1       6.268  -4.591  24.829  0.00  0.00    +0.340 C 
ATOM     17  N   UNL     1       5.013  -4.759  24.519  0.00  0.00    -0.062 NA
ATOM     18  C   UNL     1       4.104  -7.033  24.725  0.00  0.00    +0.078 C 
BRANCH  11  20
ATOM     19  C   UNL     1       2.641  -3.949  25.572  0.00  0.00    +0.012 C 
ATOM     20  C   UNL     1       3.288  -5.149  26.277  0.00  0.00    +0.046 C 
ATOM     21  C   UNL     1       2.193  -6.166  26.624  0.00  0.00    +0.012 C 
ENDBRANCH  11  20
ENDBRANCH   1  16
BRANCH   2  22
ATOM     22  C   UNL     1       6.815  -4.506  21.807  0.00  0.00    +0.339 C 
ATOM     23  O   UNL     1       7.353  -5.559  21.520  0.00  0.00    -0.245 OA
BRANCH  22  24
ATOM     24  O   UNL     1       5.603  -4.162  21.326  0.00  0.00    -0.477 OA
ATOM     25  H   UNL     1       4.863  -4.784  21.462  0.00  0.00    +0.295 HD
ENDBRANCH  22  24
ENDBRANCH   2  22
TORSDOF 4
ENDMDL
MODEL 9
REMARK VINA RESULT:      -6.6      1.869      6.349
REMARK  Name = 
REMARK  7 active torsions:
REMARK  status: ('A' for Active; 'I' for Inactive)
REMARK    1  A    between atoms: C_1  and  C_2
REMARK    2  A    between atoms: C_2  and  C_3
REMARK    3  A    between atoms: C_2  and  C_4
REMARK    4  A    between atoms: C_4  and  C_5
REMARK    5  A    between atoms: C_7  and  C_11
REMARK    6  A    between atoms: C_20  and  C_21
REMARK    7  A    between atoms: C_21  and  O_22
REMARK                            x       y       z     vdW  Elec       q    Type
REMARK                         _______ _______ _______ _____ _____    ______ ____
ROOT
ATOM      1  C   UNL     1       7.272  -1.415  23.291  0.00  0.00    +0.169 A 
ATOM      2  C   UNL     1       8.209  -2.179  22.597  0.00  0.00    +0.093 A 
ATOM      3  C   UNL     1       7.870  -3.495  22.254  0.00  0.00    +0.027 A 
ATOM      4  C   UNL     1       6.633  -4.026  22.625  0.00  0.00    +0.001 A 
ATOM      5  C   UNL     1       5.732  -3.188  23.308  0.00  0.00    +0.072 A 
ATOM      6  C   UNL     1       4.484  -3.710  23.634  0.00  0.00    +0.028 A 
ATOM      7  C   UNL     1       4.133  -5.030  23.326  0.00  0.00    +0.002 A 
ATOM      8  C   UNL     1       5.042  -5.857  22.675  0.00  0.00    +0.001 A 
ATOM      9  C   UNL     1       6.289  -5.353  22.317  0.00  0.00    +0.010 A 
ATOM     10  N   UNL     1       6.050  -1.920  23.638  0.00  0.00    -0.238 NA
ENDROOT
BRANCH   1  16
ATOM     11  C   UNL     1       8.014   2.180  23.860  0.00  0.00    +0.249 C 
ATOM     12  C   UNL     1       7.604   1.650  25.226  0.00  0.00    +0.354 C 
ATOM     13  O   UNL     1       7.593   2.235  26.297  0.00  0.00    -0.242 OA
ATOM     14  N   UNL     1       7.211   0.370  25.026  0.00  0.00    -0.165 N 
ATOM     15  H   UNL     1       6.999  -0.210  25.822  0.00  0.00    +0.301 HD
ATOM     16  C   UNL     1       7.478   0.004  23.751  0.00  0.00    +0.340 C 
ATOM     17  N   UNL     1       7.883   0.970  22.974  0.00  0.00    -0.062 NA
ATOM     18  C   UNL     1       6.977   3.212  23.411  0.00  0.00    +0.078 C 
BRANCH  11  20
ATOM     19  C   UNL     1      10.268   2.193  22.586  0.00  0.00    +0.012 C 
ATOM     20  C   UNL     1       9.471   2.708  23.794  0.00  0.00    +0.046 C 
ATOM     21  C   UNL     1       9.566   4.240  23.829  0.00  0.00    +0.012 C 
ENDBRANCH  11  20
ENDBRANCH   1  16
BRANCH   2  22
ATOM     22  C   UNL     1       9.493  -1.642  22.118  0.00  0.00    +0.339 C 
ATOM     23  O   UNL     1      10.563  -1.918  22.626  0.00  0.00    -0.245 OA
BRANCH  22  24
ATOM     24  O   UNL     1       9.398  -0.871  21.015  0.00  0.00    -0.477 OA
ATOM     25  H   UNL     1       8.996   0.014  21.109  0.00  0.00    +0.295 HD
ENDBRANCH  22  24
ENDBRANCH   2  22
TORSDOF 4
ENDMDL
