MODEL 1
REMARK VINA RESULT:      -6.2      0.000      0.000
REMARK  Name = 
REMARK  5 active torsions:
REMARK  status: ('A' for Active; 'I' for Inactive)
REMARK    1  A    between atoms: C_1  and  O_2
REMARK    2  A    between atoms: O_2  and  C_3
REMARK    3  A    between atoms: C_5  and  O_6
REMARK    4  A    between atoms: C_7  and  C_10
REMARK    5  A    between atoms: C_10  and  C_12
REMARK                            x       y       z     vdW  Elec       q    Type
REMARK                         _______ _______ _______ _____ _____    ______ ____
ROOT
ATOM      1  C   UNL     1      10.032  -0.988  23.497  0.00  0.00    +0.124 A 
ATOM      2  C   UNL     1      10.045  -0.227  24.664  0.00  0.00    +0.046 A 
ATOM      3  C   UNL     1       9.735   1.132  24.611  0.00  0.00    +0.019 A 
ATOM      4  C   UNL     1       9.438   1.756  23.392  0.00  0.00    +0.064 A 
ATOM      5  C   UNL     1       9.375   0.970  22.232  0.00  0.00    +0.131 A 
ATOM      6  C   UNL     1       9.653  -0.400  22.290  0.00  0.00    +0.091 A 
ENDROOT
BRANCH   1   8
ATOM      7  C   UNL     1       9.504  -3.142  24.267  0.00  0.00    +0.277 C 
ATOM      8  O   UNL     1      10.333  -2.322  23.446  0.00  0.00    -0.495 OA
ENDBRANCH   1   8
BRANCH   4   9
ATOM      9  C   UNL     1       9.136   3.218  23.369  0.00  0.00    +0.197 C 
ATOM     10  O   UNL     1       7.988   3.607  23.177  0.00  0.00    -0.287 OA
BRANCH   9  11
ATOM     11  C   UNL     1      10.193   4.233  23.665  0.00  0.00    +0.022 A 
ATOM     12  C   UNL     1       9.929   5.430  24.346  0.00  0.00    +0.012 A 
ATOM     13  C   UNL     1      10.950   6.365  24.540  0.00  0.00    +0.001 A 
ATOM     14  C   UNL     1      12.240   6.100  24.082  0.00  0.00    +0.000 A 
ATOM     15  C   UNL     1      12.517   4.896  23.439  0.00  0.00    +0.001 A 
ATOM     16  C   UNL     1      11.498   3.964  23.234  0.00  0.00    +0.012 A 
ENDBRANCH   9  11
ENDBRANCH   4   9
BRANCH   5  17
ATOM     17  O   UNL     1       9.078   1.529  21.022  0.00  0.00    -0.506 OA
ATOM     18  H   UNL     1       8.156   1.835  21.021  0.00  0.00    +0.292 HD
ENDBRANCH   5  17
TORSDOF 4
ENDMDL
MODEL 2
REMARK VINA RESULT:      -6.1      3.224      5.742
REMARK  Name = 
REMARK  5 active torsions:
REMARK  status: ('A' for Active; 'I' for Inactive)
REMARK    1  A    between atoms: C_1  and  O_2
REMARK    2  A    between atoms: O_2  and  C_3
REMARK    3  A    between atoms: C_5  and  O_6
REMARK    4  A    between atoms: C_7  and  C_10
REMARK    5  A    between atoms: C_10  and  C_12
REMARK                            x       y       z     vdW  Elec       q    Type
REMARK                         _______ _______ _______ _____ _____    ______ ____
ROOT
ATOM      1  C   UNL     1       5.557  -4.219  22.691  0.00  0.00    +0.124 A 
ATOM      2  C   UNL     1       5.773  -2.877  22.384  0.00  0.00    +0.046 A 
ATOM      3  C   UNL     1       7.016  -2.297  22.642  0.00  0.00    +0.019 A 
ATOM      4  C   UNL     1       8.047  -3.038  23.234  0.00  0.00    +0.064 A 
ATOM      5  C   UNL     1       7.837  -4.401  23.487  0.00  0.00    +0.131 A 
ATOM      6  C   UNL     1       6.602  -4.991  23.199  0.00  0.00    +0.091 A 
ENDROOT
BRANCH   1   8
ATOM      7  C   UNL     1       3.479  -4.829  23.598  0.00  0.00    +0.277 C 
ATOM      8  O   UNL     1       4.372  -4.872  22.487  0.00  0.00    -0.495 OA
ENDBRANCH   1   8
BRANCH   4   9
ATOM      9  C   UNL     1       9.356  -2.378  23.519  0.00  0.00    +0.197 C 
ATOM     10  O   UNL     1      10.332  -3.055  23.828  0.00  0.00    -0.287 OA
BRANCH   9  11
ATOM     11  C   UNL     1       9.535  -0.904  23.348  0.00  0.00    +0.022 A 
ATOM     12  C   UNL     1       9.763  -0.305  22.101  0.00  0.00    +0.012 A 
ATOM     13  C   UNL     1       9.982   1.074  22.016  0.00  0.00    +0.001 A 
ATOM     14  C   UNL     1       9.946   1.861  23.166  0.00  0.00    +0.000 A 
ATOM     15  C   UNL     1       9.681   1.277  24.403  0.00  0.00    +0.001 A 
ATOM     16  C   UNL     1       9.473  -0.100  24.493  0.00  0.00    +0.012 A 
ENDBRANCH   9  11
ENDBRANCH   4   9
BRANCH   5  17
ATOM     17  O   UNL     1       8.815  -5.169  24.052  0.00  0.00    -0.506 OA
ATOM     18  H   UNL     1       8.641  -5.272  25.002  0.00  0.00    +0.292 HD
ENDBRANCH   5  17
TORSDOF 4
ENDMDL
MODEL 3
REMARK VINA RESULT:      -6.0      2.364      7.166
REMARK  Name = 
REMARK  5 active torsions:
REMARK  status: ('A' for Active; 'I' for Inactive)
REMARK    1  A    between atoms: C_1  and  O_2
REMARK    2  A    between atoms: O_2  and  C_3
REMARK    3  A    between atoms: C_5  and  O_6
REMARK    4  A    between atoms: C_7  and  C_10
REMARK    5  A    between atoms: C_10  and  C_12
REMARK                            x       y       z     vdW  Elec       q    Type
REMARK                         _______ _______ _______ _____ _____    ______ ____
ROOT
ATOM      1  C   UNL     1       9.968   1.257  23.856  0.00  0.00    +0.124 A 
ATOM      2  C   UNL     1       9.502   0.617  25.002  0.00  0.00    +0.046 A 
ATOM      3  C   UNL     1       9.273  -0.760  24.985  0.00  0.00    +0.019 A 
ATOM      4  C   UNL     1       9.476  -1.509  23.818  0.00  0.00    +0.064 A 
ATOM      5  C   UNL     1       9.997  -0.864  22.687  0.00  0.00    +0.131 A 
ATOM      6  C   UNL     1      10.258   0.510  22.713  0.00  0.00    +0.091 A 
ENDROOT
BRANCH   1   8
ATOM      7  C   UNL     1       9.150   3.421  24.260  0.00  0.00    +0.277 C 
ATOM      8  O   UNL     1      10.210   2.601  23.771  0.00  0.00    -0.495 OA
ENDBRANCH   1   8
BRANCH   4   9
ATOM      9  C   UNL     1       9.196  -2.976  23.828  0.00  0.00    +0.197 C 
ATOM     10  O   UNL     1      10.010  -3.754  24.316  0.00  0.00    -0.287 OA
BRANCH   9  11
ATOM     11  C   UNL     1       7.895  -3.520  23.334  0.00  0.00    +0.022 A 
ATOM     12  C   UNL     1       6.895  -2.711  22.776  0.00  0.00    +0.012 A 
ATOM     13  C   UNL     1       5.675  -3.274  22.388  0.00  0.00    +0.001 A 
ATOM     14  C   UNL     1       5.460  -4.645  22.526  0.00  0.00    +0.000 A 
ATOM     15  C   UNL     1       6.465  -5.460  23.043  0.00  0.00    +0.001 A 
ATOM     16  C   UNL     1       7.680  -4.900  23.442  0.00  0.00    +0.012 A 
ENDBRANCH   9  11
ENDBRANCH   4   9
BRANCH   5  17
ATOM     17  O   UNL     1      10.224  -1.553  21.529  0.00  0.00    -0.506 OA
ATOM     18  H   UNL     1      10.385  -0.927  20.804  0.00  0.00    +0.292 HD
ENDBRANCH   5  17
TORSDOF 4
ENDMDL
MODEL 4
REMARK VINA RESULT:      -6.0      3.447      7.741
REMARK  Name = 
REMARK  5 active torsions:
REMARK  status: ('A' for Active; 'I' for Inactive)
REMARK    1  A    between atoms: C_1  and  O_2
REMARK    2  A    between atoms: O_2  and  C_3
REMARK    3  A    between atoms: C_5  and  O_6
REMARK    4  A    between atoms: C_7  and  C_10
REMARK    5  A    between atoms: C_10  and  C_12
REMARK                            x       y       z     vdW  Elec       q    Type
REMARK                         _______ _______ _______ _____ _____    ______ ____
ROOT
ATOM      1  C   UNL     1       8.191   0.941  22.070  0.00  0.00    +0.124 A 
ATOM      2  C   UNL     1       7.229   0.357  22.890  0.00  0.00    +0.046 A 
ATOM      3  C   UNL     1       7.414  -0.944  23.361  0.00  0.00    +0.019 A 
ATOM      4  C   UNL     1       8.544  -1.687  22.996  0.00  0.00    +0.064 A 
ATOM      5  C   UNL     1       9.532  -1.071  22.216  0.00  0.00    +0.131 A 
ATOM      6  C   UNL     1       9.363   0.245  21.770  0.00  0.00    +0.091 A 
ENDROOT
BRANCH   1   8
ATOM      7  C   UNL     1       7.011   2.971  22.070  0.00  0.00    +0.277 C 
ATOM      8  O   UNL     1       8.094   2.203  21.550  0.00  0.00    -0.495 OA
ENDBRANCH   1   8
BRANCH   4   9
ATOM      9  C   UNL     1       8.697  -3.086  23.498  0.00  0.00    +0.197 C 
ATOM     10  O   UNL     1       9.728  -3.424  24.073  0.00  0.00    -0.287 OA
BRANCH   9  11
ATOM     11  C   UNL     1       7.579  -4.072  23.397  0.00  0.00    +0.022 A 
ATOM     12  C   UNL     1       6.850  -4.512  24.511  0.00  0.00    +0.012 A 
ATOM     13  C   UNL     1       5.855  -5.482  24.358  0.00  0.00    +0.001 A 
ATOM     14  C   UNL     1       5.564  -5.995  23.094  0.00  0.00    +0.000 A 
ATOM     15  C   UNL     1       6.259  -5.533  21.978  0.00  0.00    +0.001 A 
ATOM     16  C   UNL     1       7.260  -4.573  22.128  0.00  0.00    +0.012 A 
ENDBRANCH   9  11
ENDBRANCH   4   9
BRANCH   5  17
ATOM     17  O   UNL     1      10.658  -1.749  21.844  0.00  0.00    -0.506 OA
ATOM     18  H   UNL     1      11.229  -1.169  21.314  0.00  0.00    +0.292 HD
ENDBRANCH   5  17
TORSDOF 4
ENDMDL
MODEL 5
REMARK VINA RESULT:      -5.7      2.953      5.153
REMARK  Name = 
REMARK  5 active torsions:
REMARK  status: ('A' for Active; 'I' for Inactive)
REMARK    1  A    between atoms: C_1  and  O_2
REMARK    2  A    between atoms: O_2  and  C_3
REMARK    3  A    between atoms: C_5  and  O_6
REMARK    4  A    between atoms: C_7  and  C_10
REMARK    5  A    between atoms: C_10  and  C_12
REMARK                            x       y       z     vdW  Elec       q    Type
REMARK                         _______ _______ _______ _____ _____    ______ ____
ROOT
ATOM      1  C   UNL     1       7.001  -3.359  26.464  0.00  0.00    +0.124 A 
ATOM      2  C   UNL     1       6.838  -2.103  25.886  0.00  0.00    +0.046 A 
ATOM      3  C   UNL     1       7.763  -1.643  24.947  0.00  0.00    +0.019 A 
ATOM      4  C   UNL     1       8.877  -2.418  24.596  0.00  0.00    +0.064 A 
ATOM      5  C   UNL     1       9.002  -3.703  25.142  0.00  0.00    +0.131 A 
ATOM      6  C   UNL     1       8.057  -4.177  26.059  0.00  0.00    +0.091 A 
ENDROOT
BRANCH   1   8
ATOM      7  C   UNL     1       6.225  -5.310  27.515  0.00  0.00    +0.277 C 
ATOM      8  O   UNL     1       6.156  -3.890  27.400  0.00  0.00    -0.495 OA
ENDBRANCH   1   8
BRANCH   4   9
ATOM      9  C   UNL     1       9.861  -1.884  23.608  0.00  0.00    +0.197 C 
ATOM     10  O   UNL     1      10.549  -2.656  22.946  0.00  0.00    -0.287 OA
BRANCH   9  11
ATOM     11  C   UNL     1       9.969  -0.419  23.335  0.00  0.00    +0.022 A 
ATOM     12  C   UNL     1       9.562   0.161  22.125  0.00  0.00    +0.012 A 
ATOM     13  C   UNL     1       9.745   1.531  21.909  0.00  0.00    +0.001 A 
ATOM     14  C   UNL     1      10.306   2.329  22.905  0.00  0.00    +0.000 A 
ATOM     15  C   UNL     1      10.677   1.764  24.124  0.00  0.00    +0.001 A 
ATOM     16  C   UNL     1      10.506   0.396  24.339  0.00  0.00    +0.012 A 
ENDBRANCH   9  11
ENDBRANCH   4   9
BRANCH   5  17
ATOM     17  O   UNL     1      10.063  -4.501  24.823  0.00  0.00    -0.506 OA
ATOM     18  H   UNL     1       9.887  -5.411  25.114  0.00  0.00    +0.292 HD
ENDBRANCH   5  17
TORSDOF 4
ENDMDL
MODEL 6
REMARK VINA RESULT:      -5.7      2.341      6.778
REMARK  Name = 
REMARK  5 active torsions:
REMARK  status: ('A' for Active; 'I' for Inactive)
REMARK    1  A    between atoms: C_1  and  O_2
REMARK    2  A    between atoms: O_2  and  C_3
REMARK    3  A    between atoms: C_5  and  O_6
REMARK    4  A    between atoms: C_7  and  C_10
REMARK    5  A    between atoms: C_10  and  C_12
REMARK                            x       y       z     vdW  Elec       q    Type
REMARK                         _______ _______ _______ _____ _____    ______ ____
ROOT
ATOM      1  C   UNL     1      10.318   2.295  23.275  0.00  0.00    +0.124 A 
ATOM      2  C   UNL     1      10.067   1.585  22.103  0.00  0.00    +0.046 A 
ATOM      3  C   UNL     1       9.728   0.233  22.169  0.00  0.00    +0.019 A 
ATOM      4  C   UNL     1       9.665  -0.434  23.400  0.00  0.00    +0.064 A 
ATOM      5  C   UNL     1       9.865   0.303  24.576  0.00  0.00    +0.131 A 
ATOM      6  C   UNL     1      10.173   1.667  24.512  0.00  0.00    +0.091 A 
ENDROOT
BRANCH   1   8
ATOM      7  C   UNL     1       9.684   4.470  23.896  0.00  0.00    +0.277 C 
ATOM      8  O   UNL     1      10.668   3.618  23.312  0.00  0.00    -0.495 OA
ENDBRANCH   1   8
BRANCH   4   9
ATOM      9  C   UNL     1       9.325  -1.888  23.432  0.00  0.00    +0.197 C 
ATOM     10  O   UNL     1      10.196  -2.719  23.670  0.00  0.00    -0.287 OA
BRANCH   9  11
ATOM     11  C   UNL     1       7.916  -2.358  23.268  0.00  0.00    +0.022 A 
ATOM     12  C   UNL     1       6.862  -1.899  24.072  0.00  0.00    +0.012 A 
ATOM     13  C   UNL     1       5.577  -2.423  23.907  0.00  0.00    +0.001 A 
ATOM     14  C   UNL     1       5.331  -3.382  22.926  0.00  0.00    +0.000 A 
ATOM     15  C   UNL     1       6.365  -3.814  22.099  0.00  0.00    +0.001 A 
ATOM     16  C   UNL     1       7.653  -3.301  22.267  0.00  0.00    +0.012 A 
ENDBRANCH   9  11
ENDBRANCH   4   9
BRANCH   5  17
ATOM     17  O   UNL     1       9.802  -0.299  25.801  0.00  0.00    -0.506 OA
ATOM     18  H   UNL     1       9.369  -1.164  25.717  0.00  0.00    +0.292 HD
ENDBRANCH   5  17
TORSDOF 4
ENDMDL
MODEL 7
REMARK VINA RESULT:      -5.7      2.832      7.825
REMARK  Name = 
REMARK  5 active torsions:
REMARK  status: ('A' for Active; 'I' for Inactive)
REMARK    1  A    between atoms: C_1  and  O_2
REMARK    2  A    between atoms: O_2  and  C_3
REMARK    3  A    between atoms: C_5  and  O_6
REMARK    4  A    between atoms: C_7  and  C_10
REMARK    5  A    between atoms: C_10  and  C_12
REMARK                            x       y       z     vdW  Elec       q    Type
REMARK                         _______ _______ _______ _____ _____    ______ ____
ROOT
ATOM      1  C   UNL     1      10.090   0.237  23.989  0.00  0.00    +0.124 A 
ATOM      2  C   UNL     1      10.205  -0.580  22.868  0.00  0.00    +0.046 A 
ATOM      3  C   UNL     1       9.788  -1.911  22.932  0.00  0.00    +0.019 A 
ATOM      4  C   UNL     1       9.279  -2.449  24.121  0.00  0.00    +0.064 A 
ATOM      5  C   UNL     1       9.116  -1.603  25.227  0.00  0.00    +0.131 A 
ATOM      6  C   UNL     1       9.504  -0.260  25.154  0.00  0.00    +0.091 A 
ENDROOT
BRANCH   1   8
ATOM      7  C   UNL     1      10.188   2.284  22.842  0.00  0.00    +0.277 C 
ATOM      8  O   UNL     1      10.482   1.548  24.028  0.00  0.00    -0.495 OA
ENDBRANCH   1   8
BRANCH   4   9
ATOM      9  C   UNL     1       8.866  -3.883  24.162  0.00  0.00    +0.197 C 
ATOM     10  O   UNL     1       9.550  -4.704  24.766  0.00  0.00    -0.287 OA
BRANCH   9  11
ATOM     11  C   UNL     1       7.578  -4.337  23.554  0.00  0.00    +0.022 A 
ATOM     12  C   UNL     1       6.373  -3.639  23.717  0.00  0.00    +0.012 A 
ATOM     13  C   UNL     1       5.190  -4.148  23.172  0.00  0.00    +0.001 A 
ATOM     14  C   UNL     1       5.209  -5.335  22.442  0.00  0.00    +0.000 A 
ATOM     15  C   UNL     1       6.410  -6.013  22.244  0.00  0.00    +0.001 A 
ATOM     16  C   UNL     1       7.591  -5.514  22.795  0.00  0.00    +0.012 A 
ENDBRANCH   9  11
ENDBRANCH   4   9
BRANCH   5  17
ATOM     17  O   UNL     1       8.613  -2.076  26.406  0.00  0.00    -0.506 OA
ATOM     18  H   UNL     1       8.852  -1.473  27.128  0.00  0.00    +0.292 HD
ENDBRANCH   5  17
TORSDOF 4
ENDMDL
MODEL 8
REMARK VINA RESULT:      -5.7      4.438      6.569
REMARK  Name = 
REMARK  5 active torsions:
REMARK  status: ('A' for Active; 'I' for Inactive)
REMARK    1  A    between atoms: C_1  and  O_2
REMARK    2  A    between atoms: O_2  and  C_3
REMARK    3  A    between atoms: C_5  and  O_6
REMARK    4  A    between atoms: C_7  and  C_10
REMARK    5  A    between atoms: C_10  and  C_12
REMARK                            x       y       z     vdW  Elec       q    Type
REMARK                         _______ _______ _______ _____ _____    ______ ____
ROOT
ATOM      1  C   UNL     1       7.594  -5.250  26.664  0.00  0.00    +0.124 A 
ATOM      2  C   UNL     1       8.675  -4.470  26.262  0.00  0.00    +0.046 A 
ATOM      3  C   UNL     1       8.673  -3.877  24.998  0.00  0.00    +0.019 A 
ATOM      4  C   UNL     1       7.608  -4.078  24.110  0.00  0.00    +0.064 A 
ATOM      5  C   UNL     1       6.500  -4.819  24.546  0.00  0.00    +0.131 A 
ATOM      6  C   UNL     1       6.487  -5.386  25.824  0.00  0.00    +0.091 A 
ENDROOT
BRANCH   1   8
ATOM      7  C   UNL     1       6.189  -5.954  28.408  0.00  0.00    +0.277 C 
ATOM      8  O   UNL     1       7.509  -5.881  27.875  0.00  0.00    -0.495 OA
ENDBRANCH   1   8
BRANCH   4   9
ATOM      9  C   UNL     1       7.651  -3.449  22.757  0.00  0.00    +0.197 C 
ATOM     10  O   UNL     1       7.310  -4.092  21.768  0.00  0.00    -0.287 OA
BRANCH   9  11
ATOM     11  C   UNL     1       8.017  -2.011  22.581  0.00  0.00    +0.022 A 
ATOM     12  C   UNL     1       7.187  -0.959  22.992  0.00  0.00    +0.012 A 
ATOM     13  C   UNL     1       7.561   0.366  22.745  0.00  0.00    +0.001 A 
ATOM     14  C   UNL     1       8.773   0.647  22.115  0.00  0.00    +0.000 A 
ATOM     15  C   UNL     1       9.620  -0.394  21.739  0.00  0.00    +0.001 A 
ATOM     16  C   UNL     1       9.245  -1.718  21.974  0.00  0.00    +0.012 A 
ENDBRANCH   9  11
ENDBRANCH   4   9
BRANCH   5  17
ATOM     17  O   UNL     1       5.432  -5.033  23.722  0.00  0.00    -0.506 OA
ATOM     18  H   UNL     1       4.866  -4.243  23.710  0.00  0.00    +0.292 HD
ENDBRANCH   5  17
TORSDOF 4
ENDMDL
MODEL 9
REMARK VINA RESULT:      -5.7      4.386      7.107
REMARK  Name = 
REMARK  5 active torsions:
REMARK  status: ('A' for Active; 'I' for Inactive)
REMARK    1  A    between atoms: C_1  and  O_2
REMARK    2  A    between atoms: O_2  and  C_3
REMARK    3  A    between atoms: C_5  and  O_6
REMARK    4  A    between atoms: C_7  and  C_10
REMARK    5  A    between atoms: C_10  and  C_12
REMARK                            x       y       z     vdW  Elec       q    Type
REMARK                         _______ _______ _______ _____ _____    ______ ____
ROOT
ATOM      1  C   UNL     1       5.154  -5.390  25.070  0.00  0.00    +0.124 A 
ATOM      2  C   UNL     1       5.521  -4.558  24.015  0.00  0.00    +0.046 A 
ATOM      3  C   UNL     1       6.836  -4.102  23.915  0.00  0.00    +0.019 A 
ATOM      4  C   UNL     1       7.792  -4.445  24.880  0.00  0.00    +0.064 A 
ATOM      5  C   UNL     1       7.426  -5.327  25.907  0.00  0.00    +0.131 A 
ATOM      6  C   UNL     1       6.116  -5.811  25.989  0.00  0.00    +0.091 A 
ENDROOT
BRANCH   1   8
ATOM      7  C   UNL     1       3.650  -7.144  24.647  0.00  0.00    +0.277 C 
ATOM      8  O   UNL     1       3.889  -5.878  25.259  0.00  0.00    -0.495 OA
ENDBRANCH   1   8
BRANCH   4   9
ATOM      9  C   UNL     1       9.184  -3.917  24.756  0.00  0.00    +0.197 C 
ATOM     10  O   UNL     1      10.140  -4.686  24.806  0.00  0.00    -0.287 OA
BRANCH   9  11
ATOM     11  C   UNL     1       9.444  -2.472  24.480  0.00  0.00    +0.022 A 
ATOM     12  C   UNL     1       9.132  -1.455  25.393  0.00  0.00    +0.012 A 
ATOM     13  C   UNL     1       9.345  -0.116  25.050  0.00  0.00    +0.001 A 
ATOM     14  C   UNL     1       9.895   0.211  23.811  0.00  0.00    +0.000 A 
ATOM     15  C   UNL     1      10.243  -0.798  22.915  0.00  0.00    +0.001 A 
ATOM     16  C   UNL     1      10.022  -2.134  23.249  0.00  0.00    +0.012 A 
ENDBRANCH   9  11
ENDBRANCH   4   9
BRANCH   5  17
ATOM     17  O   UNL     1       8.325  -5.701  26.865  0.00  0.00    -0.506 OA
ATOM     18  H   UNL     1       8.520  -6.649  26.776  0.00  0.00    +0.292 HD
ENDBRANCH   5  17
TORSDOF 4
ENDMDL
