MODEL 1
REMARK VINA RESULT:      -8.6      0.000      0.000
REMARK  Name = 
REMARK  6 active torsions:
REMARK  status: ('A' for Active; 'I' for Inactive)
REMARK    1  A    between atoms: O_1  and  C_2
REMARK    2  A    between atoms: C_2  and  C_3
REMARK    3  A    between atoms: C_7  and  C_8
REMARK    4  A    between atoms: C_14  and  C_17
REMARK    5  A    between atoms: C_24  and  C_25
REMARK    6  A    between atoms: C_25  and  N_26
REMARK                            x       y       z     vdW  Elec       q    Type
REMARK                         _______ _______ _______ _____ _____    ______ ____
ROOT
ATOM      1  C   UNL     1       5.652  -5.503  26.786  0.00  0.00    +0.006 A 
ATOM      2  C   UNL     1       6.466  -4.430  27.169  0.00  0.00    +0.011 A 
ATOM      3  C   UNL     1       7.274  -3.763  26.245  0.00  0.00    +0.013 A 
ATOM      4  C   UNL     1       7.275  -4.178  24.904  0.00  0.00    +0.029 A 
ATOM      5  C   UNL     1       7.863  -3.747  23.682  0.00  0.00    +0.116 A 
ATOM      6  N   UNL     1       7.589  -4.580  22.667  0.00  0.00    -0.171 NA
ATOM      7  N   UNL     1       6.724  -5.458  23.209  0.00  0.00    -0.276 N 
ATOM      8  H   UNL     1       6.324  -6.170  22.607  0.00  0.00    +0.189 HD
ATOM      9  C   UNL     1       6.480  -5.262  24.543  0.00  0.00    +0.067 A 
ATOM     10  C   UNL     1       5.633  -5.922  25.444  0.00  0.00    +0.038 A 
ENDROOT
BRANCH   5  11
ATOM     11  C   UNL     1       8.599  -2.482  23.440  0.00  0.00    +0.068 A 
ATOM     12  N   UNL     1       8.711  -1.891  22.209  0.00  0.00    -0.353 N 
ATOM     13  H   UNL     1       8.356  -2.300  21.357  0.00  0.00    +0.166 HD
ATOM     14  C   UNL     1       9.210  -0.614  22.343  0.00  0.00    +0.047 A 
ATOM     15  C   UNL     1       9.418   0.383  21.389  0.00  0.00    +0.026 A 
ATOM     16  C   UNL     1       9.817   1.642  21.856  0.00  0.00    +0.007 A 
ATOM     17  C   UNL     1      10.002   1.911  23.221  0.00  0.00    -0.033 A 
ATOM     18  C   UNL     1       9.870   0.862  24.147  0.00  0.00    +0.015 A 
ATOM     19  C   UNL     1       9.462  -0.412  23.699  0.00  0.00    +0.001 A 
ATOM     20  C   UNL     1       9.168  -1.634  24.363  0.00  0.00    +0.037 A 
BRANCH  17  21
ATOM     21  C   UNL     1      10.290   3.334  23.681  0.00  0.00    +0.119 C 
BRANCH  21  22
ATOM     22  N   UNL     1       9.120   3.942  24.334  0.00  0.00    -0.298 NA
ATOM     23  C   UNL     1       7.859   3.751  23.623  0.00  0.00    +0.085 C 
ATOM     24  C   UNL     1       7.606   4.692  22.445  0.00  0.00    +0.015 C 
ATOM     25  C   UNL     1       7.982   6.148  22.706  0.00  0.00    +0.002 C 
ATOM     26  C   UNL     1       9.251   6.313  23.534  0.00  0.00    +0.015 C 
ATOM     27  C   UNL     1       9.304   5.345  24.715  0.00  0.00    +0.085 C 
ENDBRANCH  21  22
ENDBRANCH  17  21
ENDBRANCH   5  11
BRANCH   1  29
ATOM     28  C   UNL     1       3.488  -6.061  28.145  0.00  0.00    +0.116 A 
ATOM     29  C   UNL     1       4.868  -6.185  27.813  0.00  0.00    +0.118 A 
ATOM     30  N   UNL     1       5.400  -7.159  28.576  0.00  0.00    -0.154 NA
ATOM     31  N   UNL     1       4.354  -7.542  29.316  0.00  0.00    -0.196 N 
ATOM     32  H   UNL     1       4.451  -8.280  30.009  0.00  0.00    +0.213 HD
ATOM     33  N   UNL     1       3.172  -6.952  29.101  0.00  0.00    -0.157 NA
BRANCH  28  34
ATOM     34  C   UNL     1       2.451  -5.176  27.551  0.00  0.00    +0.215 C 
BRANCH  34  35
ATOM     35  O   UNL     1       2.000  -5.657  26.285  0.00  0.00    -0.389 OA
ATOM     36  H   UNL     1       1.189  -6.163  26.456  0.00  0.00    +0.210 HD
ENDBRANCH  34  35
ENDBRANCH  28  34
ENDBRANCH   1  29
TORSDOF 6
ENDMDL
MODEL 2
REMARK VINA RESULT:      -8.4      2.150      2.584
REMARK  Name = 
REMARK  6 active torsions:
REMARK  status: ('A' for Active; 'I' for Inactive)
REMARK    1  A    between atoms: O_1  and  C_2
REMARK    2  A    between atoms: C_2  and  C_3
REMARK    3  A    between atoms: C_7  and  C_8
REMARK    4  A    between atoms: C_14  and  C_17
REMARK    5  A    between atoms: C_24  and  C_25
REMARK    6  A    between atoms: C_25  and  N_26
REMARK                            x       y       z     vdW  Elec       q    Type
REMARK                         _______ _______ _______ _____ _____    ______ ____
ROOT
ATOM      1  C   UNL     1       4.470  -5.195  23.807  0.00  0.00    +0.006 A 
ATOM      2  C   UNL     1       4.520  -3.801  23.694  0.00  0.00    +0.011 A 
ATOM      3  C   UNL     1       5.729  -3.106  23.781  0.00  0.00    +0.013 A 
ATOM      4  C   UNL     1       6.920  -3.819  23.991  0.00  0.00    +0.029 A 
ATOM      5  C   UNL     1       8.310  -3.525  24.062  0.00  0.00    +0.116 A 
ATOM      6  N   UNL     1       9.042  -4.605  24.373  0.00  0.00    -0.171 NA
ATOM      7  N   UNL     1       8.140  -5.604  24.366  0.00  0.00    -0.276 N 
ATOM      8  H   UNL     1       8.471  -6.550  24.526  0.00  0.00    +0.189 HD
ATOM      9  C   UNL     1       6.852  -5.203  24.128  0.00  0.00    +0.067 A 
ATOM     10  C   UNL     1       5.656  -5.924  24.005  0.00  0.00    +0.038 A 
ENDROOT
BRANCH   5  11
ATOM     11  C   UNL     1       8.972  -2.239  23.727  0.00  0.00    +0.068 A 
ATOM     12  N   UNL     1       8.985  -1.695  22.470  0.00  0.00    -0.353 N 
ATOM     13  H   UNL     1       8.601  -2.155  21.658  0.00  0.00    +0.166 HD
ATOM     14  C   UNL     1       9.431  -0.393  22.524  0.00  0.00    +0.047 A 
ATOM     15  C   UNL     1       9.536   0.572  21.522  0.00  0.00    +0.026 A 
ATOM     16  C   UNL     1       9.902   1.865  21.915  0.00  0.00    +0.007 A 
ATOM     17  C   UNL     1      10.152   2.199  23.255  0.00  0.00    -0.033 A 
ATOM     18  C   UNL     1      10.123   1.184  24.227  0.00  0.00    +0.015 A 
ATOM     19  C   UNL     1       9.750  -0.124  23.855  0.00  0.00    +0.001 A 
ATOM     20  C   UNL     1       9.552  -1.329  24.582  0.00  0.00    +0.037 A 
BRANCH  17  21
ATOM     21  C   UNL     1      10.400   3.652  23.642  0.00  0.00    +0.119 C 
BRANCH  21  22
ATOM     22  N   UNL     1       9.249   4.228  24.356  0.00  0.00    -0.298 NA
ATOM     23  C   UNL     1       7.958   4.001  23.712  0.00  0.00    +0.085 C 
ATOM     24  C   UNL     1       7.618   4.934  22.548  0.00  0.00    +0.015 C 
ATOM     25  C   UNL     1       7.967   6.400  22.790  0.00  0.00    +0.002 C 
ATOM     26  C   UNL     1       9.272   6.601  23.550  0.00  0.00    +0.015 C 
ATOM     27  C   UNL     1       9.414   5.636  24.727  0.00  0.00    +0.085 C 
ENDBRANCH  21  22
ENDBRANCH  17  21
ENDBRANCH   5  11
BRANCH   1  29
ATOM     28  C   UNL     1       2.366  -6.388  24.804  0.00  0.00    +0.116 A 
ATOM     29  C   UNL     1       3.166  -5.852  23.753  0.00  0.00    +0.118 A 
ATOM     30  N   UNL     1       2.476  -5.958  22.602  0.00  0.00    -0.154 NA
ATOM     31  N   UNL     1       1.347  -6.551  23.002  0.00  0.00    -0.196 N 
ATOM     32  H   UNL     1       0.612  -6.772  22.334  0.00  0.00    +0.213 HD
ATOM     33  N   UNL     1       1.194  -6.818  24.305  0.00  0.00    -0.157 NA
BRANCH  28  34
ATOM     34  C   UNL     1       2.647  -6.453  26.263  0.00  0.00    +0.215 C 
BRANCH  34  35
ATOM     35  O   UNL     1       3.729  -7.335  26.560  0.00  0.00    -0.389 OA
ATOM     36  H   UNL     1       4.078  -7.639  25.706  0.00  0.00    +0.210 HD
ENDBRANCH  34  35
ENDBRANCH  28  34
ENDBRANCH   1  29
TORSDOF 6
ENDMDL
MODEL 3
REMARK VINA RESULT:      -8.3      3.291     10.295
REMARK  Name = 
REMARK  6 active torsions:
REMARK  status: ('A' for Active; 'I' for Inactive)
REMARK    1  A    between atoms: O_1  and  C_2
REMARK    2  A    between atoms: C_2  and  C_3
REMARK    3  A    between atoms: C_7  and  C_8
REMARK    4  A    between atoms: C_14  and  C_17
REMARK    5  A    between atoms: C_24  and  C_25
REMARK    6  A    between atoms: C_25  and  N_26
REMARK                            x       y       z     vdW  Elec       q    Type
REMARK                         _______ _______ _______ _____ _____    ______ ____
ROOT
ATOM      1  C   UNL     1       9.497   2.792  23.550  0.00  0.00    +0.006 A 
ATOM      2  C   UNL     1       8.781   2.111  24.541  0.00  0.00    +0.011 A 
ATOM      3  C   UNL     1       8.486   0.751  24.423  0.00  0.00    +0.013 A 
ATOM      4  C   UNL     1       8.914   0.050  23.283  0.00  0.00    +0.029 A 
ATOM      5  C   UNL     1       8.893  -1.296  22.821  0.00  0.00    +0.116 A 
ATOM      6  N   UNL     1       9.386  -1.412  21.579  0.00  0.00    -0.171 NA
ATOM      7  N   UNL     1       9.840  -0.174  21.307  0.00  0.00    -0.276 N 
ATOM      8  H   UNL     1      10.315  -0.022  20.424  0.00  0.00    +0.189 HD
ATOM      9  C   UNL     1       9.603   0.746  22.294  0.00  0.00    +0.067 A 
ATOM     10  C   UNL     1       9.943   2.100  22.409  0.00  0.00    +0.038 A 
ENDROOT
BRANCH   5  11
ATOM     11  C   UNL     1       8.508  -2.502  23.594  0.00  0.00    +0.068 A 
ATOM     12  N   UNL     1       9.200  -2.959  24.685  0.00  0.00    -0.353 N 
ATOM     13  H   UNL     1      10.062  -2.550  25.013  0.00  0.00    +0.166 HD
ATOM     14  C   UNL     1       8.463  -3.920  25.341  0.00  0.00    +0.047 A 
ATOM     15  C   UNL     1       8.718  -4.604  26.531  0.00  0.00    +0.026 A 
ATOM     16  C   UNL     1       7.704  -5.435  27.022  0.00  0.00    +0.007 A 
ATOM     17  C   UNL     1       6.473  -5.585  26.363  0.00  0.00    -0.033 A 
ATOM     18  C   UNL     1       6.282  -4.951  25.123  0.00  0.00    +0.015 A 
ATOM     19  C   UNL     1       7.288  -4.104  24.614  0.00  0.00    +0.001 A 
ATOM     20  C   UNL     1       7.379  -3.278  23.462  0.00  0.00    +0.037 A 
BRANCH  17  21
ATOM     21  C   UNL     1       5.354  -6.383  27.020  0.00  0.00    +0.119 C 
BRANCH  21  22
ATOM     22  N   UNL     1       4.329  -5.503  27.604  0.00  0.00    -0.298 NA
ATOM     23  C   UNL     1       4.827  -4.582  28.622  0.00  0.00    +0.085 C 
ATOM     24  C   UNL     1       5.023  -5.171  30.020  0.00  0.00    +0.015 C 
ATOM     25  C   UNL     1       3.895  -6.092  30.482  0.00  0.00    +0.002 C 
ATOM     26  C   UNL     1       3.331  -6.971  29.373  0.00  0.00    +0.015 C 
ATOM     27  C   UNL     1       3.128  -6.203  28.068  0.00  0.00    +0.085 C 
ENDBRANCH  21  22
ENDBRANCH  17  21
ENDBRANCH   5  11
BRANCH   1  29
ATOM     28  C   UNL     1      10.934   4.978  23.602  0.00  0.00    +0.116 A 
ATOM     29  C   UNL     1       9.729   4.225  23.717  0.00  0.00    +0.118 A 
ATOM     30  N   UNL     1       8.715   5.083  23.936  0.00  0.00    -0.154 NA
ATOM     31  N   UNL     1       9.343   6.263  23.964  0.00  0.00    -0.196 N 
ATOM     32  H   UNL     1       8.824   7.123  24.121  0.00  0.00    +0.213 HD
ATOM     33  N   UNL     1      10.664   6.286  23.748  0.00  0.00    -0.157 NA
BRANCH  28  34
ATOM     34  C   UNL     1      12.313   4.509  23.303  0.00  0.00    +0.215 C 
BRANCH  34  35
ATOM     35  O   UNL     1      13.295   5.488  23.643  0.00  0.00    -0.389 OA
ATOM     36  H   UNL     1      14.028   5.008  24.061  0.00  0.00    +0.210 HD
ENDBRANCH  34  35
ENDBRANCH  28  34
ENDBRANCH   1  29
TORSDOF 6
ENDMDL
MODEL 4
REMARK VINA RESULT:      -8.2      2.020      2.313
REMARK  Name = 
REMARK  6 active torsions:
REMARK  status: ('A' for Active; 'I' for Inactive)
REMARK    1  A    between atoms: O_1  and  C_2
REMARK    2  A    between atoms: C_2  and  C_3
REMARK    3  A    between atoms: C_7  and  C_8
REMARK    4  A    between atoms: C_14  and  C_17
REMARK    5  A    between atoms: C_24  and  C_25
REMARK    6  A    between atoms: C_25  and  N_26
REMARK                            x       y       z     vdW  Elec       q    Type
REMARK                         _______ _______ _______ _____ _____    ______ ____
ROOT
ATOM      1  C   UNL     1       4.587  -5.950  25.362  0.00  0.00    +0.006 A 
ATOM      2  C   UNL     1       4.609  -4.705  24.721  0.00  0.00    +0.011 A 
ATOM      3  C   UNL     1       5.699  -3.840  24.846  0.00  0.00    +0.013 A 
ATOM      4  C   UNL     1       6.796  -4.224  25.635  0.00  0.00    +0.029 A 
ATOM      5  C   UNL     1       8.081  -3.703  25.953  0.00  0.00    +0.116 A 
ATOM      6  N   UNL     1       8.726  -4.460  26.852  0.00  0.00    -0.171 NA
ATOM      7  N   UNL     1       7.916  -5.525  27.001  0.00  0.00    -0.276 N 
ATOM      8  H   UNL     1       8.222  -6.279  27.606  0.00  0.00    +0.189 HD
ATOM      9  C   UNL     1       6.750  -5.453  26.286  0.00  0.00    +0.067 A 
ATOM     10  C   UNL     1       5.684  -6.353  26.144  0.00  0.00    +0.038 A 
ENDROOT
BRANCH   5  11
ATOM     11  C   UNL     1       8.757  -2.540  25.325  0.00  0.00    +0.068 A 
ATOM     12  N   UNL     1       9.131  -2.498  24.008  0.00  0.00    -0.353 N 
ATOM     13  H   UNL     1       9.034  -3.277  23.374  0.00  0.00    +0.166 HD
ATOM     14  C   UNL     1       9.481  -1.212  23.659  0.00  0.00    +0.047 A 
ATOM     15  C   UNL     1       9.847  -0.675  22.424  0.00  0.00    +0.026 A 
ATOM     16  C   UNL     1      10.018   0.713  22.355  0.00  0.00    +0.007 A 
ATOM     17  C   UNL     1       9.831   1.547  23.468  0.00  0.00    -0.033 A 
ATOM     18  C   UNL     1       9.550   0.966  24.716  0.00  0.00    +0.015 A 
ATOM     19  C   UNL     1       9.366  -0.429  24.807  0.00  0.00    +0.001 A 
ATOM     20  C   UNL     1       9.007  -1.301  25.870  0.00  0.00    +0.037 A 
BRANCH  17  21
ATOM     21  C   UNL     1       9.886   3.060  23.299  0.00  0.00    +0.119 C 
BRANCH  21  22
ATOM     22  N   UNL     1       8.807   3.729  24.043  0.00  0.00    -0.298 NA
ATOM     23  C   UNL     1       7.518   3.755  23.356  0.00  0.00    +0.085 C 
ATOM     24  C   UNL     1       7.354   4.831  22.282  0.00  0.00    +0.015 C 
ATOM     25  C   UNL     1       7.902   6.202  22.671  0.00  0.00    +0.002 C 
ATOM     26  C   UNL     1       9.197   6.138  23.472  0.00  0.00    +0.015 C 
ATOM     27  C   UNL     1       9.159   5.057  24.552  0.00  0.00    +0.085 C 
ENDBRANCH  21  22
ENDBRANCH  17  21
ENDBRANCH   5  11
BRANCH   1  29
ATOM     28  C   UNL     1       2.083  -6.598  25.751  0.00  0.00    +0.116 A 
ATOM     29  C   UNL     1       3.395  -6.783  25.226  0.00  0.00    +0.118 A 
ATOM     30  N   UNL     1       3.385  -7.880  24.444  0.00  0.00    -0.154 NA
ATOM     31  N   UNL     1       2.120  -8.295  24.554  0.00  0.00    -0.196 N 
ATOM     32  H   UNL     1       1.803  -9.129  24.065  0.00  0.00    +0.213 HD
ATOM     33  N   UNL     1       1.273  -7.570  25.296  0.00  0.00    -0.157 NA
BRANCH  28  34
ATOM     34  C   UNL     1       1.559  -5.507  26.615  0.00  0.00    +0.215 C 
BRANCH  34  35
ATOM     35  O   UNL     1       0.792  -6.013  27.708  0.00  0.00    -0.389 OA
ATOM     36  H   UNL     1      -0.077  -6.252  27.347  0.00  0.00    +0.210 HD
ENDBRANCH  34  35
ENDBRANCH  28  34
ENDBRANCH   1  29
TORSDOF 6
ENDMDL
MODEL 5
REMARK VINA RESULT:      -7.9      3.501     10.391
REMARK  Name = 
REMARK  6 active torsions:
REMARK  status: ('A' for Active; 'I' for Inactive)
REMARK    1  A    between atoms: O_1  and  C_2
REMARK    2  A    between atoms: C_2  and  C_3
REMARK    3  A    between atoms: C_7  and  C_8
REMARK    4  A    between atoms: C_14  and  C_17
REMARK    5  A    between atoms: C_24  and  C_25
REMARK    6  A    between atoms: C_25  and  N_26
REMARK                            x       y       z     vdW  Elec       q    Type
REMARK                         _______ _______ _______ _____ _____    ______ ____
ROOT
ATOM      1  C   UNL     1       8.858   3.214  23.614  0.00  0.00    +0.006 A 
ATOM      2  C   UNL     1       7.798   2.712  22.851  0.00  0.00    +0.011 A 
ATOM      3  C   UNL     1       7.626   1.340  22.656  0.00  0.00    +0.013 A 
ATOM      4  C   UNL     1       8.539   0.442  23.234  0.00  0.00    +0.029 A 
ATOM      5  C   UNL     1       8.682  -0.969  23.344  0.00  0.00    +0.116 A 
ATOM      6  N   UNL     1       9.822  -1.316  23.959  0.00  0.00    -0.171 NA
ATOM      7  N   UNL     1      10.332  -0.136  24.357  0.00  0.00    -0.276 N 
ATOM      8  H   UNL     1      11.187  -0.144  24.904  0.00  0.00    +0.189 HD
ATOM      9  C   UNL     1       9.603   0.957  23.969  0.00  0.00    +0.067 A 
ATOM     10  C   UNL     1       9.773   2.327  24.210  0.00  0.00    +0.038 A 
ENDROOT
BRANCH   5  11
ATOM     11  C   UNL     1       7.687  -2.003  22.964  0.00  0.00    +0.068 A 
ATOM     12  N   UNL     1       8.007  -3.161  22.307  0.00  0.00    -0.353 N 
ATOM     13  H   UNL     1       8.935  -3.377  21.972  0.00  0.00    +0.166 HD
ATOM     14  C   UNL     1       6.938  -4.029  22.334  0.00  0.00    +0.047 A 
ATOM     15  C   UNL     1       6.822  -5.341  21.871  0.00  0.00    +0.026 A 
ATOM     16  C   UNL     1       5.634  -6.021  22.166  0.00  0.00    +0.007 A 
ATOM     17  C   UNL     1       4.593  -5.428  22.897  0.00  0.00    -0.033 A 
ATOM     18  C   UNL     1       4.705  -4.078  23.272  0.00  0.00    +0.015 A 
ATOM     19  C   UNL     1       5.896  -3.376  22.992  0.00  0.00    +0.001 A 
ATOM     20  C   UNL     1       6.351  -2.064  23.292  0.00  0.00    +0.037 A 
BRANCH  17  21
ATOM     21  C   UNL     1       3.389  -6.263  23.315  0.00  0.00    +0.119 C 
BRANCH  21  22
ATOM     22  N   UNL     1       3.764  -7.317  24.271  0.00  0.00    -0.298 NA
ATOM     23  C   UNL     1       2.656  -8.160  24.712  0.00  0.00    +0.085 C 
ATOM     24  C   UNL     1       1.765  -7.575  25.809  0.00  0.00    +0.015 C 
ATOM     25  C   UNL     1       2.524  -6.872  26.932  0.00  0.00    +0.002 C 
ATOM     26  C   UNL     1       3.733  -6.080  26.450  0.00  0.00    +0.015 C 
ATOM     27  C   UNL     1       4.553  -6.844  25.411  0.00  0.00    +0.085 C 
ENDBRANCH  21  22
ENDBRANCH  17  21
ENDBRANCH   5  11
BRANCH   1  29
ATOM     28  C   UNL     1      10.182   5.465  23.767  0.00  0.00    +0.116 A 
ATOM     29  C   UNL     1       9.005   4.663  23.737  0.00  0.00    +0.118 A 
ATOM     30  N   UNL     1       7.936   5.481  23.754  0.00  0.00    -0.154 NA
ATOM     31  N   UNL     1       8.504   6.689  23.814  0.00  0.00    -0.196 N 
ATOM     32  H   UNL     1       7.934   7.531  23.844  0.00  0.00    +0.213 HD
ATOM     33  N   UNL     1       9.841   6.765  23.799  0.00  0.00    -0.157 NA
BRANCH  28  34
ATOM     34  C   UNL     1      11.608   5.049  23.705  0.00  0.00    +0.215 C 
BRANCH  34  35
ATOM     35  O   UNL     1      11.993   4.654  22.389  0.00  0.00    -0.389 OA
ATOM     36  H   UNL     1      11.309   4.992  21.789  0.00  0.00    +0.210 HD
ENDBRANCH  34  35
ENDBRANCH  28  34
ENDBRANCH   1  29
TORSDOF 6
ENDMDL
MODEL 6
REMARK VINA RESULT:      -7.9      3.152     10.258
REMARK  Name = 
REMARK  6 active torsions:
REMARK  status: ('A' for Active; 'I' for Inactive)
REMARK    1  A    between atoms: O_1  and  C_2
REMARK    2  A    between atoms: C_2  and  C_3
REMARK    3  A    between atoms: C_7  and  C_8
REMARK    4  A    between atoms: C_14  and  C_17
REMARK    5  A    between atoms: C_24  and  C_25
REMARK    6  A    between atoms: C_25  and  N_26
REMARK                            x       y       z     vdW  Elec       q    Type
REMARK                         _______ _______ _______ _____ _____    ______ ____
ROOT
ATOM      1  C   UNL     1       9.567   2.650  23.315  0.00  0.00    +0.006 A 
ATOM      2  C   UNL     1       8.709   2.112  24.281  0.00  0.00    +0.011 A 
ATOM      3  C   UNL     1       8.297   0.778  24.228  0.00  0.00    +0.013 A 
ATOM      4  C   UNL     1       8.750  -0.042  23.182  0.00  0.00    +0.029 A 
ATOM      5  C   UNL     1       8.640  -1.411  22.812  0.00  0.00    +0.116 A 
ATOM      6  N   UNL     1       9.221  -1.664  21.630  0.00  0.00    -0.171 NA
ATOM      7  N   UNL     1       9.812  -0.496  21.317  0.00  0.00    -0.276 N 
ATOM      8  H   UNL     1      10.372  -0.453  20.471  0.00  0.00    +0.189 HD
ATOM      9  C   UNL     1       9.582   0.513  22.214  0.00  0.00    +0.067 A 
ATOM     10  C   UNL     1      10.039   1.838  22.268  0.00  0.00    +0.038 A 
ENDROOT
BRANCH   5  11
ATOM     11  C   UNL     1       8.079  -2.517  23.626  0.00  0.00    +0.068 A 
ATOM     12  N   UNL     1       7.679  -2.375  24.929  0.00  0.00    -0.353 N 
ATOM     13  H   UNL     1       7.792  -1.524  25.459  0.00  0.00    +0.166 HD
ATOM     14  C   UNL     1       6.965  -3.483  25.326  0.00  0.00    +0.047 A 
ATOM     15  C   UNL     1       6.298  -3.752  26.522  0.00  0.00    +0.026 A 
ATOM     16  C   UNL     1       5.537  -4.926  26.581  0.00  0.00    +0.007 A 
ATOM     17  C   UNL     1       5.431  -5.806  25.492  0.00  0.00    -0.033 A 
ATOM     18  C   UNL     1       6.184  -5.550  24.333  0.00  0.00    +0.015 A 
ATOM     19  C   UNL     1       6.953  -4.371  24.250  0.00  0.00    +0.001 A 
ATOM     20  C   UNL     1       7.745  -3.790  23.224  0.00  0.00    +0.037 A 
BRANCH  17  21
ATOM     21  C   UNL     1       4.471  -6.987  25.562  0.00  0.00    +0.119 C 
BRANCH  21  22
ATOM     22  N   UNL     1       3.067  -6.547  25.561  0.00  0.00    -0.298 NA
ATOM     23  C   UNL     1       2.093  -7.622  25.732  0.00  0.00    +0.085 C 
ATOM     24  C   UNL     1       1.769  -8.436  24.479  0.00  0.00    +0.015 C 
ATOM     25  C   UNL     1       1.592  -7.604  23.211  0.00  0.00    +0.002 C 
ATOM     26  C   UNL     1       2.560  -6.431  23.110  0.00  0.00    +0.015 C 
ATOM     27  C   UNL     1       2.707  -5.683  24.434  0.00  0.00    +0.085 C 
ENDBRANCH  21  22
ENDBRANCH  17  21
ENDBRANCH   5  11
BRANCH   1  29
ATOM     28  C   UNL     1       9.098   5.223  23.283  0.00  0.00    +0.116 A 
ATOM     29  C   UNL     1       9.919   4.065  23.405  0.00  0.00    +0.118 A 
ATOM     30  N   UNL     1      11.165   4.464  23.727  0.00  0.00    -0.154 NA
ATOM     31  N   UNL     1      11.037   5.794  23.759  0.00  0.00    -0.196 N 
ATOM     32  H   UNL     1      11.835   6.386  23.976  0.00  0.00    +0.213 HD
ATOM     33  N   UNL     1       9.829   6.324  23.530  0.00  0.00    -0.157 NA
BRANCH  28  34
ATOM     34  C   UNL     1       7.641   5.320  23.001  0.00  0.00    +0.215 C 
BRANCH  34  35
ATOM     35  O   UNL     1       7.378   5.541  21.616  0.00  0.00    -0.389 OA
ATOM     36  H   UNL     1       6.643   4.954  21.378  0.00  0.00    +0.210 HD
ENDBRANCH  34  35
ENDBRANCH  28  34
ENDBRANCH   1  29
TORSDOF 6
ENDMDL
MODEL 7
REMARK VINA RESULT:      -7.6      3.115     10.231
REMARK  Name = 
REMARK  6 active torsions:
REMARK  status: ('A' for Active; 'I' for Inactive)
REMARK    1  A    between atoms: O_1  and  C_2
REMARK    2  A    between atoms: C_2  and  C_3
REMARK    3  A    between atoms: C_7  and  C_8
REMARK    4  A    between atoms: C_14  and  C_17
REMARK    5  A    between atoms: C_24  and  C_25
REMARK    6  A    between atoms: C_25  and  N_26
REMARK                            x       y       z     vdW  Elec       q    Type
REMARK                         _______ _______ _______ _____ _____    ______ ____
ROOT
ATOM      1  C   UNL     1       9.056   3.052  23.492  0.00  0.00    +0.006 A 
ATOM      2  C   UNL     1       8.043   2.552  22.665  0.00  0.00    +0.011 A 
ATOM      3  C   UNL     1       7.811   1.180  22.544  0.00  0.00    +0.013 A 
ATOM      4  C   UNL     1       8.612   0.280  23.265  0.00  0.00    +0.029 A 
ATOM      5  C   UNL     1       8.663  -1.126  23.480  0.00  0.00    +0.116 A 
ATOM      6  N   UNL     1       9.719  -1.487  24.224  0.00  0.00    -0.171 NA
ATOM      7  N   UNL     1      10.258  -0.309  24.592  0.00  0.00    -0.276 N 
ATOM      8  H   UNL     1      11.056  -0.322  25.218  0.00  0.00    +0.189 HD
ATOM      9  C   UNL     1       9.632   0.789  24.064  0.00  0.00    +0.067 A 
ATOM     10  C   UNL     1       9.858   2.163  24.230  0.00  0.00    +0.038 A 
ENDROOT
BRANCH   5  11
ATOM     11  C   UNL     1       7.650  -2.131  23.074  0.00  0.00    +0.068 A 
ATOM     12  N   UNL     1       7.951  -3.288  22.405  0.00  0.00    -0.353 N 
ATOM     13  H   UNL     1       8.878  -3.520  22.078  0.00  0.00    +0.166 HD
ATOM     14  C   UNL     1       6.862  -4.131  22.407  0.00  0.00    +0.047 A 
ATOM     15  C   UNL     1       6.722  -5.433  21.925  0.00  0.00    +0.026 A 
ATOM     16  C   UNL     1       5.515  -6.090  22.196  0.00  0.00    +0.007 A 
ATOM     17  C   UNL     1       4.479  -5.483  22.924  0.00  0.00    -0.033 A 
ATOM     18  C   UNL     1       4.618  -4.141  23.318  0.00  0.00    +0.015 A 
ATOM     19  C   UNL     1       5.828  -3.463  23.062  0.00  0.00    +0.001 A 
ATOM     20  C   UNL     1       6.309  -2.166  23.385  0.00  0.00    +0.037 A 
BRANCH  17  21
ATOM     21  C   UNL     1       3.252  -6.296  23.315  0.00  0.00    +0.119 C 
BRANCH  21  22
ATOM     22  N   UNL     1       3.595  -7.386  24.242  0.00  0.00    -0.298 NA
ATOM     23  C   UNL     1       2.476  -8.256  24.598  0.00  0.00    +0.085 C 
ATOM     24  C   UNL     1       1.533  -7.724  25.679  0.00  0.00    +0.015 C 
ATOM     25  C   UNL     1       2.235  -7.062  26.862  0.00  0.00    +0.002 C 
ATOM     26  C   UNL     1       3.456  -6.241  26.467  0.00  0.00    +0.015 C 
ATOM     27  C   UNL     1       4.328  -6.955  25.435  0.00  0.00    +0.085 C 
ENDBRANCH  21  22
ENDBRANCH  17  21
ENDBRANCH   5  11
BRANCH   1  29
ATOM     28  C   UNL     1       8.342   5.567  23.403  0.00  0.00    +0.116 A 
ATOM     29  C   UNL     1       9.273   4.496  23.534  0.00  0.00    +0.118 A 
ATOM     30  N   UNL     1      10.482   5.019  23.811  0.00  0.00    -0.154 NA
ATOM     31  N   UNL     1      10.230   6.332  23.810  0.00  0.00    -0.196 N 
ATOM     32  H   UNL     1      10.972   7.004  23.989  0.00  0.00    +0.213 HD
ATOM     33  N   UNL     1       8.972   6.738  23.599  0.00  0.00    -0.157 NA
BRANCH  28  34
ATOM     34  C   UNL     1       6.876   5.517  23.158  0.00  0.00    +0.215 C 
BRANCH  34  35
ATOM     35  O   UNL     1       6.142   5.297  24.362  0.00  0.00    -0.389 OA
ATOM     36  H   UNL     1       6.049   4.335  24.456  0.00  0.00    +0.210 HD
ENDBRANCH  34  35
ENDBRANCH  28  34
ENDBRANCH   1  29
TORSDOF 6
ENDMDL
MODEL 8
REMARK VINA RESULT:      -7.1      2.642      3.012
REMARK  Name = 
REMARK  6 active torsions:
REMARK  status: ('A' for Active; 'I' for Inactive)
REMARK    1  A    between atoms: O_1  and  C_2
REMARK    2  A    between atoms: C_2  and  C_3
REMARK    3  A    between atoms: C_7  and  C_8
REMARK    4  A    between atoms: C_14  and  C_17
REMARK    5  A    between atoms: C_24  and  C_25
REMARK    6  A    between atoms: C_25  and  N_26
REMARK                            x       y       z     vdW  Elec       q    Type
REMARK                         _______ _______ _______ _____ _____    ______ ____
ROOT
ATOM      1  C   UNL     1       3.735  -6.292  24.093  0.00  0.00    +0.006 A 
ATOM      2  C   UNL     1       3.819  -5.003  24.633  0.00  0.00    +0.011 A 
ATOM      3  C   UNL     1       4.888  -4.156  24.332  0.00  0.00    +0.013 A 
ATOM      4  C   UNL     1       5.904  -4.606  23.473  0.00  0.00    +0.029 A 
ATOM      5  C   UNL     1       7.075  -4.065  22.873  0.00  0.00    +0.116 A 
ATOM      6  N   UNL     1       7.756  -4.983  22.172  0.00  0.00    -0.171 NA
ATOM      7  N   UNL     1       6.954  -6.064  22.214  0.00  0.00    -0.276 N 
ATOM      8  H   UNL     1       7.237  -6.890  21.697  0.00  0.00    +0.189 HD
ATOM      9  C   UNL     1       5.820  -5.899  22.964  0.00  0.00    +0.067 A 
ATOM     10  C   UNL     1       4.738  -6.752  23.221  0.00  0.00    +0.038 A 
ENDROOT
BRANCH   5  11
ATOM     11  C   UNL     1       7.503  -2.644  22.866  0.00  0.00    +0.068 A 
ATOM     12  N   UNL     1       8.632  -2.193  22.236  0.00  0.00    -0.353 N 
ATOM     13  H   UNL     1       9.298  -2.799  21.779  0.00  0.00    +0.166 HD
ATOM     14  C   UNL     1       8.621  -0.817  22.176  0.00  0.00    +0.047 A 
ATOM     15  C   UNL     1       9.507   0.072  21.566  0.00  0.00    +0.026 A 
ATOM     16  C   UNL     1       9.153   1.427  21.560  0.00  0.00    +0.007 A 
ATOM     17  C   UNL     1       7.959   1.891  22.135  0.00  0.00    -0.033 A 
ATOM     18  C   UNL     1       7.132   0.983  22.817  0.00  0.00    +0.015 A 
ATOM     19  C   UNL     1       7.466  -0.387  22.829  0.00  0.00    +0.001 A 
ATOM     20  C   UNL     1       6.826  -1.545  23.347  0.00  0.00    +0.037 A 
BRANCH  17  21
ATOM     21  C   UNL     1       7.555   3.351  21.968  0.00  0.00    +0.119 C 
BRANCH  21  22
ATOM     22  N   UNL     1       6.969   3.897  23.202  0.00  0.00    -0.298 NA
ATOM     23  C   UNL     1       5.822   4.777  22.993  0.00  0.00    +0.085 C 
ATOM     24  C   UNL     1       6.149   6.216  22.590  0.00  0.00    +0.015 C 
ATOM     25  C   UNL     1       7.307   6.842  23.363  0.00  0.00    +0.002 C 
ATOM     26  C   UNL     1       8.446   5.871  23.651  0.00  0.00    +0.015 C 
ATOM     27  C   UNL     1       7.941   4.505  24.114  0.00  0.00    +0.085 C 
ENDBRANCH  21  22
ENDBRANCH  17  21
ENDBRANCH   5  11
BRANCH   1  29
ATOM     28  C   UNL     1       1.530  -7.648  23.712  0.00  0.00    +0.116 A 
ATOM     29  C   UNL     1       2.613  -7.141  24.488  0.00  0.00    +0.118 A 
ATOM     30  N   UNL     1       2.520  -7.655  25.729  0.00  0.00    -0.154 NA
ATOM     31  N   UNL     1       1.412  -8.399  25.645  0.00  0.00    -0.196 N 
ATOM     32  H   UNL     1       1.075  -8.920  26.451  0.00  0.00    +0.213 HD
ATOM     33  N   UNL     1       0.778  -8.466  24.468  0.00  0.00    -0.157 NA
BRANCH  28  34
ATOM     34  C   UNL     1       1.219  -7.431  22.274  0.00  0.00    +0.215 C 
BRANCH  34  35
ATOM     35  O   UNL     1       1.571  -8.561  21.476  0.00  0.00    -0.389 OA
ATOM     36  H   UNL     1       0.762  -8.833  21.012  0.00  0.00    +0.210 HD
ENDBRANCH  34  35
ENDBRANCH  28  34
ENDBRANCH   1  29
TORSDOF 6
ENDMDL
MODEL 9
REMARK VINA RESULT:      -7.1      3.333     10.064
REMARK  Name = 
REMARK  6 active torsions:
REMARK  status: ('A' for Active; 'I' for Inactive)
REMARK    1  A    between atoms: O_1  and  C_2
REMARK    2  A    between atoms: C_2  and  C_3
REMARK    3  A    between atoms: C_7  and  C_8
REMARK    4  A    between atoms: C_14  and  C_17
REMARK    5  A    between atoms: C_24  and  C_25
REMARK    6  A    between atoms: C_25  and  N_26
REMARK                            x       y       z     vdW  Elec       q    Type
REMARK                         _______ _______ _______ _____ _____    ______ ____
ROOT
ATOM      1  C   UNL     1       7.307   3.271  23.142  0.00  0.00    +0.006 A 
ATOM      2  C   UNL     1       6.579   2.147  22.733  0.00  0.00    +0.011 A 
ATOM      3  C   UNL     1       6.978   0.854  23.080  0.00  0.00    +0.013 A 
ATOM      4  C   UNL     1       8.137   0.675  23.853  0.00  0.00    +0.029 A 
ATOM      5  C   UNL     1       8.822  -0.412  24.463  0.00  0.00    +0.116 A 
ATOM      6  N   UNL     1       9.969  -0.027  25.042  0.00  0.00    -0.171 NA
ATOM      7  N   UNL     1       9.945   1.313  24.920  0.00  0.00    -0.276 N 
ATOM      8  H   UNL     1      10.699   1.846  25.340  0.00  0.00    +0.189 HD
ATOM      9  C   UNL     1       8.865   1.799  24.231  0.00  0.00    +0.067 A 
ATOM     10  C   UNL     1       8.463   3.107  23.927  0.00  0.00    +0.038 A 
ENDROOT
BRANCH   5  11
ATOM     11  C   UNL     1       8.344  -1.810  24.598  0.00  0.00    +0.068 A 
ATOM     12  N   UNL     1       8.206  -2.455  25.799  0.00  0.00    -0.353 N 
ATOM     13  H   UNL     1       8.480  -2.053  26.684  0.00  0.00    +0.166 HD
ATOM     14  C   UNL     1       7.499  -3.624  25.629  0.00  0.00    +0.047 A 
ATOM     15  C   UNL     1       7.051  -4.557  26.564  0.00  0.00    +0.026 A 
ATOM     16  C   UNL     1       6.229  -5.589  26.095  0.00  0.00    +0.007 A 
ATOM     17  C   UNL     1       5.856  -5.696  24.746  0.00  0.00    -0.033 A 
ATOM     18  C   UNL     1       6.396  -4.792  23.816  0.00  0.00    +0.015 A 
ATOM     19  C   UNL     1       7.220  -3.740  24.267  0.00  0.00    +0.001 A 
ATOM     20  C   UNL     1       7.847  -2.642  23.620  0.00  0.00    +0.037 A 
BRANCH  17  21
ATOM     21  C   UNL     1       4.842  -6.751  24.321  0.00  0.00    +0.119 C 
BRANCH  21  22
ATOM     22  N   UNL     1       3.550  -6.567  25.001  0.00  0.00    -0.298 NA
ATOM     23  C   UNL     1       2.730  -7.773  25.084  0.00  0.00    +0.085 C 
ATOM     24  C   UNL     1       1.940  -8.134  23.825  0.00  0.00    +0.015 C 
ATOM     25  C   UNL     1       1.270  -6.948  23.136  0.00  0.00    +0.002 C 
ATOM     26  C   UNL     1       2.111  -5.678  23.151  0.00  0.00    +0.015 C 
ATOM     27  C   UNL     1       2.767  -5.430  24.509  0.00  0.00    +0.085 C 
ENDBRANCH  21  22
ENDBRANCH  17  21
ENDBRANCH   5  11
BRANCH   1  29
ATOM     28  C   UNL     1       5.737   5.363  23.123  0.00  0.00    +0.116 A 
ATOM     29  C   UNL     1       6.859   4.590  22.703  0.00  0.00    +0.118 A 
ATOM     30  N   UNL     1       7.574   5.324  21.830  0.00  0.00    -0.154 NA
ATOM     31  N   UNL     1       6.859   6.451  21.755  0.00  0.00    -0.196 N 
ATOM     32  H   UNL     1       7.156   7.215  21.153  0.00  0.00    +0.213 HD
ATOM     33  N   UNL     1       5.763   6.562  22.516  0.00  0.00    -0.157 NA
BRANCH  28  34
ATOM     34  C   UNL     1       4.682   5.030  24.116  0.00  0.00    +0.215 C 
BRANCH  34  35
ATOM     35  O   UNL     1       5.151   5.162  25.458  0.00  0.00    -0.389 OA
ATOM     36  H   UNL     1       5.743   5.932  25.468  0.00  0.00    +0.210 HD
ENDBRANCH  34  35
ENDBRANCH  28  34
ENDBRANCH   1  29
TORSDOF 6
ENDMDL
