MODEL 1
REMARK VINA RESULT:      -8.0      0.000      0.000
REMARK  Name = 
REMARK  4 active torsions:
REMARK  status: ('A' for Active; 'I' for Inactive)
REMARK    1  A    between atoms: C_2  and  C_3
REMARK    2  A    between atoms: N_5  and  C_9
REMARK    3  A    between atoms: N_15  and  C_16
REMARK    4  A    between atoms: C_17  and  C_18
REMARK                            x       y       z     vdW  Elec       q    Type
REMARK                         _______ _______ _______ _____ _____    ______ ____
ROOT
ATOM      1  C   UNL     1       7.011  -0.078  24.406  0.00  0.00    +0.032 A 
ATOM      2  C   UNL     1       7.944  -1.129  24.447  0.00  0.00    +0.051 A 
ATOM      3  C   UNL     1       7.629  -2.333  25.090  0.00  0.00    +0.075 A 
ATOM      4  C   UNL     1       6.402  -2.522  25.729  0.00  0.00    +0.090 A 
ATOM      5  N   UNL     1       6.010  -3.734  26.317  0.00  0.00    -0.228 NA
ATOM      6  C   UNL     1       6.765  -4.797  26.234  0.00  0.00    +0.149 A 
ATOM      7  C   UNL     1       8.080  -4.643  25.659  0.00  0.00    +0.106 A 
ATOM      8  C   UNL     1       9.133  -5.504  25.448  0.00  0.00    +0.142 A 
ATOM      9  N   UNL     1      10.159  -4.868  24.791  0.00  0.00    -0.243 NA
ATOM     10  C   UNL     1       9.731  -3.639  24.590  0.00  0.00    +0.204 A 
ATOM     11  N   UNL     1       6.298  -6.022  26.651  0.00  0.00    -0.296 N 
ATOM     12  H   UNL     1       6.962  -6.646  27.093  0.00  0.00    +0.154 HD
ATOM     13  C   UNL     1       5.472  -1.495  25.693  0.00  0.00    +0.032 A 
ATOM     14  N   UNL     1       8.478  -3.449  25.105  0.00  0.00    -0.294 N 
ATOM     15  C   UNL     1       5.769  -0.306  25.025  0.00  0.00    +0.025 A 
ENDROOT
BRANCH   1  22
ATOM     16  C   UNL     1       8.338   1.731  21.620  0.00  0.00    +0.068 C 
ATOM     17  C   UNL     1       9.190   0.478  21.400  0.00  0.00    +0.025 C 
ATOM     18  N   UNL     1       9.114   2.810  22.276  0.00  0.00    -0.311 NA
ATOM     19  H   UNL     1      10.025   2.896  21.831  0.00  0.00    +0.122 HD
ATOM     20  C   UNL     1       9.305   2.533  23.711  0.00  0.00    +0.100 C 
ATOM     21  C   UNL     1       8.008   2.201  24.476  0.00  0.00    +0.120 C 
ATOM     22  N   UNL     1       7.269   1.128  23.787  0.00  0.00    -0.327 N 
ATOM     23  C   UNL     1       7.017   1.400  22.364  0.00  0.00    +0.123 C 
ENDBRANCH   1  22
BRANCH  11  24
ATOM     24  C   UNL     1       4.944  -6.406  26.814  0.00  0.00    +0.054 A 
ATOM     25  C   UNL     1       4.391  -6.415  28.116  0.00  0.00    +0.062 A 
ATOM     26 CL   UNL     1       5.378  -6.049  29.495  0.00  0.00    -0.082 Cl
ATOM     27  C   UNL     1       3.047  -6.725  28.347  0.00  0.00    +0.022 A 
ATOM     28  C   UNL     1       2.210  -7.007  27.275  0.00  0.00    +0.002 A 
ATOM     29  C   UNL     1       2.724  -7.012  25.984  0.00  0.00    +0.005 A 
ATOM     30  C   UNL     1       4.088  -6.750  25.738  0.00  0.00    -0.028 A 
ATOM     31  C   UNL     1       4.535  -6.900  24.305  0.00  0.00    +0.046 C 
ENDBRANCH  11  24
TORSDOF 2
ENDMDL
MODEL 2
REMARK VINA RESULT:      -8.0      2.199      3.153
REMARK  Name = 
REMARK  4 active torsions:
REMARK  status: ('A' for Active; 'I' for Inactive)
REMARK    1  A    between atoms: C_2  and  C_3
REMARK    2  A    between atoms: N_5  and  C_9
REMARK    3  A    between atoms: N_15  and  C_16
REMARK    4  A    between atoms: C_17  and  C_18
REMARK                            x       y       z     vdW  Elec       q    Type
REMARK                         _______ _______ _______ _____ _____    ______ ____
ROOT
ATOM      1  C   UNL     1       9.202  -1.393  23.906  0.00  0.00    +0.032 A 
ATOM      2  C   UNL     1       8.564  -2.465  23.258  0.00  0.00    +0.051 A 
ATOM      3  C   UNL     1       7.806  -3.388  23.990  0.00  0.00    +0.075 A 
ATOM      4  C   UNL     1       7.679  -3.292  25.378  0.00  0.00    +0.090 A 
ATOM      5  N   UNL     1       6.869  -4.143  26.144  0.00  0.00    -0.228 NA
ATOM      6  C   UNL     1       6.118  -5.049  25.576  0.00  0.00    +0.149 A 
ATOM      7  C   UNL     1       6.268  -5.250  24.155  0.00  0.00    +0.106 A 
ATOM      8  C   UNL     1       5.692  -6.112  23.250  0.00  0.00    +0.142 A 
ATOM      9  N   UNL     1       6.135  -5.850  21.976  0.00  0.00    -0.243 NA
ATOM     10  C   UNL     1       6.960  -4.831  22.100  0.00  0.00    +0.204 A 
ATOM     11  N   UNL     1       5.194  -5.754  26.312  0.00  0.00    -0.296 N 
ATOM     12  H   UNL     1       5.049  -6.726  26.067  0.00  0.00    +0.154 HD
ATOM     13  C   UNL     1       8.300  -2.239  26.028  0.00  0.00    +0.032 A 
ATOM     14  N   UNL     1       7.082  -4.435  23.404  0.00  0.00    -0.294 N 
ATOM     15  C   UNL     1       9.029  -1.298  25.298  0.00  0.00    +0.025 A 
ENDROOT
BRANCH   1  22
ATOM     16  C   UNL     1      10.344   1.981  23.576  0.00  0.00    +0.068 C 
ATOM     17  C   UNL     1       9.069   2.332  24.347  0.00  0.00    +0.025 C 
ATOM     18  N   UNL     1      10.189   2.233  22.124  0.00  0.00    -0.311 NA
ATOM     19  H   UNL     1       9.750   3.139  21.977  0.00  0.00    +0.122 HD
ATOM     20  C   UNL     1       9.365   1.191  21.485  0.00  0.00    +0.100 C 
ATOM     21  C   UNL     1       9.818  -0.253  21.781  0.00  0.00    +0.120 C 
ATOM     22  N   UNL     1       9.961  -0.456  23.234  0.00  0.00    -0.327 N 
ATOM     23  C   UNL     1      10.821   0.539  23.890  0.00  0.00    +0.123 C 
ENDBRANCH   1  22
BRANCH  11  24
ATOM     24  C   UNL     1       4.637  -5.382  27.561  0.00  0.00    +0.054 A 
ATOM     25  C   UNL     1       3.474  -4.575  27.573  0.00  0.00    +0.062 A 
ATOM     26 CL   UNL     1       2.797  -3.983  26.090  0.00  0.00    -0.082 Cl
ATOM     27  C   UNL     1       2.834  -4.218  28.764  0.00  0.00    +0.022 A 
ATOM     28  C   UNL     1       3.325  -4.682  29.977  0.00  0.00    +0.002 A 
ATOM     29  C   UNL     1       4.470  -5.472  29.999  0.00  0.00    +0.005 A 
ATOM     30  C   UNL     1       5.155  -5.800  28.811  0.00  0.00    -0.028 A 
ATOM     31  C   UNL     1       6.443  -6.565  28.989  0.00  0.00    +0.046 C 
ENDBRANCH  11  24
TORSDOF 2
ENDMDL
MODEL 3
REMARK VINA RESULT:      -7.9      2.106      3.018
REMARK  Name = 
REMARK  4 active torsions:
REMARK  status: ('A' for Active; 'I' for Inactive)
REMARK    1  A    between atoms: C_2  and  C_3
REMARK    2  A    between atoms: N_5  and  C_9
REMARK    3  A    between atoms: N_15  and  C_16
REMARK    4  A    between atoms: C_17  and  C_18
REMARK                            x       y       z     vdW  Elec       q    Type
REMARK                         _______ _______ _______ _____ _____    ______ ____
ROOT
ATOM      1  C   UNL     1       9.210  -1.283  24.051  0.00  0.00    +0.032 A 
ATOM      2  C   UNL     1       8.565  -2.390  23.471  0.00  0.00    +0.051 A 
ATOM      3  C   UNL     1       7.806  -3.264  24.261  0.00  0.00    +0.075 A 
ATOM      4  C   UNL     1       7.684  -3.085  25.641  0.00  0.00    +0.090 A 
ATOM      5  N   UNL     1       6.874  -3.885  26.460  0.00  0.00    -0.228 NA
ATOM      6  C   UNL     1       6.118  -4.820  25.950  0.00  0.00    +0.149 A 
ATOM      7  C   UNL     1       6.262  -5.107  24.543  0.00  0.00    +0.106 A 
ATOM      8  C   UNL     1       5.679  -6.020  23.693  0.00  0.00    +0.142 A 
ATOM      9  N   UNL     1       6.119  -5.837  22.405  0.00  0.00    -0.243 NA
ATOM     10  C   UNL     1       6.948  -4.815  22.464  0.00  0.00    +0.204 A 
ATOM     11  N   UNL     1       5.194  -5.476  26.730  0.00  0.00    -0.296 N 
ATOM     12  H   UNL     1       5.045  -6.460  26.545  0.00  0.00    +0.154 HD
ATOM     13  C   UNL     1       8.312  -1.996  26.224  0.00  0.00    +0.032 A 
ATOM     14  N   UNL     1       7.076  -4.341  23.741  0.00  0.00    -0.294 N 
ATOM     15  C   UNL     1       9.042  -1.104  25.436  0.00  0.00    +0.025 A 
ENDROOT
BRANCH   1  22
ATOM     16  C   UNL     1      10.358   2.061  23.511  0.00  0.00    +0.068 C 
ATOM     17  C   UNL     1       9.085   2.463  24.261  0.00  0.00    +0.025 C 
ATOM     18  N   UNL     1      10.201   2.223  22.046  0.00  0.00    -0.311 NA
ATOM     19  H   UNL     1       9.764   3.119  21.845  0.00  0.00    +0.122 HD
ATOM     20  C   UNL     1       9.373   1.145  21.475  0.00  0.00    +0.100 C 
ATOM     21  C   UNL     1       9.824  -0.279  21.859  0.00  0.00    +0.120 C 
ATOM     22  N   UNL     1       9.969  -0.392  23.322  0.00  0.00    -0.327 N 
ATOM     23  C   UNL     1      10.833   0.640  23.914  0.00  0.00    +0.123 C 
ENDBRANCH   1  22
BRANCH  11  24
ATOM     24  C   UNL     1       4.643  -5.027  27.956  0.00  0.00    +0.054 A 
ATOM     25  C   UNL     1       5.179  -5.528  29.167  0.00  0.00    +0.062 A 
ATOM     26 CL   UNL     1       6.425  -6.733  29.146  0.00  0.00    -0.082 Cl
ATOM     27  C   UNL     1       4.727  -5.085  30.414  0.00  0.00    +0.022 A 
ATOM     28  C   UNL     1       3.743  -4.107  30.485  0.00  0.00    +0.002 A 
ATOM     29  C   UNL     1       3.193  -3.599  29.313  0.00  0.00    +0.005 A 
ATOM     30  C   UNL     1       3.602  -4.070  28.049  0.00  0.00    -0.028 A 
ATOM     31  C   UNL     1       2.844  -3.517  26.868  0.00  0.00    +0.046 C 
ENDBRANCH  11  24
TORSDOF 2
ENDMDL
MODEL 4
REMARK VINA RESULT:      -7.9      1.127      1.684
REMARK  Name = 
REMARK  4 active torsions:
REMARK  status: ('A' for Active; 'I' for Inactive)
REMARK    1  A    between atoms: C_2  and  C_3
REMARK    2  A    between atoms: N_5  and  C_9
REMARK    3  A    between atoms: N_15  and  C_16
REMARK    4  A    between atoms: C_17  and  C_18
REMARK                            x       y       z     vdW  Elec       q    Type
REMARK                         _______ _______ _______ _____ _____    ______ ____
ROOT
ATOM      1  C   UNL     1       7.159  -0.017  24.445  0.00  0.00    +0.032 A 
ATOM      2  C   UNL     1       8.056  -1.099  24.490  0.00  0.00    +0.051 A 
ATOM      3  C   UNL     1       7.674  -2.313  25.075  0.00  0.00    +0.075 A 
ATOM      4  C   UNL     1       6.414  -2.483  25.652  0.00  0.00    +0.090 A 
ATOM      5  N   UNL     1       5.957  -3.701  26.179  0.00  0.00    -0.228 NA
ATOM      6  C   UNL     1       6.682  -4.784  26.093  0.00  0.00    +0.149 A 
ATOM      7  C   UNL     1       8.026  -4.655  25.582  0.00  0.00    +0.106 A 
ATOM      8  C   UNL     1       9.060  -5.542  25.388  0.00  0.00    +0.142 A 
ATOM      9  N   UNL     1      10.134  -4.919  24.800  0.00  0.00    -0.243 NA
ATOM     10  C   UNL     1       9.754  -3.670  24.623  0.00  0.00    +0.204 A 
ATOM     11  N   UNL     1       6.158  -6.007  26.445  0.00  0.00    -0.296 N 
ATOM     12  H   UNL     1       6.781  -6.667  26.893  0.00  0.00    +0.154 HD
ATOM     13  C   UNL     1       5.519  -1.426  25.612  0.00  0.00    +0.032 A 
ATOM     14  N   UNL     1       8.486  -3.456  25.089  0.00  0.00    -0.294 N 
ATOM     15  C   UNL     1       5.884  -0.225  25.000  0.00  0.00    +0.025 A 
ENDROOT
BRANCH   1  22
ATOM     16  C   UNL     1       8.547   1.844  21.723  0.00  0.00    +0.068 C 
ATOM     17  C   UNL     1       9.312   0.552  21.423  0.00  0.00    +0.025 C 
ATOM     18  N   UNL     1       9.404   2.836  22.415  0.00  0.00    -0.311 NA
ATOM     19  H   UNL     1      10.310   2.886  21.955  0.00  0.00    +0.122 HD
ATOM     20  C   UNL     1       9.604   2.475  23.830  0.00  0.00    +0.100 C 
ATOM     21  C   UNL     1       8.302   2.188  24.606  0.00  0.00    +0.120 C 
ATOM     22  N   UNL     1       7.483   1.200  23.881  0.00  0.00    -0.327 N 
ATOM     23  C   UNL     1       7.223   1.559  22.480  0.00  0.00    +0.123 C 
ENDBRANCH   1  22
BRANCH  11  24
ATOM     24  C   UNL     1       4.786  -6.351  26.533  0.00  0.00    +0.054 A 
ATOM     25  C   UNL     1       4.109  -6.753  25.357  0.00  0.00    +0.062 A 
ATOM     26 CL   UNL     1       4.921  -6.740  23.825  0.00  0.00    -0.082 Cl
ATOM     27  C   UNL     1       2.773  -7.164  25.378  0.00  0.00    +0.022 A 
ATOM     28  C   UNL     1       2.083  -7.211  26.583  0.00  0.00    +0.002 A 
ATOM     29  C   UNL     1       2.719  -6.817  27.755  0.00  0.00    +0.005 A 
ATOM     30  C   UNL     1       4.051  -6.352  27.744  0.00  0.00    -0.028 A 
ATOM     31  C   UNL     1       4.579  -5.850  29.064  0.00  0.00    +0.046 C 
ENDBRANCH  11  24
TORSDOF 2
ENDMDL
MODEL 5
REMARK VINA RESULT:      -7.3      2.957      8.281
REMARK  Name = 
REMARK  4 active torsions:
REMARK  status: ('A' for Active; 'I' for Inactive)
REMARK    1  A    between atoms: C_2  and  C_3
REMARK    2  A    between atoms: N_5  and  C_9
REMARK    3  A    between atoms: N_15  and  C_16
REMARK    4  A    between atoms: C_17  and  C_18
REMARK                            x       y       z     vdW  Elec       q    Type
REMARK                         _______ _______ _______ _____ _____    ______ ____
ROOT
ATOM      1  C   UNL     1       5.611  -5.145  27.068  0.00  0.00    +0.032 A 
ATOM      2  C   UNL     1       5.498  -5.245  25.671  0.00  0.00    +0.051 A 
ATOM      3  C   UNL     1       5.869  -4.173  24.850  0.00  0.00    +0.075 A 
ATOM      4  C   UNL     1       6.337  -2.970  25.384  0.00  0.00    +0.090 A 
ATOM      5  N   UNL     1       6.794  -1.898  24.603  0.00  0.00    -0.228 NA
ATOM      6  C   UNL     1       6.873  -1.999  23.303  0.00  0.00    +0.149 A 
ATOM      7  C   UNL     1       6.328  -3.186  22.687  0.00  0.00    +0.106 A 
ATOM      8  C   UNL     1       6.203  -3.610  21.383  0.00  0.00    +0.142 A 
ATOM      9  N   UNL     1       5.663  -4.871  21.331  0.00  0.00    -0.243 NA
ATOM     10  C   UNL     1       5.474  -5.220  22.587  0.00  0.00    +0.204 A 
ATOM     11  N   UNL     1       7.490  -1.019  22.561  0.00  0.00    -0.296 N 
ATOM     12  H   UNL     1       7.095  -0.806  21.653  0.00  0.00    +0.154 HD
ATOM     13  C   UNL     1       6.457  -2.860  26.760  0.00  0.00    +0.032 A 
ATOM     14  N   UNL     1       5.854  -4.228  23.449  0.00  0.00    -0.294 N 
ATOM     15  C   UNL     1       6.119  -3.938  27.580  0.00  0.00    +0.025 A 
ENDROOT
BRANCH   1  22
ATOM     16  C   UNL     1       3.268  -6.573  29.364  0.00  0.00    +0.068 C 
ATOM     17  C   UNL     1       2.790  -5.130  29.545  0.00  0.00    +0.025 C 
ATOM     18  N   UNL     1       4.137  -7.004  30.485  0.00  0.00    -0.311 NA
ATOM     19  H   UNL     1       3.721  -6.722  31.369  0.00  0.00    +0.122 HD
ATOM     20  C   UNL     1       5.482  -6.410  30.377  0.00  0.00    +0.100 C 
ATOM     21  C   UNL     1       6.160  -6.608  29.005  0.00  0.00    +0.120 C 
ATOM     22  N   UNL     1       5.260  -6.170  27.923  0.00  0.00    -0.327 N 
ATOM     23  C   UNL     1       3.926  -6.786  27.975  0.00  0.00    +0.123 C 
ENDBRANCH   1  22
BRANCH  11  24
ATOM     24  C   UNL     1       8.423  -0.059  23.026  0.00  0.00    +0.054 A 
ATOM     25  C   UNL     1       7.951   1.219  23.409  0.00  0.00    +0.062 A 
ATOM     26 CL   UNL     1       6.276   1.630  23.227  0.00  0.00    -0.082 Cl
ATOM     27  C   UNL     1       8.803   2.195  23.934  0.00  0.00    +0.022 A 
ATOM     28  C   UNL     1      10.151   1.909  24.117  0.00  0.00    +0.002 A 
ATOM     29  C   UNL     1      10.646   0.664  23.745  0.00  0.00    +0.005 A 
ATOM     30  C   UNL     1       9.810  -0.314  23.169  0.00  0.00    -0.028 A 
ATOM     31  C   UNL     1      10.498  -1.574  22.708  0.00  0.00    +0.046 C 
ENDBRANCH  11  24
TORSDOF 2
ENDMDL
MODEL 6
REMARK VINA RESULT:      -7.2      3.012      8.092
REMARK  Name = 
REMARK  4 active torsions:
REMARK  status: ('A' for Active; 'I' for Inactive)
REMARK    1  A    between atoms: C_2  and  C_3
REMARK    2  A    between atoms: N_5  and  C_9
REMARK    3  A    between atoms: N_15  and  C_16
REMARK    4  A    between atoms: C_17  and  C_18
REMARK                            x       y       z     vdW  Elec       q    Type
REMARK                         _______ _______ _______ _____ _____    ______ ____
ROOT
ATOM      1  C   UNL     1       4.164  -5.828  23.854  0.00  0.00    +0.032 A 
ATOM      2  C   UNL     1       5.288  -5.760  24.696  0.00  0.00    +0.051 A 
ATOM      3  C   UNL     1       6.227  -4.732  24.545  0.00  0.00    +0.075 A 
ATOM      4  C   UNL     1       6.096  -3.762  23.548  0.00  0.00    +0.090 A 
ATOM      5  N   UNL     1       6.966  -2.670  23.407  0.00  0.00    -0.228 NA
ATOM      6  C   UNL     1       7.927  -2.461  24.266  0.00  0.00    +0.149 A 
ATOM      7  C   UNL     1       8.164  -3.472  25.269  0.00  0.00    +0.106 A 
ATOM      8  C   UNL     1       9.083  -3.609  26.284  0.00  0.00    +0.142 A 
ATOM      9  N   UNL     1       8.837  -4.745  27.015  0.00  0.00    -0.243 NA
ATOM     10  C   UNL     1       7.772  -5.288  26.462  0.00  0.00    +0.204 A 
ATOM     11  N   UNL     1       8.658  -1.296  24.229  0.00  0.00    -0.296 N 
ATOM     12  H   UNL     1       9.644  -1.359  24.454  0.00  0.00    +0.154 HD
ATOM     13  C   UNL     1       4.991  -3.815  22.714  0.00  0.00    +0.032 A 
ATOM     14  N   UNL     1       7.329  -4.558  25.393  0.00  0.00    -0.294 N 
ATOM     15  C   UNL     1       4.036  -4.820  22.882  0.00  0.00    +0.025 A 
ENDROOT
BRANCH   1  22
ATOM     16  C   UNL     1       0.727  -6.814  23.751  0.00  0.00    +0.068 C 
ATOM     17  C   UNL     1       0.448  -5.344  24.076  0.00  0.00    +0.025 C 
ATOM     18  N   UNL     1       0.601  -7.671  24.954  0.00  0.00    -0.311 NA
ATOM     19  H   UNL     1      -0.242  -7.423  25.465  0.00  0.00    +0.122 HD
ATOM     20  C   UNL     1       1.766  -7.516  25.845  0.00  0.00    +0.100 C 
ATOM     21  C   UNL     1       3.131  -7.686  25.147  0.00  0.00    +0.120 C 
ATOM     22  N   UNL     1       3.209  -6.818  23.959  0.00  0.00    -0.327 N 
ATOM     23  C   UNL     1       2.087  -6.989  23.025  0.00  0.00    +0.123 C 
ENDBRANCH   1  22
BRANCH  11  24
ATOM     24  C   UNL     1       8.278  -0.072  23.625  0.00  0.00    +0.054 A 
ATOM     25  C   UNL     1       8.762   0.226  22.329  0.00  0.00    +0.062 A 
ATOM     26 CL   UNL     1       9.868  -0.846  21.533  0.00  0.00    -0.082 Cl
ATOM     27  C   UNL     1       8.381   1.386  21.646  0.00  0.00    +0.022 A 
ATOM     28  C   UNL     1       7.482   2.268  22.232  0.00  0.00    +0.002 A 
ATOM     29  C   UNL     1       6.994   2.007  23.507  0.00  0.00    +0.005 A 
ATOM     30  C   UNL     1       7.406   0.867  24.229  0.00  0.00    -0.028 A 
ATOM     31  C   UNL     1       6.888   0.765  25.642  0.00  0.00    +0.046 C 
ENDBRANCH  11  24
TORSDOF 2
ENDMDL
MODEL 7
REMARK VINA RESULT:      -7.2      1.882      2.301
REMARK  Name = 
REMARK  4 active torsions:
REMARK  status: ('A' for Active; 'I' for Inactive)
REMARK    1  A    between atoms: C_2  and  C_3
REMARK    2  A    between atoms: N_5  and  C_9
REMARK    3  A    between atoms: N_15  and  C_16
REMARK    4  A    between atoms: C_17  and  C_18
REMARK                            x       y       z     vdW  Elec       q    Type
REMARK                         _______ _______ _______ _____ _____    ______ ____
ROOT
ATOM      1  C   UNL     1       6.997  -0.323  24.150  0.00  0.00    +0.032 A 
ATOM      2  C   UNL     1       7.104  -1.484  23.365  0.00  0.00    +0.051 A 
ATOM      3  C   UNL     1       6.810  -2.740  23.911  0.00  0.00    +0.075 A 
ATOM      4  C   UNL     1       6.429  -2.886  25.247  0.00  0.00    +0.090 A 
ATOM      5  N   UNL     1       6.049  -4.110  25.818  0.00  0.00    -0.228 NA
ATOM      6  C   UNL     1       5.964  -5.193  25.092  0.00  0.00    +0.149 A 
ATOM      7  C   UNL     1       6.424  -5.123  23.725  0.00  0.00    +0.106 A 
ATOM      8  C   UNL     1       6.520  -6.043  22.706  0.00  0.00    +0.142 A 
ATOM      9  N   UNL     1       6.969  -5.447  21.553  0.00  0.00    -0.243 NA
ATOM     10  C   UNL     1       7.132  -4.176  21.861  0.00  0.00    +0.204 A 
ATOM     11  N   UNL     1       5.419  -6.344  25.613  0.00  0.00    -0.296 N 
ATOM     12  H   UNL     1       5.828  -7.224  25.324  0.00  0.00    +0.154 HD
ATOM     13  C   UNL     1       6.316  -1.749  26.031  0.00  0.00    +0.032 A 
ATOM     14  N   UNL     1       6.822  -3.930  23.170  0.00  0.00    -0.294 N 
ATOM     15  C   UNL     1       6.576  -0.492  25.481  0.00  0.00    +0.025 A 
ENDROOT
BRANCH   1  22
ATOM     16  C   UNL     1       8.803   1.774  21.884  0.00  0.00    +0.068 C 
ATOM     17  C   UNL     1       9.816   0.626  21.860  0.00  0.00    +0.025 C 
ATOM     18  N   UNL     1       9.255   2.881  22.760  0.00  0.00    -0.311 NA
ATOM     19  H   UNL     1      10.236   3.083  22.580  0.00  0.00    +0.122 HD
ATOM     20  C   UNL     1       9.090   2.537  24.184  0.00  0.00    +0.100 C 
ATOM     21  C   UNL     1       7.682   2.034  24.561  0.00  0.00    +0.120 C 
ATOM     22  N   UNL     1       7.274   0.938  23.664  0.00  0.00    -0.327 N 
ATOM     23  C   UNL     1       7.378   1.271  22.235  0.00  0.00    +0.123 C 
ENDBRANCH   1  22
BRANCH  11  24
ATOM     24  C   UNL     1       4.556  -6.446  26.732  0.00  0.00    +0.054 A 
ATOM     25  C   UNL     1       3.159  -6.494  26.511  0.00  0.00    +0.062 A 
ATOM     26 CL   UNL     1       2.515  -6.343  24.908  0.00  0.00    -0.082 Cl
ATOM     27  C   UNL     1       2.249  -6.655  27.561  0.00  0.00    +0.022 A 
ATOM     28  C   UNL     1       2.714  -6.799  28.861  0.00  0.00    +0.002 A 
ATOM     29  C   UNL     1       4.081  -6.750  29.112  0.00  0.00    +0.005 A 
ATOM     30  C   UNL     1       5.009  -6.539  28.071  0.00  0.00    -0.028 A 
ATOM     31  C   UNL     1       6.449  -6.394  28.497  0.00  0.00    +0.046 C 
ENDBRANCH  11  24
TORSDOF 2
ENDMDL
MODEL 8
REMARK VINA RESULT:      -7.1      2.947      8.233
REMARK  Name = 
REMARK  4 active torsions:
REMARK  status: ('A' for Active; 'I' for Inactive)
REMARK    1  A    between atoms: C_2  and  C_3
REMARK    2  A    between atoms: N_5  and  C_9
REMARK    3  A    between atoms: N_15  and  C_16
REMARK    4  A    between atoms: C_17  and  C_18
REMARK                            x       y       z     vdW  Elec       q    Type
REMARK                         _______ _______ _______ _____ _____    ______ ____
ROOT
ATOM      1  C   UNL     1       3.862  -4.000  26.901  0.00  0.00    +0.032 A 
ATOM      2  C   UNL     1       4.136  -4.350  25.567  0.00  0.00    +0.051 A 
ATOM      3  C   UNL     1       4.876  -3.490  24.746  0.00  0.00    +0.075 A 
ATOM      4  C   UNL     1       5.343  -2.257  25.208  0.00  0.00    +0.090 A 
ATOM      5  N   UNL     1       6.154  -1.399  24.451  0.00  0.00    -0.228 NA
ATOM      6  C   UNL     1       6.582  -1.749  23.267  0.00  0.00    +0.149 A 
ATOM      7  C   UNL     1       6.068  -2.974  22.702  0.00  0.00    +0.106 A 
ATOM      8  C   UNL     1       6.257  -3.621  21.502  0.00  0.00    +0.142 A 
ATOM      9  N   UNL     1       5.576  -4.814  21.479  0.00  0.00    -0.243 NA
ATOM     10  C   UNL     1       4.991  -4.901  22.656  0.00  0.00    +0.204 A 
ATOM     11  N   UNL     1       7.519  -0.987  22.609  0.00  0.00    -0.296 N 
ATOM     12  H   UNL     1       7.433  -0.913  21.602  0.00  0.00    +0.154 HD
ATOM     13  C   UNL     1       5.083  -1.902  26.522  0.00  0.00    +0.032 A 
ATOM     14  N   UNL     1       5.251  -3.805  23.432  0.00  0.00    -0.294 N 
ATOM     15  C   UNL     1       4.373  -2.771  27.354  0.00  0.00    +0.025 A 
ENDROOT
BRANCH   1  22
ATOM     16  C   UNL     1       3.775  -6.675  29.274  0.00  0.00    +0.068 C 
ATOM     17  C   UNL     1       5.073  -7.123  28.597  0.00  0.00    +0.025 C 
ATOM     18  N   UNL     1       2.616  -7.477  28.814  0.00  0.00    -0.311 NA
ATOM     19  H   UNL     1       2.863  -8.464  28.808  0.00  0.00    +0.122 HD
ATOM     20  C   UNL     1       2.195  -7.078  27.459  0.00  0.00    +0.100 C 
ATOM     21  C   UNL     1       1.964  -5.563  27.281  0.00  0.00    +0.120 C 
ATOM     22  N   UNL     1       3.138  -4.808  27.754  0.00  0.00    -0.327 N 
ATOM     23  C   UNL     1       3.550  -5.148  29.123  0.00  0.00    +0.123 C 
ENDBRANCH   1  22
BRANCH  11  24
ATOM     24  C   UNL     1       8.411  -0.049  23.185  0.00  0.00    +0.054 A 
ATOM     25  C   UNL     1       9.634  -0.516  23.724  0.00  0.00    +0.062 A 
ATOM     26 CL   UNL     1       9.992  -2.213  23.755  0.00  0.00    -0.082 Cl
ATOM     27  C   UNL     1      10.589   0.356  24.254  0.00  0.00    +0.022 A 
ATOM     28  C   UNL     1      10.359   1.726  24.236  0.00  0.00    +0.002 A 
ATOM     29  C   UNL     1       9.164   2.216  23.719  0.00  0.00    +0.005 A 
ATOM     30  C   UNL     1       8.170   1.346  23.226  0.00  0.00    -0.028 A 
ATOM     31  C   UNL     1       6.879   2.002  22.801  0.00  0.00    +0.046 C 
ENDBRANCH  11  24
TORSDOF 2
ENDMDL
MODEL 9
REMARK VINA RESULT:      -7.1      3.063      8.593
REMARK  Name = 
REMARK  4 active torsions:
REMARK  status: ('A' for Active; 'I' for Inactive)
REMARK    1  A    between atoms: C_2  and  C_3
REMARK    2  A    between atoms: N_5  and  C_9
REMARK    3  A    between atoms: N_15  and  C_16
REMARK    4  A    between atoms: C_17  and  C_18
REMARK                            x       y       z     vdW  Elec       q    Type
REMARK                         _______ _______ _______ _____ _____    ______ ____
ROOT
ATOM      1  C   UNL     1       5.805  -2.416  25.542  0.00  0.00    +0.032 A 
ATOM      2  C   UNL     1       6.753  -2.403  24.504  0.00  0.00    +0.051 A 
ATOM      3  C   UNL     1       7.081  -1.206  23.856  0.00  0.00    +0.075 A 
ATOM      4  C   UNL     1       6.467   0.002  24.196  0.00  0.00    +0.090 A 
ATOM      5  N   UNL     1       6.816   1.238  23.632  0.00  0.00    -0.228 NA
ATOM      6  C   UNL     1       7.808   1.335  22.788  0.00  0.00    +0.149 A 
ATOM      7  C   UNL     1       8.428   0.112  22.336  0.00  0.00    +0.106 A 
ATOM      8  C   UNL     1       9.442  -0.170  21.449  0.00  0.00    +0.142 A 
ATOM      9  N   UNL     1       9.705  -1.518  21.421  0.00  0.00    -0.243 NA
ATOM     10  C   UNL     1       8.871  -2.051  22.291  0.00  0.00    +0.204 A 
ATOM     11  N   UNL     1       8.262   2.568  22.380  0.00  0.00    -0.296 N 
ATOM     12  H   UNL     1       8.574   2.654  21.420  0.00  0.00    +0.154 HD
ATOM     13  C   UNL     1       5.533   0.004  25.220  0.00  0.00    +0.032 A 
ATOM     14  N   UNL     1       8.069  -1.105  22.867  0.00  0.00    -0.294 N 
ATOM     15  C   UNL     1       5.227  -1.182  25.890  0.00  0.00    +0.025 A 
ENDROOT
BRANCH   1  22
ATOM     16  C   UNL     1       6.752  -5.305  27.427  0.00  0.00    +0.068 C 
ATOM     17  C   UNL     1       8.110  -5.125  26.742  0.00  0.00    +0.025 C 
ATOM     18  N   UNL     1       5.959  -6.381  26.788  0.00  0.00    -0.311 NA
ATOM     19  H   UNL     1       6.549  -7.194  26.627  0.00  0.00    +0.122 HD
ATOM     20  C   UNL     1       5.393  -5.936  25.501  0.00  0.00    +0.100 C 
ATOM     21  C   UNL     1       4.619  -4.603  25.570  0.00  0.00    +0.120 C 
ATOM     22  N   UNL     1       5.445  -3.566  26.214  0.00  0.00    -0.327 N 
ATOM     23  C   UNL     1       5.980  -3.963  27.524  0.00  0.00    +0.123 C 
ENDBRANCH   1  22
BRANCH  11  24
ATOM     24  C   UNL     1       8.069   3.807  23.040  0.00  0.00    +0.054 A 
ATOM     25  C   UNL     1       9.162   4.391  23.723  0.00  0.00    +0.062 A 
ATOM     26 CL   UNL     1      10.683   3.562  23.824  0.00  0.00    -0.082 Cl
ATOM     27  C   UNL     1       9.064   5.639  24.346  0.00  0.00    +0.022 A 
ATOM     28  C   UNL     1       7.874   6.352  24.278  0.00  0.00    +0.002 A 
ATOM     29  C   UNL     1       6.779   5.802  23.619  0.00  0.00    +0.005 A 
ATOM     30  C   UNL     1       6.847   4.524  23.029  0.00  0.00    -0.028 A 
ATOM     31  C   UNL     1       5.557   4.002  22.447  0.00  0.00    +0.046 C 
ENDBRANCH  11  24
TORSDOF 2
ENDMDL
