MODEL 1
REMARK VINA RESULT:      -7.2      0.000      0.000
REMARK  Name = 
REMARK  7 active torsions:
REMARK  status: ('A' for Active; 'I' for Inactive)
REMARK    1  A    between atoms: C_2  and  C_25
REMARK    2  A    between atoms: C_8  and  O_9
REMARK    3  A    between atoms: O_9  and  C_10
REMARK    4  A    between atoms: C_11  and  O_12
REMARK    5  A    between atoms: O_12  and  C_13
REMARK    6  A    between atoms: C_15  and  C_16
REMARK    7  A    between atoms: C_16  and  C_17
REMARK                            x       y       z     vdW  Elec       q    Type
REMARK                         _______ _______ _______ _____ _____    ______ ____
ROOT
ATOM      1  C   UNL     1       4.835  -4.133  26.797  0.00  0.00    +0.177 C 
ATOM      2  O   UNL     1       4.379  -4.087  25.436  0.00  0.00    -0.484 OA
ATOM      3  C   UNL     1       5.342  -3.787  24.493  0.00  0.00    +0.169 A 
ATOM      4  C   UNL     1       5.063  -4.191  23.166  0.00  0.00    +0.204 A 
ATOM      5  C   UNL     1       6.051  -4.033  22.182  0.00  0.00    +0.165 A 
ATOM      6  C   UNL     1       7.296  -3.500  22.554  0.00  0.00    +0.054 A 
ATOM      7  C   UNL     1       7.567  -3.074  23.873  0.00  0.00    -0.033 A 
ATOM      8  C   UNL     1       6.555  -3.164  24.844  0.00  0.00    +0.002 A 
ATOM      9  C   UNL     1       6.765  -2.645  26.243  0.00  0.00    +0.043 C 
ATOM     10  C   UNL     1       5.547  -2.832  27.132  0.00  0.00    +0.049 C 
ENDROOT
BRANCH   1  11
ATOM     11  C   UNL     1       5.660  -5.379  27.048  0.00  0.00    +0.030 C 
ATOM     12  C   UNL     1       5.043  -6.587  27.710  0.00  0.00    +0.007 C 
ATOM     13  C   UNL     1       6.072  -5.776  28.444  0.00  0.00    +0.007 C 
ENDBRANCH   1  11
BRANCH   5  14
ATOM     14  O   UNL     1       5.775  -4.440  20.905  0.00  0.00    -0.491 OA
ATOM     15  C   UNL     1       6.157  -5.748  20.502  0.00  0.00    +0.277 C 
ENDBRANCH   5  14
BRANCH   4  16
ATOM     16  O   UNL     1       3.806  -4.727  23.012  0.00  0.00    -0.488 OA
ATOM     17  C   UNL     1       3.618  -6.128  23.085  0.00  0.00    +0.277 C 
ENDBRANCH   4  16
BRANCH   7  18
ATOM     18  C   UNL     1       8.989  -2.650  24.212  0.00  0.00    +0.075 C 
BRANCH  18  19
ATOM     19  C   UNL     1       9.447  -1.360  23.575  0.00  0.00    +0.015 A 
ATOM     20  C   UNL     1       9.551  -0.181  24.294  0.00  0.00    +0.125 A 
ATOM     21  N   UNL     1       9.526  -0.168  25.686  0.00  0.00    -0.343 N 
ATOM     22  H   UNL     1       8.797  -0.716  26.120  0.00  0.00    +0.144 HD
ATOM     23  H   UNL     1       9.543   0.800  25.997  0.00  0.00    +0.144 HD
ATOM     24  N   UNL     1       9.785   1.009  23.716  0.00  0.00    -0.200 NA
ATOM     25  C   UNL     1       9.993   1.020  22.398  0.00  0.00    +0.214 A 
ATOM     26  N   UNL     1      10.098   2.242  21.765  0.00  0.00    -0.327 N 
ATOM     27  H   UNL     1       9.570   2.932  22.276  0.00  0.00    +0.145 HD
ATOM     28  H   UNL     1       9.860   2.119  20.788  0.00  0.00    +0.145 HD
ATOM     29  N   UNL     1      10.022  -0.063  21.626  0.00  0.00    -0.223 NA
ATOM     30  C   UNL     1       9.762  -1.234  22.235  0.00  0.00    +0.121 A 
ENDBRANCH  18  19
ENDBRANCH   7  18
TORSDOF 5
ENDMDL
MODEL 2
REMARK VINA RESULT:      -7.1      3.716      6.478
REMARK  Name = 
REMARK  7 active torsions:
REMARK  status: ('A' for Active; 'I' for Inactive)
REMARK    1  A    between atoms: C_2  and  C_25
REMARK    2  A    between atoms: C_8  and  O_9
REMARK    3  A    between atoms: O_9  and  C_10
REMARK    4  A    between atoms: C_11  and  O_12
REMARK    5  A    between atoms: O_12  and  C_13
REMARK    6  A    between atoms: C_15  and  C_16
REMARK    7  A    between atoms: C_16  and  C_17
REMARK                            x       y       z     vdW  Elec       q    Type
REMARK                         _______ _______ _______ _____ _____    ______ ____
ROOT
ATOM      1  C   UNL     1       6.491  -3.732  21.942  0.00  0.00    +0.177 C 
ATOM      2  O   UNL     1       7.476  -2.690  21.988  0.00  0.00    -0.484 OA
ATOM      3  C   UNL     1       7.680  -2.115  23.228  0.00  0.00    +0.169 A 
ATOM      4  C   UNL     1       8.920  -1.460  23.415  0.00  0.00    +0.204 A 
ATOM      5  C   UNL     1       9.246  -0.966  24.688  0.00  0.00    +0.165 A 
ATOM      6  C   UNL     1       8.338  -1.162  25.741  0.00  0.00    +0.054 A 
ATOM      7  C   UNL     1       7.090  -1.793  25.549  0.00  0.00    -0.033 A 
ATOM      8  C   UNL     1       6.730  -2.224  24.261  0.00  0.00    +0.002 A 
ATOM      9  C   UNL     1       5.376  -2.827  23.987  0.00  0.00    +0.043 C 
ATOM     10  C   UNL     1       5.187  -3.219  22.531  0.00  0.00    +0.049 C 
ENDROOT
BRANCH   1  11
ATOM     11  C   UNL     1       7.013  -4.998  22.590  0.00  0.00    +0.030 C 
ATOM     12  C   UNL     1       7.112  -6.281  21.800  0.00  0.00    +0.007 C 
ATOM     13  C   UNL     1       6.095  -6.156  22.899  0.00  0.00    +0.007 C 
ENDBRANCH   1  11
BRANCH   5  14
ATOM     14  O   UNL     1      10.453  -0.346  24.861  0.00  0.00    -0.491 OA
ATOM     15  C   UNL     1      10.557   1.046  24.595  0.00  0.00    +0.277 C 
ENDBRANCH   5  14
BRANCH   4  16
ATOM     16  O   UNL     1       9.687  -1.406  22.275  0.00  0.00    -0.488 OA
ATOM     17  C   UNL     1       9.601  -0.286  21.414  0.00  0.00    +0.277 C 
ENDBRANCH   4  16
BRANCH   7  18
ATOM     18  C   UNL     1       6.240  -2.092  26.777  0.00  0.00    +0.075 C 
BRANCH  18  19
ATOM     19  C   UNL     1       6.250  -3.531  27.232  0.00  0.00    +0.015 A 
ATOM     20  C   UNL     1       5.203  -4.082  27.954  0.00  0.00    +0.125 A 
ATOM     21  N   UNL     1       3.969  -3.445  28.054  0.00  0.00    -0.343 N 
ATOM     22  H   UNL     1       3.995  -2.460  28.275  0.00  0.00    +0.144 HD
ATOM     23  H   UNL     1       3.381  -3.985  28.683  0.00  0.00    +0.144 HD
ATOM     24  N   UNL     1       5.264  -5.299  28.518  0.00  0.00    -0.200 NA
ATOM     25  C   UNL     1       6.366  -6.021  28.298  0.00  0.00    +0.214 A 
ATOM     26  N   UNL     1       6.509  -7.214  28.978  0.00  0.00    -0.327 N 
ATOM     27  H   UNL     1       6.010  -7.165  29.853  0.00  0.00    +0.145 HD
ATOM     28  H   UNL     1       7.496  -7.438  29.029  0.00  0.00    +0.145 HD
ATOM     29  N   UNL     1       7.385  -5.637  27.536  0.00  0.00    -0.223 NA
ATOM     30  C   UNL     1       7.298  -4.403  27.005  0.00  0.00    +0.121 A 
ENDBRANCH  18  19
ENDBRANCH   7  18
TORSDOF 5
ENDMDL
MODEL 3
REMARK VINA RESULT:      -7.0      3.428      6.638
REMARK  Name = 
REMARK  7 active torsions:
REMARK  status: ('A' for Active; 'I' for Inactive)
REMARK    1  A    between atoms: C_2  and  C_25
REMARK    2  A    between atoms: C_8  and  O_9
REMARK    3  A    between atoms: O_9  and  C_10
REMARK    4  A    between atoms: C_11  and  O_12
REMARK    5  A    between atoms: O_12  and  C_13
REMARK    6  A    between atoms: C_15  and  C_16
REMARK    7  A    between atoms: C_16  and  C_17
REMARK                            x       y       z     vdW  Elec       q    Type
REMARK                         _______ _______ _______ _____ _____    ______ ____
ROOT
ATOM      1  C   UNL     1       8.973  -2.085  22.617  0.00  0.00    +0.177 C 
ATOM      2  O   UNL     1       8.014  -3.027  22.114  0.00  0.00    -0.484 OA
ATOM      3  C   UNL     1       7.087  -3.483  23.032  0.00  0.00    +0.169 A 
ATOM      4  C   UNL     1       5.886  -4.006  22.499  0.00  0.00    +0.204 A 
ATOM      5  C   UNL     1       4.851  -4.368  23.374  0.00  0.00    +0.165 A 
ATOM      6  C   UNL     1       5.034  -4.174  24.753  0.00  0.00    +0.054 A 
ATOM      7  C   UNL     1       6.241  -3.676  25.288  0.00  0.00    -0.033 A 
ATOM      8  C   UNL     1       7.305  -3.380  24.419  0.00  0.00    +0.002 A 
ATOM      9  C   UNL     1       8.643  -2.926  24.946  0.00  0.00    +0.043 C 
ATOM     10  C   UNL     1       9.656  -2.667  23.843  0.00  0.00    +0.049 C 
ENDROOT
BRANCH   1  11
ATOM     11  C   UNL     1       8.333  -0.730  22.842  0.00  0.00    +0.030 C 
ATOM     12  C   UNL     1       8.774   0.471  22.040  0.00  0.00    +0.007 C 
ATOM     13  C   UNL     1       9.091   0.393  23.507  0.00  0.00    +0.007 C 
ENDBRANCH   1  11
BRANCH   5  14
ATOM     14  O   UNL     1       3.688  -4.860  22.846  0.00  0.00    -0.491 OA
ATOM     15  C   UNL     1       3.239  -6.146  23.250  0.00  0.00    +0.277 C 
ENDBRANCH   5  14
BRANCH   4  16
ATOM     16  O   UNL     1       5.885  -4.078  21.125  0.00  0.00    -0.488 OA
ATOM     17  C   UNL     1       6.097  -5.320  20.480  0.00  0.00    +0.277 C 
ENDBRANCH   4  16
BRANCH   7  18
ATOM     18  C   UNL     1       6.291  -3.361  26.777  0.00  0.00    +0.075 C 
BRANCH  18  19
ATOM     19  C   UNL     1       5.735  -4.435  27.681  0.00  0.00    +0.015 A 
ATOM     20  C   UNL     1       6.356  -5.664  27.832  0.00  0.00    +0.125 A 
ATOM     21  N   UNL     1       7.662  -5.881  27.400  0.00  0.00    -0.343 N 
ATOM     22  H   UNL     1       7.881  -5.551  26.471  0.00  0.00    +0.144 HD
ATOM     23  H   UNL     1       7.886  -6.863  27.543  0.00  0.00    +0.144 HD
ATOM     24  N   UNL     1       5.793  -6.692  28.488  0.00  0.00    -0.200 NA
ATOM     25  C   UNL     1       4.613  -6.472  29.073  0.00  0.00    +0.214 A 
ATOM     26  N   UNL     1       3.954  -7.548  29.634  0.00  0.00    -0.327 N 
ATOM     27  H   UNL     1       4.215  -8.392  29.148  0.00  0.00    +0.145 HD
ATOM     28  H   UNL     1       2.965  -7.333  29.673  0.00  0.00    +0.145 HD
ATOM     29  N   UNL     1       3.977  -5.305  29.083  0.00  0.00    -0.223 NA
ATOM     30  C   UNL     1       4.560  -4.304  28.397  0.00  0.00    +0.121 A 
ENDBRANCH  18  19
ENDBRANCH   7  18
TORSDOF 5
ENDMDL
MODEL 4
REMARK VINA RESULT:      -6.9      2.172      4.065
REMARK  Name = 
REMARK  7 active torsions:
REMARK  status: ('A' for Active; 'I' for Inactive)
REMARK    1  A    between atoms: C_2  and  C_25
REMARK    2  A    between atoms: C_8  and  O_9
REMARK    3  A    between atoms: O_9  and  C_10
REMARK    4  A    between atoms: C_11  and  O_12
REMARK    5  A    between atoms: O_12  and  C_13
REMARK    6  A    between atoms: C_15  and  C_16
REMARK    7  A    between atoms: C_16  and  C_17
REMARK                            x       y       z     vdW  Elec       q    Type
REMARK                         _______ _______ _______ _____ _____    ______ ____
ROOT
ATOM      1  C   UNL     1       6.594  -5.172  23.978  0.00  0.00    +0.177 C 
ATOM      2  O   UNL     1       5.866  -4.143  24.665  0.00  0.00    -0.484 OA
ATOM      3  C   UNL     1       6.418  -2.878  24.604  0.00  0.00    +0.169 A 
ATOM      4  C   UNL     1       5.533  -1.800  24.836  0.00  0.00    +0.204 A 
ATOM      5  C   UNL     1       5.997  -0.486  24.663  0.00  0.00    +0.165 A 
ATOM      6  C   UNL     1       7.322  -0.288  24.240  0.00  0.00    +0.054 A 
ATOM      7  C   UNL     1       8.212  -1.363  24.032  0.00  0.00    -0.033 A 
ATOM      8  C   UNL     1       7.771  -2.676  24.274  0.00  0.00    +0.002 A 
ATOM      9  C   UNL     1       8.708  -3.851  24.148  0.00  0.00    +0.043 C 
ATOM     10  C   UNL     1       8.035  -5.178  24.460  0.00  0.00    +0.049 C 
ENDROOT
BRANCH   1  11
ATOM     11  C   UNL     1       6.437  -5.033  22.477  0.00  0.00    +0.030 C 
ATOM     12  C   UNL     1       5.709  -6.087  21.679  0.00  0.00    +0.007 C 
ATOM     13  C   UNL     1       7.194  -5.926  21.525  0.00  0.00    +0.007 C 
ENDBRANCH   1  11
BRANCH   5  14
ATOM     14  O   UNL     1       5.129   0.549  24.878  0.00  0.00    -0.491 OA
ATOM     15  C   UNL     1       5.452   1.836  24.369  0.00  0.00    +0.277 C 
ENDBRANCH   5  14
BRANCH   4  16
ATOM     16  O   UNL     1       4.269  -2.200  25.201  0.00  0.00    -0.488 OA
ATOM     17  C   UNL     1       3.874  -2.148  26.559  0.00  0.00    +0.277 C 
ENDBRANCH   4  16
BRANCH   7  18
ATOM     18  C   UNL     1       9.578  -1.058  23.431  0.00  0.00    +0.075 C 
BRANCH  18  19
ATOM     19  C   UNL     1       9.928   0.408  23.339  0.00  0.00    +0.015 A 
ATOM     20  C   UNL     1       9.827   1.115  22.153  0.00  0.00    +0.125 A 
ATOM     21  N   UNL     1       9.130   0.610  21.057  0.00  0.00    -0.343 N 
ATOM     22  H   UNL     1       9.325  -0.350  20.813  0.00  0.00    +0.144 HD
ATOM     23  H   UNL     1       9.245   1.256  20.280  0.00  0.00    +0.144 HD
ATOM     24  N   UNL     1      10.295   2.365  22.004  0.00  0.00    -0.200 NA
ATOM     25  C   UNL     1      10.814   2.957  23.082  0.00  0.00    +0.214 A 
ATOM     26  N   UNL     1      11.424   4.185  22.922  0.00  0.00    -0.327 N 
ATOM     27  H   UNL     1      11.789   4.258  21.985  0.00  0.00    +0.145 HD
ATOM     28  H   UNL     1      12.083   4.317  23.679  0.00  0.00    +0.145 HD
ATOM     29  N   UNL     1      10.866   2.413  24.295  0.00  0.00    -0.223 NA
ATOM     30  C   UNL     1      10.407   1.152  24.401  0.00  0.00    +0.121 A 
ENDBRANCH  18  19
ENDBRANCH   7  18
TORSDOF 5
ENDMDL
MODEL 5
REMARK VINA RESULT:      -6.5      4.069      7.089
REMARK  Name = 
REMARK  7 active torsions:
REMARK  status: ('A' for Active; 'I' for Inactive)
REMARK    1  A    between atoms: C_2  and  C_25
REMARK    2  A    between atoms: C_8  and  O_9
REMARK    3  A    between atoms: O_9  and  C_10
REMARK    4  A    between atoms: C_11  and  O_12
REMARK    5  A    between atoms: O_12  and  C_13
REMARK    6  A    between atoms: C_15  and  C_16
REMARK    7  A    between atoms: C_16  and  C_17
REMARK                            x       y       z     vdW  Elec       q    Type
REMARK                         _______ _______ _______ _____ _____    ______ ____
ROOT
ATOM      1  C   UNL     1       8.408   2.685  22.431  0.00  0.00    +0.177 C 
ATOM      2  O   UNL     1       7.076   2.667  22.964  0.00  0.00    -0.484 OA
ATOM      3  C   UNL     1       6.679   1.475  23.539  0.00  0.00    +0.169 A 
ATOM      4  C   UNL     1       5.612   1.554  24.465  0.00  0.00    +0.204 A 
ATOM      5  C   UNL     1       5.243   0.405  25.181  0.00  0.00    +0.165 A 
ATOM      6  C   UNL     1       5.964  -0.782  24.972  0.00  0.00    +0.054 A 
ATOM      7  C   UNL     1       7.012  -0.868  24.030  0.00  0.00    -0.033 A 
ATOM      8  C   UNL     1       7.336   0.263  23.260  0.00  0.00    +0.002 A 
ATOM      9  C   UNL     1       8.389   0.199  22.182  0.00  0.00    +0.043 C 
ATOM     10  C   UNL     1       8.580   1.525  21.464  0.00  0.00    +0.049 C 
ENDROOT
BRANCH   1  11
ATOM     11  C   UNL     1       9.435   2.728  23.544  0.00  0.00    +0.030 C 
ATOM     12  C   UNL     1      10.269   3.965  23.774  0.00  0.00    +0.007 C 
ATOM     13  C   UNL     1      10.914   2.715  23.247  0.00  0.00    +0.007 C 
ENDBRANCH   1  11
BRANCH   5  14
ATOM     14  O   UNL     1       4.219   0.497  26.084  0.00  0.00    -0.491 OA
ATOM     15  C   UNL     1       4.088  -0.507  27.081  0.00  0.00    +0.277 C 
ENDBRANCH   5  14
BRANCH   4  16
ATOM     16  O   UNL     1       5.063   2.812  24.558  0.00  0.00    -0.488 OA
ATOM     17  C   UNL     1       3.851   3.108  23.889  0.00  0.00    +0.277 C 
ENDBRANCH   4  16
BRANCH   7  18
ATOM     18  C   UNL     1       7.829  -2.151  23.981  0.00  0.00    +0.075 C 
BRANCH  18  19
ATOM     19  C   UNL     1       7.205  -3.283  23.202  0.00  0.00    +0.015 A 
ATOM     20  C   UNL     1       7.606  -4.599  23.366  0.00  0.00    +0.125 A 
ATOM     21  N   UNL     1       8.388  -4.995  24.449  0.00  0.00    -0.343 N 
ATOM     22  H   UNL     1       9.188  -4.415  24.652  0.00  0.00    +0.144 HD
ATOM     23  H   UNL     1       8.621  -5.978  24.331  0.00  0.00    +0.144 HD
ATOM     24  N   UNL     1       7.192  -5.595  22.566  0.00  0.00    -0.200 NA
ATOM     25  C   UNL     1       6.301  -5.291  21.620  0.00  0.00    +0.214 A 
ATOM     26  N   UNL     1       5.967  -6.266  20.702  0.00  0.00    -0.327 N 
ATOM     27  H   UNL     1       6.742  -6.900  20.588  0.00  0.00    +0.145 HD
ATOM     28  H   UNL     1       5.623  -5.813  19.863  0.00  0.00    +0.145 HD
ATOM     29  N   UNL     1       5.767  -4.086  21.440  0.00  0.00    -0.223 NA
ATOM     30  C   UNL     1       6.221  -3.109  22.246  0.00  0.00    +0.121 A 
ENDBRANCH  18  19
ENDBRANCH   7  18
TORSDOF 5
ENDMDL
MODEL 6
REMARK VINA RESULT:      -6.4      3.812      7.309
REMARK  Name = 
REMARK  7 active torsions:
REMARK  status: ('A' for Active; 'I' for Inactive)
REMARK    1  A    between atoms: C_2  and  C_25
REMARK    2  A    between atoms: C_8  and  O_9
REMARK    3  A    between atoms: O_9  and  C_10
REMARK    4  A    between atoms: C_11  and  O_12
REMARK    5  A    between atoms: O_12  and  C_13
REMARK    6  A    between atoms: C_15  and  C_16
REMARK    7  A    between atoms: C_16  and  C_17
REMARK                            x       y       z     vdW  Elec       q    Type
REMARK                         _______ _______ _______ _____ _____    ______ ____
ROOT
ATOM      1  C   UNL     1       8.952   2.339  22.293  0.00  0.00    +0.177 C 
ATOM      2  O   UNL     1       7.564   2.181  22.623  0.00  0.00    -0.484 OA
ATOM      3  C   UNL     1       7.252   1.064  23.373  0.00  0.00    +0.169 A 
ATOM      4  C   UNL     1       6.041   1.120  24.102  0.00  0.00    +0.204 A 
ATOM      5  C   UNL     1       5.725   0.074  24.983  0.00  0.00    +0.165 A 
ATOM      6  C   UNL     1       6.638  -0.983  25.131  0.00  0.00    +0.054 A 
ATOM      7  C   UNL     1       7.835  -1.052  24.386  0.00  0.00    -0.033 A 
ATOM      8  C   UNL     1       8.119  -0.043  23.450  0.00  0.00    +0.002 A 
ATOM      9  C   UNL     1       9.341  -0.114  22.570  0.00  0.00    +0.043 C 
ATOM     10  C   UNL     1       9.458   1.071  21.625  0.00  0.00    +0.049 C 
ENDROOT
BRANCH   1  11
ATOM     11  C   UNL     1       9.751   2.767  23.506  0.00  0.00    +0.030 C 
ATOM     12  C   UNL     1       9.926   4.231  23.835  0.00  0.00    +0.007 C 
ATOM     13  C   UNL     1      11.102   3.425  23.363  0.00  0.00    +0.007 C 
ENDBRANCH   1  11
BRANCH   5  14
ATOM     14  O   UNL     1       4.557   0.145  25.692  0.00  0.00    -0.491 OA
ATOM     15  C   UNL     1       4.588   0.651  27.020  0.00  0.00    +0.277 C 
ENDBRANCH   5  14
BRANCH   4  16
ATOM     16  O   UNL     1       5.305   2.254  23.851  0.00  0.00    -0.488 OA
ATOM     17  C   UNL     1       5.431   3.383  24.695  0.00  0.00    +0.277 C 
ENDBRANCH   4  16
BRANCH   7  18
ATOM     18  C   UNL     1       8.828  -2.156  24.723  0.00  0.00    +0.075 C 
BRANCH  18  19
ATOM     19  C   UNL     1       8.224  -3.407  25.313  0.00  0.00    +0.015 A 
ATOM     20  C   UNL     1       7.543  -4.332  24.539  0.00  0.00    +0.125 A 
ATOM     21  N   UNL     1       7.622  -4.320  23.148  0.00  0.00    -0.343 N 
ATOM     22  H   UNL     1       7.504  -3.421  22.706  0.00  0.00    +0.144 HD
ATOM     23  H   UNL     1       6.993  -5.033  22.787  0.00  0.00    +0.144 HD
ATOM     24  N   UNL     1       6.851  -5.357  25.062  0.00  0.00    -0.200 NA
ATOM     25  C   UNL     1       6.894  -5.511  26.388  0.00  0.00    +0.214 A 
ATOM     26  N   UNL     1       6.082  -6.471  26.959  0.00  0.00    -0.327 N 
ATOM     27  H   UNL     1       5.265  -6.605  26.384  0.00  0.00    +0.145 HD
ATOM     28  H   UNL     1       5.920  -6.219  27.927  0.00  0.00    +0.145 HD
ATOM     29  N   UNL     1       7.600  -4.748  27.218  0.00  0.00    -0.223 NA
ATOM     30  C   UNL     1       8.263  -3.719  26.660  0.00  0.00    +0.121 A 
ENDBRANCH  18  19
ENDBRANCH   7  18
TORSDOF 5
ENDMDL
MODEL 7
REMARK VINA RESULT:      -6.4      2.181      4.187
REMARK  Name = 
REMARK  7 active torsions:
REMARK  status: ('A' for Active; 'I' for Inactive)
REMARK    1  A    between atoms: C_2  and  C_25
REMARK    2  A    between atoms: C_8  and  O_9
REMARK    3  A    between atoms: O_9  and  C_10
REMARK    4  A    between atoms: C_11  and  O_12
REMARK    5  A    between atoms: O_12  and  C_13
REMARK    6  A    between atoms: C_15  and  C_16
REMARK    7  A    between atoms: C_16  and  C_17
REMARK                            x       y       z     vdW  Elec       q    Type
REMARK                         _______ _______ _______ _____ _____    ______ ____
ROOT
ATOM      1  C   UNL     1       6.782  -5.286  25.360  0.00  0.00    +0.177 C 
ATOM      2  O   UNL     1       5.817  -4.559  26.133  0.00  0.00    -0.484 OA
ATOM      3  C   UNL     1       6.165  -3.261  26.456  0.00  0.00    +0.169 A 
ATOM      4  C   UNL     1       5.098  -2.391  26.778  0.00  0.00    +0.204 A 
ATOM      5  C   UNL     1       5.367  -1.029  26.991  0.00  0.00    +0.165 A 
ATOM      6  C   UNL     1       6.688  -0.573  26.851  0.00  0.00    +0.054 A 
ATOM      7  C   UNL     1       7.757  -1.445  26.554  0.00  0.00    -0.033 A 
ATOM      8  C   UNL     1       7.500  -2.820  26.412  0.00  0.00    +0.002 A 
ATOM      9  C   UNL     1       8.619  -3.804  26.179  0.00  0.00    +0.043 C 
ATOM     10  C   UNL     1       8.129  -5.238  26.062  0.00  0.00    +0.049 C 
ENDROOT
BRANCH   1  11
ATOM     11  C   UNL     1       6.806  -4.796  23.927  0.00  0.00    +0.030 C 
ATOM     12  C   UNL     1       6.172  -5.610  22.825  0.00  0.00    +0.007 C 
ATOM     13  C   UNL     1       7.666  -5.467  22.883  0.00  0.00    +0.007 C 
ENDBRANCH   1  11
BRANCH   5  14
ATOM     14  O   UNL     1       4.325  -0.194  27.288  0.00  0.00    -0.491 OA
ATOM     15  C   UNL     1       4.226   0.344  28.600  0.00  0.00    +0.277 C 
ENDBRANCH   5  14
BRANCH   4  16
ATOM     16  O   UNL     1       3.876  -3.020  26.826  0.00  0.00    -0.488 OA
ATOM     17  C   UNL     1       3.300  -3.358  28.074  0.00  0.00    +0.277 C 
ENDBRANCH   4  16
BRANCH   7  18
ATOM     18  C   UNL     1       9.124  -0.836  26.276  0.00  0.00    +0.075 C 
BRANCH  18  19
ATOM     19  C   UNL     1       9.239  -0.076  24.977  0.00  0.00    +0.015 A 
ATOM     20  C   UNL     1       9.786  -0.644  23.838  0.00  0.00    +0.125 A 
ATOM     21  N   UNL     1       9.993  -2.017  23.733  0.00  0.00    -0.343 N 
ATOM     22  H   UNL     1      10.434  -2.460  24.525  0.00  0.00    +0.144 HD
ATOM     23  H   UNL     1      10.465  -2.202  22.851  0.00  0.00    +0.144 HD
ATOM     24  N   UNL     1      10.058   0.061  22.728  0.00  0.00    -0.200 NA
ATOM     25  C   UNL     1       9.711   1.350  22.721  0.00  0.00    +0.214 A 
ATOM     26  N   UNL     1      10.104   2.125  21.647  0.00  0.00    -0.327 N 
ATOM     27  H   UNL     1      10.952   1.748  21.254  0.00  0.00    +0.145 HD
ATOM     28  H   UNL     1      10.131   3.093  21.943  0.00  0.00    +0.145 HD
ATOM     29  N   UNL     1       9.086   1.973  23.715  0.00  0.00    -0.223 NA
ATOM     30  C   UNL     1       8.849   1.241  24.819  0.00  0.00    +0.121 A 
ENDBRANCH  18  19
ENDBRANCH   7  18
TORSDOF 5
ENDMDL
MODEL 8
REMARK VINA RESULT:      -6.3      3.884      7.178
REMARK  Name = 
REMARK  7 active torsions:
REMARK  status: ('A' for Active; 'I' for Inactive)
REMARK    1  A    between atoms: C_2  and  C_25
REMARK    2  A    between atoms: C_8  and  O_9
REMARK    3  A    between atoms: O_9  and  C_10
REMARK    4  A    between atoms: C_11  and  O_12
REMARK    5  A    between atoms: O_12  and  C_13
REMARK    6  A    between atoms: C_15  and  C_16
REMARK    7  A    between atoms: C_16  and  C_17
REMARK                            x       y       z     vdW  Elec       q    Type
REMARK                         _______ _______ _______ _____ _____    ______ ____
ROOT
ATOM      1  C   UNL     1       8.270   3.073  23.307  0.00  0.00    +0.177 C 
ATOM      2  O   UNL     1       7.492   2.977  24.509  0.00  0.00    -0.484 OA
ATOM      3  C   UNL     1       7.005   1.719  24.806  0.00  0.00    +0.169 A 
ATOM      4  C   UNL     1       6.666   1.484  26.159  0.00  0.00    +0.204 A 
ATOM      5  C   UNL     1       6.286   0.192  26.554  0.00  0.00    +0.165 A 
ATOM      6  C   UNL     1       6.281  -0.833  25.595  0.00  0.00    +0.054 A 
ATOM      7  C   UNL     1       6.595  -0.595  24.239  0.00  0.00    -0.033 A 
ATOM      8  C   UNL     1       6.905   0.712  23.827  0.00  0.00    +0.002 A 
ATOM      9  C   UNL     1       7.165   1.034  22.377  0.00  0.00    +0.043 C 
ATOM     10  C   UNL     1       7.474   2.504  22.144  0.00  0.00    +0.049 C 
ENDROOT
BRANCH   1  11
ATOM     11  C   UNL     1       9.636   2.444  23.496  0.00  0.00    +0.030 C 
ATOM     12  C   UNL     1      10.890   3.274  23.360  0.00  0.00    +0.007 C 
ATOM     13  C   UNL     1      10.568   2.230  22.329  0.00  0.00    +0.007 C 
ENDBRANCH   1  11
BRANCH   5  14
ATOM     14  O   UNL     1       5.973  -0.026  27.868  0.00  0.00    -0.491 OA
ATOM     15  C   UNL     1       4.648  -0.412  28.206  0.00  0.00    +0.277 C 
ENDBRANCH   5  14
BRANCH   4  16
ATOM     16  O   UNL     1       6.774   2.604  26.950  0.00  0.00    -0.488 OA
ATOM     17  C   UNL     1       5.611   3.304  27.352  0.00  0.00    +0.277 C 
ENDBRANCH   4  16
BRANCH   7  18
ATOM     18  C   UNL     1       6.707  -1.794  23.307  0.00  0.00    +0.075 C 
BRANCH  18  19
ATOM     19  C   UNL     1       7.627  -2.894  23.780  0.00  0.00    +0.015 A 
ATOM     20  C   UNL     1       7.146  -4.113  24.228  0.00  0.00    +0.125 A 
ATOM     21  N   UNL     1       5.830  -4.508  24.002  0.00  0.00    -0.343 N 
ATOM     22  H   UNL     1       5.120  -3.818  24.203  0.00  0.00    +0.144 HD
ATOM     23  H   UNL     1       5.677  -5.395  24.475  0.00  0.00    +0.144 HD
ATOM     24  N   UNL     1       7.926  -5.036  24.814  0.00  0.00    -0.200 NA
ATOM     25  C   UNL     1       9.232  -4.773  24.892  0.00  0.00    +0.214 A 
ATOM     26  N   UNL     1      10.030  -5.642  25.610  0.00  0.00    -0.327 N 
ATOM     27  H   UNL     1       9.481  -6.084  26.331  0.00  0.00    +0.145 HD
ATOM     28  H   UNL     1      10.858  -5.142  25.911  0.00  0.00    +0.145 HD
ATOM     29  N   UNL     1       9.818  -3.685  24.401  0.00  0.00    -0.223 NA
ATOM     30  C   UNL     1       9.003  -2.773  23.841  0.00  0.00    +0.121 A 
ENDBRANCH  18  19
ENDBRANCH   7  18
TORSDOF 5
ENDMDL
MODEL 9
REMARK VINA RESULT:      -6.2      4.157      6.292
REMARK  Name = 
REMARK  7 active torsions:
REMARK  status: ('A' for Active; 'I' for Inactive)
REMARK    1  A    between atoms: C_2  and  C_25
REMARK    2  A    between atoms: C_8  and  O_9
REMARK    3  A    between atoms: O_9  and  C_10
REMARK    4  A    between atoms: C_11  and  O_12
REMARK    5  A    between atoms: O_12  and  C_13
REMARK    6  A    between atoms: C_15  and  C_16
REMARK    7  A    between atoms: C_16  and  C_17
REMARK                            x       y       z     vdW  Elec       q    Type
REMARK                         _______ _______ _______ _____ _____    ______ ____
ROOT
ATOM      1  C   UNL     1       6.496   1.978  26.861  0.00  0.00    +0.177 C 
ATOM      2  O   UNL     1       7.551   2.233  25.922  0.00  0.00    -0.484 OA
ATOM      3  C   UNL     1       8.241   1.120  25.482  0.00  0.00    +0.169 A 
ATOM      4  C   UNL     1       8.926   1.256  24.253  0.00  0.00    +0.204 A 
ATOM      5  C   UNL     1       9.541   0.130  23.684  0.00  0.00    +0.165 A 
ATOM      6  C   UNL     1       9.431  -1.105  24.345  0.00  0.00    +0.054 A 
ATOM      7  C   UNL     1       8.768  -1.237  25.584  0.00  0.00    -0.033 A 
ATOM      8  C   UNL     1       8.215  -0.096  26.191  0.00  0.00    +0.002 A 
ATOM      9  C   UNL     1       7.571  -0.169  27.552  0.00  0.00    +0.043 C 
ATOM     10  C   UNL     1       7.044   1.174  28.029  0.00  0.00    +0.049 C 
ENDROOT
BRANCH   1  11
ATOM     11  C   UNL     1       5.302   1.346  26.174  0.00  0.00    +0.030 C 
ATOM     12  C   UNL     1       4.022   2.125  25.987  0.00  0.00    +0.007 C 
ATOM     13  C   UNL     1       4.062   0.970  26.947  0.00  0.00    +0.007 C 
ENDBRANCH   1  11
BRANCH   5  14
ATOM     14  O   UNL     1      10.190   0.271  22.488  0.00  0.00    -0.491 OA
ATOM     15  C   UNL     1       9.463   0.075  21.283  0.00  0.00    +0.277 C 
ENDBRANCH   5  14
BRANCH   4  16
ATOM     16  O   UNL     1       8.885   2.534  23.744  0.00  0.00    -0.488 OA
ATOM     17  C   UNL     1      10.046   3.343  23.762  0.00  0.00    +0.277 C 
ENDBRANCH   4  16
BRANCH   7  18
ATOM     18  C   UNL     1       8.573  -2.638  26.148  0.00  0.00    +0.075 C 
BRANCH  18  19
ATOM     19  C   UNL     1       8.098  -3.671  25.155  0.00  0.00    +0.015 A 
ATOM     20  C   UNL     1       8.858  -4.784  24.831  0.00  0.00    +0.125 A 
ATOM     21  N   UNL     1       9.953  -5.171  25.600  0.00  0.00    -0.343 N 
ATOM     22  H   UNL     1      10.597  -4.436  25.853  0.00  0.00    +0.144 HD
ATOM     23  H   UNL     1      10.400  -5.962  25.144  0.00  0.00    +0.144 HD
ATOM     24  N   UNL     1       8.540  -5.620  23.830  0.00  0.00    -0.200 NA
ATOM     25  C   UNL     1       7.399  -5.388  23.177  0.00  0.00    +0.214 A 
ATOM     26  N   UNL     1       7.121  -6.149  22.059  0.00  0.00    -0.327 N 
ATOM     27  H   UNL     1       7.985  -6.448  21.633  0.00  0.00    +0.145 HD
ATOM     28  H   UNL     1       6.479  -5.631  21.470  0.00  0.00    +0.145 HD
ATOM     29  N   UNL     1       6.542  -4.414  23.470  0.00  0.00    -0.223 NA
ATOM     30  C   UNL     1       6.904  -3.584  24.465  0.00  0.00    +0.121 A 
ENDBRANCH  18  19
ENDBRANCH   7  18
TORSDOF 5
ENDMDL
