MODEL 1
REMARK VINA RESULT:      -4.3      0.000      0.000
REMARK  Name = 
REMARK  7 active torsions:
REMARK  status: ('A' for Active; 'I' for Inactive)
REMARK    1  A    between atoms: N_1  and  CA_2
REMARK    2  A    between atoms: CA_2  and  CB_4
REMARK    3  A    between atoms: CA_2  and  C_9
REMARK    4  A    between atoms: CB_4  and  CG_5
REMARK    5  A    between atoms: CG_5  and  CD_6
REMARK    6  A    between atoms: CD_6  and  OE1_7
REMARK    7  A    between atoms: C_9  and  O_10
REMARK                            x       y       z     vdW  Elec       q    Type
REMARK                         _______ _______ _______ _____ _____    ______ ____
ROOT
ATOM      1  CA  GLU A   1       9.075  -4.540  25.572  0.00  0.00    +0.161 C 
ENDROOT
BRANCH   1   2
ATOM      2  N   GLU A   1      10.186  -5.520  25.340  0.00  0.00    -0.318 NA
ATOM      3  H1  GLU A   1      10.198  -5.773  24.345  0.00  0.00    +0.119 HD
ATOM      4  H2  GLU A   1      11.072  -5.017  25.467  0.00  0.00    +0.119 HD
ENDBRANCH   1   2
BRANCH   1   5
ATOM      5  C   GLU A   1       7.862  -5.321  26.126  0.00  0.00    +0.322 C 
ATOM      6  OXT GLU A   1       6.798  -5.483  25.551  0.00  0.00    -0.249 OA
BRANCH   5   7
ATOM      7  O   GLU A   1       8.113  -5.805  27.371  0.00  0.00    -0.480 OA
ATOM      8  H   GLU A   1       8.026  -6.790  27.294  0.00  0.00    +0.295 HD
ENDBRANCH   5   7
ENDBRANCH   1   5
BRANCH   1   9
ATOM      9  CB  GLU A   1       8.760  -3.802  24.267  0.00  0.00    +0.041 C 
BRANCH   9  10
ATOM     10  CG  GLU A   1       9.770  -2.702  23.928  0.00  0.00    +0.122 C 
BRANCH  10  11
ATOM     11  CD  GLU A   1       9.399  -1.984  22.653  0.00  0.00    +0.305 C 
ATOM     12  OE2 GLU A   1       8.254  -1.739  22.306  0.00  0.00    -0.251 OA
BRANCH  11  13
ATOM     13  OE1 GLU A   1      10.472  -1.662  21.899  0.00  0.00    -0.481 OA
ATOM     14  HE1 GLU A   1      10.376  -1.871  20.949  0.00  0.00    +0.295 HD
ENDBRANCH  11  13
ENDBRANCH  10  11
ENDBRANCH   9  10
ENDBRANCH   1   9
TORSDOF 7
ENDMDL
MODEL 2
REMARK VINA RESULT:      -4.3      3.398      5.805
REMARK  Name = 
REMARK  7 active torsions:
REMARK  status: ('A' for Active; 'I' for Inactive)
REMARK    1  A    between atoms: N_1  and  CA_2
REMARK    2  A    between atoms: CA_2  and  CB_4
REMARK    3  A    between atoms: CA_2  and  C_9
REMARK    4  A    between atoms: CB_4  and  CG_5
REMARK    5  A    between atoms: CG_5  and  CD_6
REMARK    6  A    between atoms: CD_6  and  OE1_7
REMARK    7  A    between atoms: C_9  and  O_10
REMARK                            x       y       z     vdW  Elec       q    Type
REMARK                         _______ _______ _______ _____ _____    ______ ____
ROOT
ATOM      1  CA  GLU A   1       9.513   1.027  23.506  0.00  0.00    +0.161 C 
ENDROOT
BRANCH   1   2
ATOM      2  N   GLU A   1       8.052   0.807  23.762  0.00  0.00    -0.318 NA
ATOM      3  H1  GLU A   1       7.932   0.493  24.732  0.00  0.00    +0.119 HD
ATOM      4  H2  GLU A   1       7.596   1.727  23.752  0.00  0.00    +0.119 HD
ENDBRANCH   1   2
BRANCH   1   5
ATOM      5  C   GLU A   1       9.727   1.061  21.976  0.00  0.00    +0.322 C 
ATOM      6  OXT GLU A   1       9.518   0.136  21.209  0.00  0.00    -0.249 OA
BRANCH   5   7
ATOM      7  O   GLU A   1      10.208   2.266  21.572  0.00  0.00    -0.480 OA
ATOM      8  H   GLU A   1      10.051   2.882  22.332  0.00  0.00    +0.295 HD
ENDBRANCH   5   7
ENDBRANCH   1   5
BRANCH   1   9
ATOM      9  CB  GLU A   1      10.326  -0.073  24.196  0.00  0.00    +0.041 C 
BRANCH   9  10
ATOM     10  CG  GLU A   1       9.493  -1.298  24.581  0.00  0.00    +0.122 C 
BRANCH  10  11
ATOM     11  CD  GLU A   1       9.962  -2.537  23.855  0.00  0.00    +0.305 C 
ATOM     12  OE2 GLU A   1       9.845  -3.675  24.282  0.00  0.00    -0.251 OA
BRANCH  11  13
ATOM     13  OE1 GLU A   1      10.569  -2.259  22.680  0.00  0.00    -0.481 OA
ATOM     14  HE1 GLU A   1      10.429  -2.932  21.984  0.00  0.00    +0.295 HD
ENDBRANCH  11  13
ENDBRANCH  10  11
ENDBRANCH   9  10
ENDBRANCH   1   9
TORSDOF 7
ENDMDL
MODEL 3
REMARK VINA RESULT:      -4.2      4.344      5.612
REMARK  Name = 
REMARK  7 active torsions:
REMARK  status: ('A' for Active; 'I' for Inactive)
REMARK    1  A    between atoms: N_1  and  CA_2
REMARK    2  A    between atoms: CA_2  and  CB_4
REMARK    3  A    between atoms: CA_2  and  C_9
REMARK    4  A    between atoms: CB_4  and  CG_5
REMARK    5  A    between atoms: CG_5  and  CD_6
REMARK    6  A    between atoms: CD_6  and  OE1_7
REMARK    7  A    between atoms: C_9  and  O_10
REMARK                            x       y       z     vdW  Elec       q    Type
REMARK                         _______ _______ _______ _____ _____    ______ ____
ROOT
ATOM      1  CA  GLU A   1       9.553  -0.469  23.531  0.00  0.00    +0.161 C 
ENDROOT
BRANCH   1   2
ATOM      2  N   GLU A   1       9.702  -1.772  24.258  0.00  0.00    -0.318 NA
ATOM      3  H1  GLU A   1       8.816  -2.287  24.194  0.00  0.00    +0.119 HD
ATOM      4  H2  GLU A   1      10.354  -2.353  23.718  0.00  0.00    +0.119 HD
ENDBRANCH   1   2
BRANCH   1   5
ATOM      5  C   GLU A   1       9.788  -0.735  22.027  0.00  0.00    +0.322 C 
ATOM      6  OXT GLU A   1       9.316  -0.086  21.108  0.00  0.00    -0.249 OA
BRANCH   5   7
ATOM      7  O   GLU A   1      10.587  -1.818  21.836  0.00  0.00    -0.480 OA
ATOM      8  H   GLU A   1      10.508  -2.037  20.872  0.00  0.00    +0.295 HD
ENDBRANCH   5   7
ENDBRANCH   1   5
BRANCH   1   9
ATOM      9  CB  GLU A   1      10.529   0.559  24.113  0.00  0.00    +0.041 C 
BRANCH   9  10
ATOM     10  CG  GLU A   1       9.982   1.988  24.113  0.00  0.00    +0.122 C 
BRANCH  10  11
ATOM     11  CD  GLU A   1      10.697   2.855  23.104  0.00  0.00    +0.305 C 
ATOM     12  OE2 GLU A   1      11.475   3.751  23.390  0.00  0.00    -0.251 OA
BRANCH  11  13
ATOM     13  OE1 GLU A   1      10.361   2.562  21.829  0.00  0.00    -0.481 OA
ATOM     14  HE1 GLU A   1      10.078   1.637  21.687  0.00  0.00    +0.295 HD
ENDBRANCH  11  13
ENDBRANCH  10  11
ENDBRANCH   9  10
ENDBRANCH   1   9
TORSDOF 7
ENDMDL
MODEL 4
REMARK VINA RESULT:      -4.2      4.370      6.291
REMARK  Name = 
REMARK  7 active torsions:
REMARK  status: ('A' for Active; 'I' for Inactive)
REMARK    1  A    between atoms: N_1  and  CA_2
REMARK    2  A    between atoms: CA_2  and  CB_4
REMARK    3  A    between atoms: CA_2  and  C_9
REMARK    4  A    between atoms: CB_4  and  CG_5
REMARK    5  A    between atoms: CG_5  and  CD_6
REMARK    6  A    between atoms: CD_6  and  OE1_7
REMARK    7  A    between atoms: C_9  and  O_10
REMARK                            x       y       z     vdW  Elec       q    Type
REMARK                         _______ _______ _______ _____ _____    ______ ____
ROOT
ATOM      1  CA  GLU A   1      10.033   2.051  23.969  0.00  0.00    +0.161 C 
ENDROOT
BRANCH   1   2
ATOM      2  N   GLU A   1       8.998   2.161  25.048  0.00  0.00    -0.318 NA
ATOM      3  H1  GLU A   1       9.347   1.684  25.888  0.00  0.00    +0.119 HD
ATOM      4  H2  GLU A   1       8.955   3.145  25.335  0.00  0.00    +0.119 HD
ENDBRANCH   1   2
BRANCH   1   5
ATOM      5  C   GLU A   1       9.340   2.329  22.616  0.00  0.00    +0.322 C 
ATOM      6  OXT GLU A   1       8.177   2.666  22.470  0.00  0.00    -0.249 OA
BRANCH   5   7
ATOM      7  O   GLU A   1      10.191   2.130  21.575  0.00  0.00    -0.480 OA
ATOM      8  H   GLU A   1      10.810   2.905  21.589  0.00  0.00    +0.295 HD
ENDBRANCH   5   7
ENDBRANCH   1   5
BRANCH   1   9
ATOM      9  CB  GLU A   1      10.690   0.667  24.027  0.00  0.00    +0.041 C 
BRANCH   9  10
ATOM     10  CG  GLU A   1       9.695  -0.488  23.892  0.00  0.00    +0.122 C 
BRANCH  10  11
ATOM     11  CD  GLU A   1      10.122  -1.463  22.820  0.00  0.00    +0.305 C 
ATOM     12  OE2 GLU A   1      10.495  -2.605  23.034  0.00  0.00    -0.251 OA
BRANCH  11  13
ATOM     13  OE1 GLU A   1      10.084  -0.929  21.580  0.00  0.00    -0.481 OA
ATOM     14  HE1 GLU A   1      10.911  -0.485  21.306  0.00  0.00    +0.295 HD
ENDBRANCH  11  13
ENDBRANCH  10  11
ENDBRANCH   9  10
ENDBRANCH   1   9
TORSDOF 7
ENDMDL
MODEL 5
REMARK VINA RESULT:      -4.2      2.656      3.307
REMARK  Name = 
REMARK  7 active torsions:
REMARK  status: ('A' for Active; 'I' for Inactive)
REMARK    1  A    between atoms: N_1  and  CA_2
REMARK    2  A    between atoms: CA_2  and  CB_4
REMARK    3  A    between atoms: CA_2  and  C_9
REMARK    4  A    between atoms: CB_4  and  CG_5
REMARK    5  A    between atoms: CG_5  and  CD_6
REMARK    6  A    between atoms: CD_6  and  OE1_7
REMARK    7  A    between atoms: C_9  and  O_10
REMARK                            x       y       z     vdW  Elec       q    Type
REMARK                         _______ _______ _______ _____ _____    ______ ____
ROOT
ATOM      1  CA  GLU A   1       8.168  -5.434  25.590  0.00  0.00    +0.161 C 
ENDROOT
BRANCH   1   2
ATOM      2  N   GLU A   1       8.120  -5.540  27.084  0.00  0.00    -0.318 NA
ATOM      3  H1  GLU A   1       8.847  -4.932  27.480  0.00  0.00    +0.119 HD
ATOM      4  H2  GLU A   1       7.247  -5.101  27.397  0.00  0.00    +0.119 HD
ENDBRANCH   1   2
BRANCH   1   5
ATOM      5  C   GLU A   1       9.547  -4.856  25.199  0.00  0.00    +0.322 C 
ATOM      6  OXT GLU A   1       9.735  -3.916  24.444  0.00  0.00    -0.249 OA
BRANCH   5   7
ATOM      7  O   GLU A   1      10.557  -5.545  25.792  0.00  0.00    -0.480 OA
ATOM      8  H   GLU A   1      10.969  -4.910  26.433  0.00  0.00    +0.295 HD
ENDBRANCH   5   7
ENDBRANCH   1   5
BRANCH   1   9
ATOM      9  CB  GLU A   1       7.001  -4.570  25.099  0.00  0.00    +0.041 C 
BRANCH   9  10
ATOM     10  CG  GLU A   1       6.202  -5.213  23.962  0.00  0.00    +0.122 C 
BRANCH  10  11
ATOM     11  CD  GLU A   1       6.990  -5.229  22.673  0.00  0.00    +0.305 C 
ATOM     12  OE2 GLU A   1       7.171  -6.222  21.986  0.00  0.00    -0.251 OA
BRANCH  11  13
ATOM     13  OE1 GLU A   1       7.515  -4.023  22.364  0.00  0.00    -0.481 OA
ATOM     14  HE1 GLU A   1       6.853  -3.339  22.141  0.00  0.00    +0.295 HD
ENDBRANCH  11  13
ENDBRANCH  10  11
ENDBRANCH   9  10
ENDBRANCH   1   9
TORSDOF 7
ENDMDL
MODEL 6
REMARK VINA RESULT:      -4.2      3.314      4.368
REMARK  Name = 
REMARK  7 active torsions:
REMARK  status: ('A' for Active; 'I' for Inactive)
REMARK    1  A    between atoms: N_1  and  CA_2
REMARK    2  A    between atoms: CA_2  and  CB_4
REMARK    3  A    between atoms: CA_2  and  C_9
REMARK    4  A    between atoms: CB_4  and  CG_5
REMARK    5  A    between atoms: CG_5  and  CD_6
REMARK    6  A    between atoms: CD_6  and  OE1_7
REMARK    7  A    between atoms: C_9  and  O_10
REMARK                            x       y       z     vdW  Elec       q    Type
REMARK                         _______ _______ _______ _____ _____    ______ ____
ROOT
ATOM      1  CA  GLU A   1      10.443  -1.404  22.792  0.00  0.00    +0.161 C 
ENDROOT
BRANCH   1   2
ATOM      2  N   GLU A   1       9.933  -1.541  21.389  0.00  0.00    -0.318 NA
ATOM      3  H1  GLU A   1       9.096  -2.137  21.401  0.00  0.00    +0.119 HD
ATOM      4  H2  GLU A   1       9.567  -0.626  21.103  0.00  0.00    +0.119 HD
ENDBRANCH   1   2
BRANCH   1   5
ATOM      5  C   GLU A   1       9.623  -2.357  23.691  0.00  0.00    +0.322 C 
ATOM      6  OXT GLU A   1      10.018  -3.417  24.149  0.00  0.00    -0.249 OA
BRANCH   5   7
ATOM      7  O   GLU A   1       8.369  -1.878  23.904  0.00  0.00    -0.480 OA
ATOM      8  H   GLU A   1       7.929  -2.544  24.492  0.00  0.00    +0.295 HD
ENDBRANCH   5   7
ENDBRANCH   1   5
BRANCH   1   9
ATOM      9  CB  GLU A   1      10.345   0.061  23.233  0.00  0.00    +0.041 C 
BRANCH   9  10
ATOM     10  CG  GLU A   1      10.072   1.029  22.080  0.00  0.00    +0.122 C 
BRANCH  10  11
ATOM     11  CD  GLU A   1       8.616   1.425  22.023  0.00  0.00    +0.305 C 
ATOM     12  OE2 GLU A   1       7.689   0.700  22.349  0.00  0.00    -0.251 OA
BRANCH  11  13
ATOM     13  OE1 GLU A   1       8.429   2.670  21.534  0.00  0.00    -0.481 OA
ATOM     14  HE1 GLU A   1       7.491   2.925  21.424  0.00  0.00    +0.295 HD
ENDBRANCH  11  13
ENDBRANCH  10  11
ENDBRANCH   9  10
ENDBRANCH   1   9
TORSDOF 7
ENDMDL
MODEL 7
REMARK VINA RESULT:      -4.1      3.935      5.132
REMARK  Name = 
REMARK  7 active torsions:
REMARK  status: ('A' for Active; 'I' for Inactive)
REMARK    1  A    between atoms: N_1  and  CA_2
REMARK    2  A    between atoms: CA_2  and  CB_4
REMARK    3  A    between atoms: CA_2  and  C_9
REMARK    4  A    between atoms: CB_4  and  CG_5
REMARK    5  A    between atoms: CG_5  and  CD_6
REMARK    6  A    between atoms: CD_6  and  OE1_7
REMARK    7  A    between atoms: C_9  and  O_10
REMARK                            x       y       z     vdW  Elec       q    Type
REMARK                         _______ _______ _______ _____ _____    ______ ____
ROOT
ATOM      1  CA  GLU A   1       9.615  -0.388  23.768  0.00  0.00    +0.161 C 
ENDROOT
BRANCH   1   2
ATOM      2  N   GLU A   1       9.276  -1.121  25.030  0.00  0.00    -0.318 NA
ATOM      3  H1  GLU A   1       8.446  -1.702  24.860  0.00  0.00    +0.119 HD
ATOM      4  H2  GLU A   1      10.018  -1.811  25.195  0.00  0.00    +0.119 HD
ENDBRANCH   1   2
BRANCH   1   5
ATOM      5  C   GLU A   1      10.094  -1.428  22.729  0.00  0.00    +0.322 C 
ATOM      6  OXT GLU A   1      10.537  -2.535  22.985  0.00  0.00    -0.249 OA
BRANCH   5   7
ATOM      7  O   GLU A   1       9.983  -0.948  21.462  0.00  0.00    -0.480 OA
ATOM      8  H   GLU A   1      10.243  -1.700  20.871  0.00  0.00    +0.295 HD
ENDBRANCH   5   7
ENDBRANCH   1   5
BRANCH   1   9
ATOM      9  CB  GLU A   1      10.668   0.686  24.063  0.00  0.00    +0.041 C 
BRANCH   9  10
ATOM     10  CG  GLU A   1      10.132   2.115  23.945  0.00  0.00    +0.122 C 
BRANCH  10  11
ATOM     11  CD  GLU A   1       9.416   2.330  22.632  0.00  0.00    +0.305 C 
ATOM     12  OE2 GLU A   1       8.232   2.612  22.529  0.00  0.00    -0.251 OA
BRANCH  11  13
ATOM     13  OE1 GLU A   1      10.216   2.142  21.560  0.00  0.00    -0.481 OA
ATOM     14  HE1 GLU A   1      10.298   2.922  20.976  0.00  0.00    +0.295 HD
ENDBRANCH  11  13
ENDBRANCH  10  11
ENDBRANCH   9  10
ENDBRANCH   1   9
TORSDOF 7
ENDMDL
MODEL 8
REMARK VINA RESULT:      -4.1      3.981      6.057
REMARK  Name = 
REMARK  7 active torsions:
REMARK  status: ('A' for Active; 'I' for Inactive)
REMARK    1  A    between atoms: N_1  and  CA_2
REMARK    2  A    between atoms: CA_2  and  CB_4
REMARK    3  A    between atoms: CA_2  and  C_9
REMARK    4  A    between atoms: CB_4  and  CG_5
REMARK    5  A    between atoms: CG_5  and  CD_6
REMARK    6  A    between atoms: CD_6  and  OE1_7
REMARK    7  A    between atoms: C_9  and  O_10
REMARK                            x       y       z     vdW  Elec       q    Type
REMARK                         _______ _______ _______ _____ _____    ______ ____
ROOT
ATOM      1  CA  GLU A   1       9.591   1.082  22.672  0.00  0.00    +0.161 C 
ENDROOT
BRANCH   1   2
ATOM      2  N   GLU A   1       9.629   1.942  21.445  0.00  0.00    -0.318 NA
ATOM      3  H1  GLU A   1      10.249   1.502  20.755  0.00  0.00    +0.119 HD
ATOM      4  H2  GLU A   1       8.705   1.888  21.002  0.00  0.00    +0.119 HD
ENDBRANCH   1   2
BRANCH   1   5
ATOM      5  C   GLU A   1      10.367   1.815  23.790  0.00  0.00    +0.322 C 
ATOM      6  OXT GLU A   1      10.991   2.855  23.658  0.00  0.00    -0.249 OA
BRANCH   5   7
ATOM      7  O   GLU A   1      10.289   1.142  24.969  0.00  0.00    -0.480 OA
ATOM      8  H   GLU A   1       9.392   0.721  24.973  0.00  0.00    +0.295 HD
ENDBRANCH   5   7
ENDBRANCH   1   5
BRANCH   1   9
ATOM      9  CB  GLU A   1      10.176  -0.298  22.351  0.00  0.00    +0.041 C 
BRANCH   9  10
ATOM     10  CG  GLU A   1       9.215  -1.452  22.648  0.00  0.00    +0.122 C 
BRANCH  10  11
ATOM     11  CD  GLU A   1       9.599  -2.178  23.916  0.00  0.00    +0.305 C 
ATOM     12  OE2 GLU A   1      10.197  -3.242  23.949  0.00  0.00    -0.251 OA
BRANCH  11  13
ATOM     13  OE1 GLU A   1       9.178  -1.545  25.032  0.00  0.00    -0.481 OA
ATOM     14  HE1 GLU A   1       8.457  -0.900  24.883  0.00  0.00    +0.295 HD
ENDBRANCH  11  13
ENDBRANCH  10  11
ENDBRANCH   9  10
ENDBRANCH   1   9
TORSDOF 7
ENDMDL
MODEL 9
REMARK VINA RESULT:      -4.1      2.907      3.399
REMARK  Name = 
REMARK  7 active torsions:
REMARK  status: ('A' for Active; 'I' for Inactive)
REMARK    1  A    between atoms: N_1  and  CA_2
REMARK    2  A    between atoms: CA_2  and  CB_4
REMARK    3  A    between atoms: CA_2  and  C_9
REMARK    4  A    between atoms: CB_4  and  CG_5
REMARK    5  A    between atoms: CG_5  and  CD_6
REMARK    6  A    between atoms: CD_6  and  OE1_7
REMARK    7  A    between atoms: C_9  and  O_10
REMARK                            x       y       z     vdW  Elec       q    Type
REMARK                         _______ _______ _______ _____ _____    ______ ____
ROOT
ATOM      1  CA  GLU A   1       8.326  -4.729  24.776  0.00  0.00    +0.161 C 
ENDROOT
BRANCH   1   2
ATOM      2  N   GLU A   1       9.476  -5.671  24.581  0.00  0.00    -0.318 NA
ATOM      3  H1  GLU A   1      10.350  -5.133  24.612  0.00  0.00    +0.119 HD
ATOM      4  H2  GLU A   1       9.533  -6.266  25.416  0.00  0.00    +0.119 HD
ENDBRANCH   1   2
BRANCH   1   5
ATOM      5  C   GLU A   1       7.980  -4.710  26.283  0.00  0.00    +0.322 C 
ATOM      6  OXT GLU A   1       7.508  -3.763  26.891  0.00  0.00    -0.249 OA
BRANCH   5   7
ATOM      7  O   GLU A   1       8.287  -5.894  26.875  0.00  0.00    -0.480 OA
ATOM      8  H   GLU A   1       8.513  -5.668  27.814  0.00  0.00    +0.295 HD
ENDBRANCH   5   7
ENDBRANCH   1   5
BRANCH   1   9
ATOM      9  CB  GLU A   1       7.148  -5.168  23.901  0.00  0.00    +0.041 C 
BRANCH   9  10
ATOM     10  CG  GLU A   1       7.309  -4.790  22.426  0.00  0.00    +0.122 C 
BRANCH  10  11
ATOM     11  CD  GLU A   1       6.456  -5.663  21.536  0.00  0.00    +0.305 C 
ATOM     12  OE2 GLU A   1       5.969  -5.302  20.476  0.00  0.00    -0.251 OA
BRANCH  11  13
ATOM     13  OE1 GLU A   1       6.249  -6.895  22.050  0.00  0.00    -0.481 OA
ATOM     14  HE1 GLU A   1       6.445  -6.972  23.005  0.00  0.00    +0.295 HD
ENDBRANCH  11  13
ENDBRANCH  10  11
ENDBRANCH   9  10
ENDBRANCH   1   9
TORSDOF 7
ENDMDL
