MODEL 1
REMARK VINA RESULT:      -7.5      0.000      0.000
REMARK  Name = 
REMARK  10 active torsions:
REMARK  status: ('A' for Active; 'I' for Inactive)
REMARK    1  A    between atoms: CA_2  and  CB_3
REMARK    2  A    between atoms: CA_2  and  C_4
REMARK    3  A    between atoms: CA_2  and  N_6
REMARK    4  A    between atoms: C_4  and  O_5
REMARK    5  A    between atoms: C_7  and  C_9
REMARK    6  A    between atoms: C_10  and  C_11
REMARK    7  A    between atoms: C_13  and  C_15
REMARK    8  A    between atoms: N_18  and  C_19
REMARK    9  A    between atoms: C_21  and  C_22
REMARK   10  A    between atoms: C_24  and  C_25
REMARK                            x       y       z     vdW  Elec       q    Type
REMARK                         _______ _______ _______ _____ _____    ______ ____
ROOT
ATOM      1  C   UNK A   0       6.272   0.852  25.285  0.00  0.00    +0.101 A 
ATOM      2  C   UNK A   0       5.380   1.466  26.123  0.00  0.00    +0.050 A 
ATOM      3  C   UNK A   0       4.396   0.639  26.614  0.00  0.00    +0.116 A 
ATOM      4  N   UNK A   0       4.299  -0.681  26.331  0.00  0.00    -0.223 NA
ATOM      5  C   UNK A   0       5.242  -1.204  25.538  0.00  0.00    +0.220 A 
ATOM      6  N   UNK A   0       5.161  -2.554  25.209  0.00  0.00    -0.284 N 
ATOM      7  H   UNK A   0       4.318  -2.968  25.572  0.00  0.00    +0.155 HD
ATOM      8  N   UNK A   0       6.214  -0.466  25.011  0.00  0.00    -0.212 NA
ENDROOT
BRANCH   6   9
ATOM      9  C   UNK A   0       6.062  -3.391  24.529  0.00  0.00    +0.034 A 
ATOM     10  C   UNK A   0       7.252  -3.775  25.163  0.00  0.00    +0.026 A 
ATOM     11  C   UNK A   0       8.162  -4.653  24.550  0.00  0.00    -0.048 A 
ATOM     12  C   UNK A   0       9.433  -5.027  25.253  0.00  0.00    +0.044 C 
ATOM     13  C   UNK A   0       7.867  -5.176  23.287  0.00  0.00    +0.006 A 
ATOM     14  C   UNK A   0       6.679  -4.831  22.637  0.00  0.00    -0.048 A 
ATOM     15  C   UNK A   0       6.370  -5.395  21.282  0.00  0.00    +0.044 C 
ATOM     16  C   UNK A   0       5.794  -3.945  23.267  0.00  0.00    +0.026 A 
ENDBRANCH   6   9
BRANCH   1  19
ATOM     17  C   UNK A   0       8.836   3.320  23.778  0.00  0.00    +0.097 A 
ATOM     18  S   UNK A   0       7.634   3.199  24.985  0.00  0.00    -0.061 S 
ATOM     19  C   UNK A   0       7.343   1.556  24.572  0.00  0.00    +0.128 A 
ATOM     20  N   UNK A   0       8.145   1.077  23.641  0.00  0.00    -0.242 NA
ATOM     21  C   UNK A   0       8.986   2.087  23.158  0.00  0.00    +0.058 A 
ATOM     22  C   UNK A   0       9.921   1.724  22.057  0.00  0.00    +0.067 C 
BRANCH  17  25
ATOM     23  N   ALA A   1      10.899   4.524  23.631  0.00  0.00    -0.306 N 
ATOM     24  H   ALA A   1      11.314   3.610  23.789  0.00  0.00    +0.149 HD
ATOM     25  C   UNK A   0       9.519   4.583  23.553  0.00  0.00    +0.253 C 
ATOM     26  O   UNK A   0       8.940   5.636  23.311  0.00  0.00    -0.270 OA
BRANCH  23  27
ATOM     27  CA  ALA A   1      11.805   5.615  23.287  0.00  0.00    +0.095 C 
ATOM     28  CB  ALA A   1      12.274   6.361  24.532  0.00  0.00    +0.030 C 
BRANCH  27  29
ATOM     29  C   ALA A   1      12.980   5.156  22.411  0.00  0.00    +0.177 C 
BRANCH  29  30
ATOM     30  O   ALA A   1      14.163   5.039  23.205  0.00  0.00    -0.393 OA
ATOM     31  H   ALA A   1      13.873   4.669  24.059  0.00  0.00    +0.209 HD
ENDBRANCH  29  30
ENDBRANCH  27  29
ENDBRANCH  23  27
ENDBRANCH  17  25
ENDBRANCH   1  19
TORSDOF 6
ENDMDL
MODEL 2
REMARK VINA RESULT:      -6.9      3.237      4.879
REMARK  Name = 
REMARK  10 active torsions:
REMARK  status: ('A' for Active; 'I' for Inactive)
REMARK    1  A    between atoms: CA_2  and  CB_3
REMARK    2  A    between atoms: CA_2  and  C_4
REMARK    3  A    between atoms: CA_2  and  N_6
REMARK    4  A    between atoms: C_4  and  O_5
REMARK    5  A    between atoms: C_7  and  C_9
REMARK    6  A    between atoms: C_10  and  C_11
REMARK    7  A    between atoms: C_13  and  C_15
REMARK    8  A    between atoms: N_18  and  C_19
REMARK    9  A    between atoms: C_21  and  C_22
REMARK   10  A    between atoms: C_24  and  C_25
REMARK                            x       y       z     vdW  Elec       q    Type
REMARK                         _______ _______ _______ _____ _____    ______ ____
ROOT
ATOM      1  C   UNK A   0       8.467  -0.513  23.180  0.00  0.00    +0.101 A 
ATOM      2  C   UNK A   0       9.628  -0.203  22.524  0.00  0.00    +0.050 A 
ATOM      3  C   UNK A   0      10.548  -1.226  22.477  0.00  0.00    +0.116 A 
ATOM      4  N   UNK A   0      10.346  -2.456  23.007  0.00  0.00    -0.223 NA
ATOM      5  C   UNK A   0       9.162  -2.680  23.590  0.00  0.00    +0.220 A 
ATOM      6  N   UNK A   0       8.930  -3.927  24.164  0.00  0.00    -0.284 N 
ATOM      7  H   UNK A   0       9.753  -4.505  24.127  0.00  0.00    +0.155 HD
ATOM      8  N   UNK A   0       8.231  -1.737  23.690  0.00  0.00    -0.212 NA
ENDROOT
BRANCH   6   9
ATOM      9  C   UNK A   0       7.761  -4.485  24.709  0.00  0.00    +0.034 A 
ATOM     10  C   UNK A   0       6.743  -4.916  23.847  0.00  0.00    +0.026 A 
ATOM     11  C   UNK A   0       5.577  -5.531  24.335  0.00  0.00    -0.048 A 
ATOM     12  C   UNK A   0       4.502  -5.964  23.383  0.00  0.00    +0.044 C 
ATOM     13  C   UNK A   0       5.434  -5.738  25.711  0.00  0.00    +0.006 A 
ATOM     14  C   UNK A   0       6.440  -5.340  26.595  0.00  0.00    -0.048 A 
ATOM     15  C   UNK A   0       6.280  -5.565  28.069  0.00  0.00    +0.044 C 
ATOM     16  C   UNK A   0       7.589  -4.721  26.082  0.00  0.00    +0.026 A 
ENDBRANCH   6   9
BRANCH   1  19
ATOM     17  C   UNK A   0       5.909   2.384  23.240  0.00  0.00    +0.097 A 
ATOM     18  S   UNK A   0       7.144   1.700  22.279  0.00  0.00    -0.061 S 
ATOM     19  C   UNK A   0       7.389   0.450  23.434  0.00  0.00    +0.128 A 
ATOM     20  N   UNK A   0       6.551   0.474  24.452  0.00  0.00    -0.242 NA
ATOM     21  C   UNK A   0       5.716   1.595  24.366  0.00  0.00    +0.058 A 
ATOM     22  C   UNK A   0       4.742   1.803  25.474  0.00  0.00    +0.067 C 
BRANCH  17  25
ATOM     23  N   ALA A   1       5.902   4.775  23.143  0.00  0.00    -0.306 N 
ATOM     24  H   ALA A   1       6.802   4.685  23.605  0.00  0.00    +0.149 HD
ATOM     25  C   UNK A   0       5.244   3.604  22.813  0.00  0.00    +0.253 C 
ATOM     26  O   UNK A   0       4.179   3.622  22.207  0.00  0.00    -0.270 OA
BRANCH  23  27
ATOM     27  CA  ALA A   1       5.519   6.108  22.688  0.00  0.00    +0.095 C 
ATOM     28  CB  ALA A   1       4.803   6.886  23.787  0.00  0.00    +0.030 C 
BRANCH  27  29
ATOM     29  C   ALA A   1       6.700   6.895  22.099  0.00  0.00    +0.177 C 
BRANCH  29  30
ATOM     30  O   ALA A   1       7.557   6.014  21.371  0.00  0.00    -0.393 OA
ATOM     31  H   ALA A   1       7.417   5.130  21.756  0.00  0.00    +0.209 HD
ENDBRANCH  29  30
ENDBRANCH  27  29
ENDBRANCH  23  27
ENDBRANCH  17  25
ENDBRANCH   1  19
TORSDOF 6
ENDMDL
MODEL 3
REMARK VINA RESULT:      -6.7      3.398      8.660
REMARK  Name = 
REMARK  10 active torsions:
REMARK  status: ('A' for Active; 'I' for Inactive)
REMARK    1  A    between atoms: CA_2  and  CB_3
REMARK    2  A    between atoms: CA_2  and  C_4
REMARK    3  A    between atoms: CA_2  and  N_6
REMARK    4  A    between atoms: C_4  and  O_5
REMARK    5  A    between atoms: C_7  and  C_9
REMARK    6  A    between atoms: C_10  and  C_11
REMARK    7  A    between atoms: C_13  and  C_15
REMARK    8  A    between atoms: N_18  and  C_19
REMARK    9  A    between atoms: C_21  and  C_22
REMARK   10  A    between atoms: C_24  and  C_25
REMARK                            x       y       z     vdW  Elec       q    Type
REMARK                         _______ _______ _______ _____ _____    ______ ____
ROOT
ATOM      1  C   UNK A   0       7.172   2.914  23.144  0.00  0.00    +0.101 A 
ATOM      2  C   UNK A   0       5.903   3.078  22.655  0.00  0.00    +0.050 A 
ATOM      3  C   UNK A   0       5.511   4.389  22.512  0.00  0.00    +0.116 A 
ATOM      4  N   UNK A   0       6.294   5.454  22.802  0.00  0.00    -0.223 NA
ATOM      5  C   UNK A   0       7.536   5.197  23.232  0.00  0.00    +0.220 A 
ATOM      6  N   UNK A   0       8.362   6.269  23.560  0.00  0.00    -0.284 N 
ATOM      7  H   UNK A   0       7.867   7.144  23.495  0.00  0.00    +0.155 HD
ATOM      8  N   UNK A   0       7.981   3.957  23.412  0.00  0.00    -0.212 NA
ENDROOT
BRANCH   6   9
ATOM      9  C   UNK A   0       9.725   6.310  23.896  0.00  0.00    +0.034 A 
ATOM     10  C   UNK A   0      10.100   6.682  25.195  0.00  0.00    +0.026 A 
ATOM     11  C   UNK A   0      11.446   6.688  25.599  0.00  0.00    -0.048 A 
ATOM     12  C   UNK A   0      11.808   7.108  26.993  0.00  0.00    +0.044 C 
ATOM     13  C   UNK A   0      12.436   6.295  24.694  0.00  0.00    +0.006 A 
ATOM     14  C   UNK A   0      12.095   5.898  23.399  0.00  0.00    -0.048 A 
ATOM     15  C   UNK A   0      13.163   5.479  22.433  0.00  0.00    +0.044 C 
ATOM     16  C   UNK A   0      10.746   5.911  23.018  0.00  0.00    +0.026 A 
ENDBRANCH   6   9
BRANCH   1  19
ATOM     17  C   UNK A   0       8.379  -0.428  24.661  0.00  0.00    +0.097 A 
ATOM     18  S   UNK A   0       7.304   0.868  24.946  0.00  0.00    -0.061 S 
ATOM     19  C   UNK A   0       7.763   1.611  23.465  0.00  0.00    +0.128 A 
ATOM     20  N   UNK A   0       8.611   0.908  22.741  0.00  0.00    -0.242 NA
ATOM     21  C   UNK A   0       8.994  -0.250  23.429  0.00  0.00    +0.058 A 
ATOM     22  C   UNK A   0       9.997  -1.133  22.770  0.00  0.00    +0.067 C 
BRANCH  17  25
ATOM     23  N   ALA A   1       8.212  -2.758  25.185  0.00  0.00    -0.306 N 
ATOM     24  H   ALA A   1       7.965  -2.846  24.204  0.00  0.00    +0.149 HD
ATOM     25  C   UNK A   0       8.519  -1.490  25.645  0.00  0.00    +0.253 C 
ATOM     26  O   UNK A   0       8.879  -1.302  26.802  0.00  0.00    -0.270 OA
BRANCH  23  27
ATOM     27  CA  ALA A   1       8.427  -3.994  25.930  0.00  0.00    +0.095 C 
ATOM     28  CB  ALA A   1       7.212  -4.349  26.781  0.00  0.00    +0.030 C 
BRANCH  27  29
ATOM     29  C   ALA A   1       8.863  -5.160  25.030  0.00  0.00    +0.177 C 
BRANCH  29  30
ATOM     30  O   ALA A   1      10.289  -5.255  25.013  0.00  0.00    -0.393 OA
ATOM     31  H   ALA A   1      10.495  -6.187  25.208  0.00  0.00    +0.209 HD
ENDBRANCH  29  30
ENDBRANCH  27  29
ENDBRANCH  23  27
ENDBRANCH  17  25
ENDBRANCH   1  19
TORSDOF 6
ENDMDL
MODEL 4
REMARK VINA RESULT:      -6.6      4.387      8.910
REMARK  Name = 
REMARK  10 active torsions:
REMARK  status: ('A' for Active; 'I' for Inactive)
REMARK    1  A    between atoms: CA_2  and  CB_3
REMARK    2  A    between atoms: CA_2  and  C_4
REMARK    3  A    between atoms: CA_2  and  N_6
REMARK    4  A    between atoms: C_4  and  O_5
REMARK    5  A    between atoms: C_7  and  C_9
REMARK    6  A    between atoms: C_10  and  C_11
REMARK    7  A    between atoms: C_13  and  C_15
REMARK    8  A    between atoms: N_18  and  C_19
REMARK    9  A    between atoms: C_21  and  C_22
REMARK   10  A    between atoms: C_24  and  C_25
REMARK                            x       y       z     vdW  Elec       q    Type
REMARK                         _______ _______ _______ _____ _____    ______ ____
ROOT
ATOM      1  C   UNK A   0       8.562  -0.784  22.861  0.00  0.00    +0.101 A 
ATOM      2  C   UNK A   0       9.531  -0.488  21.940  0.00  0.00    +0.050 A 
ATOM      3  C   UNK A   0       9.783   0.857  21.790  0.00  0.00    +0.116 A 
ATOM      4  N   UNK A   0       9.159   1.832  22.491  0.00  0.00    -0.223 NA
ATOM      5  C   UNK A   0       8.258   1.444  23.401  0.00  0.00    +0.220 A 
ATOM      6  N   UNK A   0       7.582   2.422  24.126  0.00  0.00    -0.284 N 
ATOM      7  H   UNK A   0       7.820   3.346  23.803  0.00  0.00    +0.155 HD
ATOM      8  N   UNK A   0       7.947   0.166  23.592  0.00  0.00    -0.212 NA
ENDROOT
BRANCH   6   9
ATOM      9  C   UNK A   0       6.705   2.316  25.219  0.00  0.00    +0.034 A 
ATOM     10  C   UNK A   0       7.234   2.145  26.506  0.00  0.00    +0.026 A 
ATOM     11  C   UNK A   0       6.406   2.088  27.640  0.00  0.00    -0.048 A 
ATOM     12  C   UNK A   0       7.008   1.886  29.000  0.00  0.00    +0.044 C 
ATOM     13  C   UNK A   0       5.022   2.224  27.488  0.00  0.00    +0.006 A 
ATOM     14  C   UNK A   0       4.465   2.418  26.221  0.00  0.00    -0.048 A 
ATOM     15  C   UNK A   0       2.980   2.563  26.065  0.00  0.00    +0.044 C 
ATOM     16  C   UNK A   0       5.314   2.462  25.106  0.00  0.00    +0.026 A 
ENDBRANCH   6   9
BRANCH   1  19
ATOM     17  C   UNK A   0       7.337  -4.169  24.267  0.00  0.00    +0.097 A 
ATOM     18  S   UNK A   0       7.751  -2.584  24.748  0.00  0.00    -0.061 S 
ATOM     19  C   UNK A   0       8.063  -2.140  23.117  0.00  0.00    +0.128 A 
ATOM     20  N   UNK A   0       7.801  -3.084  22.234  0.00  0.00    -0.242 NA
ATOM     21  C   UNK A   0       7.411  -4.261  22.884  0.00  0.00    +0.058 A 
ATOM     22  C   UNK A   0       7.130  -5.449  22.029  0.00  0.00    +0.067 C 
BRANCH  17  25
ATOM     23  N   ALA A   1       5.625  -5.457  25.335  0.00  0.00    -0.306 N 
ATOM     24  H   ALA A   1       5.017  -4.997  24.664  0.00  0.00    +0.149 HD
ATOM     25  C   UNK A   0       6.975  -5.163  25.265  0.00  0.00    +0.253 C 
ATOM     26  O   UNK A   0       7.786  -5.713  26.001  0.00  0.00    -0.270 OA
BRANCH  23  27
ATOM     27  CA  ALA A   1       5.042  -6.527  26.138  0.00  0.00    +0.095 C 
ATOM     28  CB  ALA A   1       4.570  -6.011  27.494  0.00  0.00    +0.030 C 
BRANCH  27  29
ATOM     29  C   ALA A   1       3.935  -7.290  25.393  0.00  0.00    +0.177 C 
BRANCH  29  30
ATOM     30  O   ALA A   1       4.368  -7.604  24.068  0.00  0.00    -0.393 OA
ATOM     31  H   ALA A   1       5.301  -7.873  24.151  0.00  0.00    +0.209 HD
ENDBRANCH  29  30
ENDBRANCH  27  29
ENDBRANCH  23  27
ENDBRANCH  17  25
ENDBRANCH   1  19
TORSDOF 6
ENDMDL
MODEL 5
REMARK VINA RESULT:      -6.6      3.446      5.321
REMARK  Name = 
REMARK  10 active torsions:
REMARK  status: ('A' for Active; 'I' for Inactive)
REMARK    1  A    between atoms: CA_2  and  CB_3
REMARK    2  A    between atoms: CA_2  and  C_4
REMARK    3  A    between atoms: CA_2  and  N_6
REMARK    4  A    between atoms: C_4  and  O_5
REMARK    5  A    between atoms: C_7  and  C_9
REMARK    6  A    between atoms: C_10  and  C_11
REMARK    7  A    between atoms: C_13  and  C_15
REMARK    8  A    between atoms: N_18  and  C_19
REMARK    9  A    between atoms: C_21  and  C_22
REMARK   10  A    between atoms: C_24  and  C_25
REMARK                            x       y       z     vdW  Elec       q    Type
REMARK                         _______ _______ _______ _____ _____    ______ ____
ROOT
ATOM      1  C   UNK A   0       8.642  -3.203  24.753  0.00  0.00    +0.101 A 
ATOM      2  C   UNK A   0       9.746  -4.002  24.887  0.00  0.00    +0.050 A 
ATOM      3  C   UNK A   0       9.483  -5.261  25.377  0.00  0.00    +0.116 A 
ATOM      4  N   UNK A   0       8.247  -5.713  25.692  0.00  0.00    -0.223 NA
ATOM      5  C   UNK A   0       7.223  -4.876  25.486  0.00  0.00    +0.220 A 
ATOM      6  N   UNK A   0       5.940  -5.301  25.819  0.00  0.00    -0.284 N 
ATOM      7  H   UNK A   0       5.958  -6.205  26.262  0.00  0.00    +0.155 HD
ATOM      8  N   UNK A   0       7.399  -3.639  25.033  0.00  0.00    -0.212 NA
ENDROOT
BRANCH   6   9
ATOM      9  C   UNK A   0       4.686  -4.709  25.590  0.00  0.00    +0.034 A 
ATOM     10  C   UNK A   0       3.852  -5.236  24.595  0.00  0.00    +0.026 A 
ATOM     11  C   UNK A   0       2.567  -4.717  24.361  0.00  0.00    -0.048 A 
ATOM     12  C   UNK A   0       1.710  -5.297  23.274  0.00  0.00    +0.044 C 
ATOM     13  C   UNK A   0       2.098  -3.662  25.151  0.00  0.00    +0.006 A 
ATOM     14  C   UNK A   0       2.896  -3.129  26.166  0.00  0.00    -0.048 A 
ATOM     15  C   UNK A   0       2.386  -1.998  27.009  0.00  0.00    +0.044 C 
ATOM     16  C   UNK A   0       4.177  -3.659  26.372  0.00  0.00    +0.026 A 
ENDBRANCH   6   9
BRANCH   1  19
ATOM     17  C   UNK A   0       8.223   0.308  23.194  0.00  0.00    +0.097 A 
ATOM     18  S   UNK A   0       7.493  -1.235  23.250  0.00  0.00    -0.061 S 
ATOM     19  C   UNK A   0       8.696  -1.795  24.342  0.00  0.00    +0.128 A 
ATOM     20  N   UNK A   0       9.560  -0.876  24.723  0.00  0.00    -0.242 NA
ATOM     21  C   UNK A   0       9.317   0.328  24.049  0.00  0.00    +0.058 A 
ATOM     22  C   UNK A   0      10.243   1.461  24.325  0.00  0.00    +0.067 C 
BRANCH  17  25
ATOM     23  N   ALA A   1       6.647   2.086  22.908  0.00  0.00    -0.306 N 
ATOM     24  H   ALA A   1       6.404   1.877  23.872  0.00  0.00    +0.149 HD
ATOM     25  C   UNK A   0       7.669   1.347  22.341  0.00  0.00    +0.253 C 
ATOM     26  O   UNK A   0       8.060   1.570  21.201  0.00  0.00    -0.270 OA
BRANCH  23  27
ATOM     27  CA  ALA A   1       6.045   3.276  22.315  0.00  0.00    +0.095 C 
ATOM     28  CB  ALA A   1       4.536   3.305  22.535  0.00  0.00    +0.030 C 
BRANCH  27  29
ATOM     29  C   ALA A   1       6.722   4.575  22.778  0.00  0.00    +0.177 C 
BRANCH  29  30
ATOM     30  O   ALA A   1       7.405   5.187  21.682  0.00  0.00    -0.393 OA
ATOM     31  H   ALA A   1       7.573   4.471  21.043  0.00  0.00    +0.209 HD
ENDBRANCH  29  30
ENDBRANCH  27  29
ENDBRANCH  23  27
ENDBRANCH  17  25
ENDBRANCH   1  19
TORSDOF 6
ENDMDL
MODEL 6
REMARK VINA RESULT:      -6.5      4.422      8.945
REMARK  Name = 
REMARK  10 active torsions:
REMARK  status: ('A' for Active; 'I' for Inactive)
REMARK    1  A    between atoms: CA_2  and  CB_3
REMARK    2  A    between atoms: CA_2  and  C_4
REMARK    3  A    between atoms: CA_2  and  N_6
REMARK    4  A    between atoms: C_4  and  O_5
REMARK    5  A    between atoms: C_7  and  C_9
REMARK    6  A    between atoms: C_10  and  C_11
REMARK    7  A    between atoms: C_13  and  C_15
REMARK    8  A    between atoms: N_18  and  C_19
REMARK    9  A    between atoms: C_21  and  C_22
REMARK   10  A    between atoms: C_24  and  C_25
REMARK                            x       y       z     vdW  Elec       q    Type
REMARK                         _______ _______ _______ _____ _____    ______ ____
ROOT
ATOM      1  C   UNK A   0       9.040  -0.505  24.336  0.00  0.00    +0.101 A 
ATOM      2  C   UNK A   0      10.393  -0.311  24.424  0.00  0.00    +0.050 A 
ATOM      3  C   UNK A   0      10.787   1.006  24.359  0.00  0.00    +0.116 A 
ATOM      4  N   UNK A   0       9.934   2.051  24.237  0.00  0.00    -0.223 NA
ATOM      5  C   UNK A   0       8.627   1.767  24.203  0.00  0.00    +0.220 A 
ATOM      6  N   UNK A   0       7.722   2.816  24.058  0.00  0.00    -0.284 N 
ATOM      7  H   UNK A   0       8.199   3.692  23.918  0.00  0.00    +0.155 HD
ATOM      8  N   UNK A   0       8.170   0.519  24.244  0.00  0.00    -0.212 NA
ENDROOT
BRANCH   6   9
ATOM      9  C   UNK A   0       6.319   2.837  24.129  0.00  0.00    +0.034 A 
ATOM     10  C   UNK A   0       5.694   2.669  25.373  0.00  0.00    +0.026 A 
ATOM     11  C   UNK A   0       4.297   2.737  25.509  0.00  0.00    -0.048 A 
ATOM     12  C   UNK A   0       3.664   2.535  26.854  0.00  0.00    +0.044 C 
ATOM     13  C   UNK A   0       3.509   2.997  24.384  0.00  0.00    +0.006 A 
ATOM     14  C   UNK A   0       4.102   3.191  23.134  0.00  0.00    -0.048 A 
ATOM     15  C   UNK A   0       3.250   3.470  21.930  0.00  0.00    +0.044 C 
ATOM     16  C   UNK A   0       5.497   3.110  23.024  0.00  0.00    +0.026 A 
ENDBRANCH   6   9
BRANCH   1  19
ATOM     17  C   UNK A   0       7.467  -3.979  24.962  0.00  0.00    +0.097 A 
ATOM     18  S   UNK A   0       8.037  -2.593  25.781  0.00  0.00    -0.061 S 
ATOM     19  C   UNK A   0       8.405  -1.826  24.287  0.00  0.00    +0.128 A 
ATOM     20  N   UNK A   0       8.054  -2.514  23.219  0.00  0.00    -0.242 NA
ATOM     21  C   UNK A   0       7.541  -3.763  23.592  0.00  0.00    +0.058 A 
ATOM     22  C   UNK A   0       7.148  -4.692  22.497  0.00  0.00    +0.067 C 
BRANCH  17  25
ATOM     23  N   ALA A   1       5.646  -5.396  25.597  0.00  0.00    -0.306 N 
ATOM     24  H   ALA A   1       5.112  -4.804  24.968  0.00  0.00    +0.149 HD
ATOM     25  C   UNK A   0       6.998  -5.130  25.716  0.00  0.00    +0.253 C 
ATOM     26  O   UNK A   0       7.726  -5.829  26.412  0.00  0.00    -0.270 OA
BRANCH  23  27
ATOM     27  CA  ALA A   1       4.976  -6.581  26.124  0.00  0.00    +0.095 C 
ATOM     28  CB  ALA A   1       4.313  -6.293  27.468  0.00  0.00    +0.030 C 
BRANCH  27  29
ATOM     29  C   ALA A   1       3.997  -7.204  25.118  0.00  0.00    +0.177 C 
BRANCH  29  30
ATOM     30  O   ALA A   1       4.641  -7.377  23.854  0.00  0.00    -0.393 OA
ATOM     31  H   ALA A   1       5.104  -8.233  23.908  0.00  0.00    +0.209 HD
ENDBRANCH  29  30
ENDBRANCH  27  29
ENDBRANCH  23  27
ENDBRANCH  17  25
ENDBRANCH   1  19
TORSDOF 6
ENDMDL
MODEL 7
REMARK VINA RESULT:      -6.4      4.480      9.152
REMARK  Name = 
REMARK  10 active torsions:
REMARK  status: ('A' for Active; 'I' for Inactive)
REMARK    1  A    between atoms: CA_2  and  CB_3
REMARK    2  A    between atoms: CA_2  and  C_4
REMARK    3  A    between atoms: CA_2  and  N_6
REMARK    4  A    between atoms: C_4  and  O_5
REMARK    5  A    between atoms: C_7  and  C_9
REMARK    6  A    between atoms: C_10  and  C_11
REMARK    7  A    between atoms: C_13  and  C_15
REMARK    8  A    between atoms: N_18  and  C_19
REMARK    9  A    between atoms: C_21  and  C_22
REMARK   10  A    between atoms: C_24  and  C_25
REMARK                            x       y       z     vdW  Elec       q    Type
REMARK                         _______ _______ _______ _____ _____    ______ ____
ROOT
ATOM      1  C   UNK A   0       9.049  -0.821  24.432  0.00  0.00    +0.101 A 
ATOM      2  C   UNK A   0      10.216  -0.514  23.784  0.00  0.00    +0.050 A 
ATOM      3  C   UNK A   0      10.567   0.815  23.839  0.00  0.00    +0.116 A 
ATOM      4  N   UNK A   0       9.853   1.766  24.486  0.00  0.00    -0.223 NA
ATOM      5  C   UNK A   0       8.749   1.364  25.128  0.00  0.00    +0.220 A 
ATOM      6  N   UNK A   0       7.979   2.320  25.787  0.00  0.00    -0.284 N 
ATOM      7  H   UNK A   0       8.333   3.249  25.626  0.00  0.00    +0.155 HD
ATOM      8  N   UNK A   0       8.336   0.101  25.107  0.00  0.00    -0.212 NA
ENDROOT
BRANCH   6   9
ATOM      9  C   UNK A   0       6.873   2.179  26.642  0.00  0.00    +0.034 A 
ATOM     10  C   UNK A   0       5.580   2.317  26.118  0.00  0.00    +0.026 A 
ATOM     11  C   UNK A   0       4.439   2.133  26.918  0.00  0.00    -0.048 A 
ATOM     12  C   UNK A   0       3.072   2.306  26.324  0.00  0.00    +0.044 C 
ATOM     13  C   UNK A   0       4.592   1.785  28.263  0.00  0.00    +0.006 A 
ATOM     14  C   UNK A   0       5.866   1.618  28.811  0.00  0.00    -0.048 A 
ATOM     15  C   UNK A   0       6.023   1.245  30.255  0.00  0.00    +0.044 C 
ATOM     16  C   UNK A   0       6.988   1.817  27.994  0.00  0.00    +0.026 A 
ENDBRANCH   6   9
BRANCH   1  19
ATOM     17  C   UNK A   0       7.438  -4.255  25.169  0.00  0.00    +0.097 A 
ATOM     18  S   UNK A   0       7.894  -2.793  25.925  0.00  0.00    -0.061 S 
ATOM     19  C   UNK A   0       8.434  -2.153  24.424  0.00  0.00    +0.128 A 
ATOM     20  N   UNK A   0       8.222  -2.938  23.386  0.00  0.00    -0.242 NA
ATOM     21  C   UNK A   0       7.677  -4.158  23.805  0.00  0.00    +0.058 A 
ATOM     22  C   UNK A   0       7.427  -5.186  22.756  0.00  0.00    +0.067 C 
BRANCH  17  25
ATOM     23  N   ALA A   1       5.552  -5.614  25.739  0.00  0.00    -0.306 N 
ATOM     24  H   ALA A   1       5.083  -5.068  25.021  0.00  0.00    +0.149 HD
ATOM     25  C   UNK A   0       6.891  -5.346  25.960  0.00  0.00    +0.253 C 
ATOM     26  O   UNK A   0       7.545  -5.994  26.769  0.00  0.00    -0.270 OA
BRANCH  23  27
ATOM     27  CA  ALA A   1       4.824  -6.753  26.288  0.00  0.00    +0.095 C 
ATOM     28  CB  ALA A   1       4.233  -6.427  27.656  0.00  0.00    +0.030 C 
BRANCH  27  29
ATOM     29  C   ALA A   1       3.767  -7.304  25.319  0.00  0.00    +0.177 C 
BRANCH  29  30
ATOM     30  O   ALA A   1       4.375  -7.624  24.066  0.00  0.00    -0.393 OA
ATOM     31  H   ALA A   1       4.996  -6.897  23.880  0.00  0.00    +0.209 HD
ENDBRANCH  29  30
ENDBRANCH  27  29
ENDBRANCH  23  27
ENDBRANCH  17  25
ENDBRANCH   1  19
TORSDOF 6
ENDMDL
MODEL 8
REMARK VINA RESULT:      -6.4      4.331      8.857
REMARK  Name = 
REMARK  10 active torsions:
REMARK  status: ('A' for Active; 'I' for Inactive)
REMARK    1  A    between atoms: CA_2  and  CB_3
REMARK    2  A    between atoms: CA_2  and  C_4
REMARK    3  A    between atoms: CA_2  and  N_6
REMARK    4  A    between atoms: C_4  and  O_5
REMARK    5  A    between atoms: C_7  and  C_9
REMARK    6  A    between atoms: C_10  and  C_11
REMARK    7  A    between atoms: C_13  and  C_15
REMARK    8  A    between atoms: N_18  and  C_19
REMARK    9  A    between atoms: C_21  and  C_22
REMARK   10  A    between atoms: C_24  and  C_25
REMARK                            x       y       z     vdW  Elec       q    Type
REMARK                         _______ _______ _______ _____ _____    ______ ____
ROOT
ATOM      1  C   UNK A   0       9.042  -0.399  23.099  0.00  0.00    +0.101 A 
ATOM      2  C   UNK A   0       9.831   0.027  22.064  0.00  0.00    +0.050 A 
ATOM      3  C   UNK A   0       9.817   1.387  21.858  0.00  0.00    +0.116 A 
ATOM      4  N   UNK A   0       9.110   2.264  22.609  0.00  0.00    -0.223 NA
ATOM      5  C   UNK A   0       8.402   1.760  23.627  0.00  0.00    +0.220 A 
ATOM      6  N   UNK A   0       7.647   2.632  24.407  0.00  0.00    -0.284 N 
ATOM      7  H   UNK A   0       7.676   3.569  24.040  0.00  0.00    +0.155 HD
ATOM      8  N   UNK A   0       8.352   0.456  23.879  0.00  0.00    -0.212 NA
ENDROOT
BRANCH   6   9
ATOM      9  C   UNK A   0       6.933   2.417  25.598  0.00  0.00    +0.034 A 
ATOM     10  C   UNK A   0       5.931   1.437  25.629  0.00  0.00    +0.026 A 
ATOM     11  C   UNK A   0       5.224   1.144  26.808  0.00  0.00    -0.048 A 
ATOM     12  C   UNK A   0       4.147   0.100  26.796  0.00  0.00    +0.044 C 
ATOM     13  C   UNK A   0       5.539   1.829  27.985  0.00  0.00    +0.006 A 
ATOM     14  C   UNK A   0       6.548   2.796  27.994  0.00  0.00    -0.048 A 
ATOM     15  C   UNK A   0       6.880   3.527  29.261  0.00  0.00    +0.044 C 
ATOM     16  C   UNK A   0       7.231   3.075  26.802  0.00  0.00    +0.026 A 
ENDBRANCH   6   9
BRANCH   1  19
ATOM     17  C   UNK A   0       7.833  -4.035  23.603  0.00  0.00    +0.097 A 
ATOM     18  S   UNK A   0       7.481  -2.609  22.731  0.00  0.00    -0.061 S 
ATOM     19  C   UNK A   0       8.829  -1.811  23.439  0.00  0.00    +0.128 A 
ATOM     20  N   UNK A   0       9.564  -2.571  24.225  0.00  0.00    -0.242 NA
ATOM     21  C   UNK A   0       8.987  -3.841  24.350  0.00  0.00    +0.058 A 
ATOM     22  C   UNK A   0       9.667  -4.812  25.253  0.00  0.00    +0.067 C 
BRANCH  17  25
ATOM     23  N   ALA A   1       6.067  -5.372  24.511  0.00  0.00    -0.306 N 
ATOM     24  H   ALA A   1       6.050  -4.659  25.234  0.00  0.00    +0.149 HD
ATOM     25  C   UNK A   0       6.970  -5.198  23.477  0.00  0.00    +0.253 C 
ATOM     26  O   UNK A   0       7.019  -5.983  22.537  0.00  0.00    -0.270 OA
BRANCH  23  27
ATOM     27  CA  ALA A   1       4.998  -6.365  24.532  0.00  0.00    +0.095 C 
ATOM     28  CB  ALA A   1       4.663  -6.791  25.957  0.00  0.00    +0.030 C 
BRANCH  27  29
ATOM     29  C   ALA A   1       3.753  -5.911  23.756  0.00  0.00    +0.177 C 
BRANCH  29  30
ATOM     30  O   ALA A   1       3.908  -6.210  22.367  0.00  0.00    -0.393 OA
ATOM     31  H   ALA A   1       4.694  -6.783  22.306  0.00  0.00    +0.209 HD
ENDBRANCH  29  30
ENDBRANCH  27  29
ENDBRANCH  23  27
ENDBRANCH  17  25
ENDBRANCH   1  19
TORSDOF 6
ENDMDL
MODEL 9
REMARK VINA RESULT:      -6.4      4.470      9.416
REMARK  Name = 
REMARK  10 active torsions:
REMARK  status: ('A' for Active; 'I' for Inactive)
REMARK    1  A    between atoms: CA_2  and  CB_3
REMARK    2  A    between atoms: CA_2  and  C_4
REMARK    3  A    between atoms: CA_2  and  N_6
REMARK    4  A    between atoms: C_4  and  O_5
REMARK    5  A    between atoms: C_7  and  C_9
REMARK    6  A    between atoms: C_10  and  C_11
REMARK    7  A    between atoms: C_13  and  C_15
REMARK    8  A    between atoms: N_18  and  C_19
REMARK    9  A    between atoms: C_21  and  C_22
REMARK   10  A    between atoms: C_24  and  C_25
REMARK                            x       y       z     vdW  Elec       q    Type
REMARK                         _______ _______ _______ _____ _____    ______ ____
ROOT
ATOM      1  C   UNK A   0       8.031  -0.992  23.027  0.00  0.00    +0.101 A 
ATOM      2  C   UNK A   0       8.941  -1.778  22.372  0.00  0.00    +0.050 A 
ATOM      3  C   UNK A   0       9.781  -1.094  21.524  0.00  0.00    +0.116 A 
ATOM      4  N   UNK A   0       9.753   0.247  21.343  0.00  0.00    -0.223 NA
ATOM      5  C   UNK A   0       8.859   0.939  22.060  0.00  0.00    +0.220 A 
ATOM      6  N   UNK A   0       8.789   2.318  21.882  0.00  0.00    -0.284 N 
ATOM      7  H   UNK A   0       9.404   2.623  21.146  0.00  0.00    +0.155 HD
ATOM      8  N   UNK A   0       8.002   0.347  22.886  0.00  0.00    -0.212 NA
ENDROOT
BRANCH   6   9
ATOM      9  C   UNK A   0       8.065   3.300  22.581  0.00  0.00    +0.034 A 
ATOM     10  C   UNK A   0       8.719   4.072  23.550  0.00  0.00    +0.026 A 
ATOM     11  C   UNK A   0       8.057   5.103  24.239  0.00  0.00    -0.048 A 
ATOM     12  C   UNK A   0       8.786   5.897  25.282  0.00  0.00    +0.044 C 
ATOM     13  C   UNK A   0       6.720   5.381  23.938  0.00  0.00    +0.006 A 
ATOM     14  C   UNK A   0       6.046   4.644  22.962  0.00  0.00    -0.048 A 
ATOM     15  C   UNK A   0       4.611   4.948  22.645  0.00  0.00    +0.044 C 
ATOM     16  C   UNK A   0       6.727   3.615  22.296  0.00  0.00    +0.026 A 
ENDBRANCH   6   9
BRANCH   1  19
ATOM     17  C   UNK A   0       4.984  -2.681  24.699  0.00  0.00    +0.097 A 
ATOM     18  S   UNK A   0       5.846  -2.617  23.226  0.00  0.00    -0.061 S 
ATOM     19  C   UNK A   0       6.978  -1.516  23.905  0.00  0.00    +0.128 A 
ATOM     20  N   UNK A   0       6.791  -1.258  25.184  0.00  0.00    -0.242 NA
ATOM     21  C   UNK A   0       5.633  -1.898  25.644  0.00  0.00    +0.058 A 
ATOM     22  C   UNK A   0       5.244  -1.664  27.063  0.00  0.00    +0.067 C 
BRANCH  17  25
ATOM     23  N   ALA A   1       3.898  -4.787  24.357  0.00  0.00    -0.306 N 
ATOM     24  H   ALA A   1       4.817  -5.084  24.045  0.00  0.00    +0.149 HD
ATOM     25  C   UNK A   0       3.775  -3.483  24.802  0.00  0.00    +0.253 C 
ATOM     26  O   UNK A   0       2.714  -3.058  25.245  0.00  0.00    -0.270 OA
BRANCH  23  27
ATOM     27  CA  ALA A   1       2.879  -5.821  24.505  0.00  0.00    +0.095 C 
ATOM     28  CB  ALA A   1       1.943  -5.856  23.302  0.00  0.00    +0.030 C 
BRANCH  27  29
ATOM     29  C   ALA A   1       3.479  -7.202  24.811  0.00  0.00    +0.177 C 
BRANCH  29  30
ATOM     30  O   ALA A   1       4.529  -7.493  23.887  0.00  0.00    -0.393 OA
ATOM     31  H   ALA A   1       5.322  -7.656  24.429  0.00  0.00    +0.209 HD
ENDBRANCH  29  30
ENDBRANCH  27  29
ENDBRANCH  23  27
ENDBRANCH  17  25
ENDBRANCH   1  19
TORSDOF 6
ENDMDL
