MODEL 1
REMARK VINA RESULT:      -8.6      0.000      0.000
REMARK  Name = 
REMARK  6 active torsions:
REMARK  status: ('A' for Active; 'I' for Inactive)
REMARK    1  A    between atoms: C_1  and  C_2
REMARK    2  A    between atoms: C_4  and  C_5
REMARK    3  A    between atoms: N_11  and  C_12
REMARK    4  A    between atoms: C_12  and  C_13
REMARK    5  A    between atoms: C_16  and  C_19
REMARK    6  A    between atoms: C_24  and  C_25
REMARK                            x       y       z     vdW  Elec       q    Type
REMARK                         _______ _______ _______ _____ _____    ______ ____
ROOT
ATOM      1  C   UNL     1       8.652  -2.091  25.115  0.00  0.00    -0.030 A 
ATOM      2  C   UNL     1       7.308  -1.814  25.386  0.00  0.00    +0.006 A 
ATOM      3  C   UNL     1       6.381  -2.850  25.588  0.00  0.00    +0.009 A 
ATOM      4  C   UNL     1       6.710  -4.203  25.402  0.00  0.00    -0.017 A 
ATOM      5  C   UNL     1       8.082  -4.465  25.205  0.00  0.00    +0.009 A 
ATOM      6  C   UNL     1       9.033  -3.435  25.083  0.00  0.00    +0.006 A 
ENDROOT
BRANCH   4   7
ATOM      7  C   UNL     1       5.679  -5.302  25.373  0.00  0.00    -0.007 A 
ATOM      8  C   UNL     1       5.163  -5.910  24.190  0.00  0.00    +0.030 A 
ATOM      9  C   UNL     1       4.199  -6.946  24.282  0.00  0.00    +0.012 A 
ATOM     10  C   UNL     1       3.758  -7.432  25.506  0.00  0.00    +0.001 A 
ATOM     11  C   UNL     1       4.262  -6.870  26.668  0.00  0.00    +0.001 A 
ATOM     12  C   UNL     1       5.193  -5.822  26.604  0.00  0.00    +0.009 A 
BRANCH   8  13
ATOM     13  C   UNL     1       5.572  -5.573  22.828  0.00  0.00    +0.205 A 
ATOM     14  N   UNL     1       5.166  -4.448  22.149  0.00  0.00    -0.108 NA
ATOM     15  N   UNL     1       5.739  -4.494  20.951  0.00  0.00    -0.049 NA
ATOM     16  N   UNL     1       6.491  -5.606  20.981  0.00  0.00    -0.176 N 
ATOM     17  H   UNL     1       7.068  -5.870  20.187  0.00  0.00    +0.214 HD
ATOM     18  N   UNL     1       6.445  -6.318  22.109  0.00  0.00    -0.133 NA
ENDBRANCH   8  13
ENDBRANCH   4   7
BRANCH   1  19
ATOM     19  C   UNL     1       9.650  -0.970  24.859  0.00  0.00    +0.150 C 
BRANCH  19  31
ATOM     20  C   UNL     1       7.153   2.793  26.902  0.00  0.00    +0.088 C 
ATOM     21  C   UNL     1       7.607   2.545  25.499  0.00  0.00    +0.128 A 
ATOM     22  N   UNL     1       8.335   1.442  25.278  0.00  0.00    -0.217 NA
ATOM     23  C   UNL     1       8.638   1.142  24.001  0.00  0.00    +0.135 A 
ATOM     24  C   UNL     1       8.242   1.954  22.943  0.00  0.00    +0.014 A 
ATOM     25  C   UNL     1       8.502   1.569  21.519  0.00  0.00    +0.049 C 
ATOM     26  C   UNL     1       9.532   0.468  21.394  0.00  0.00    +0.101 C 
ATOM     27  C   UNL     1       9.353  -0.592  22.447  0.00  0.00    +0.221 C 
ATOM     28  O   UNL     1       9.391  -1.786  22.156  0.00  0.00    -0.275 OA
ATOM     29  C   UNL     1       7.505   3.086  23.273  0.00  0.00    +0.047 A 
ATOM     30  C   UNL     1       6.977   4.027  22.228  0.00  0.00    +0.066 C 
ATOM     31  N   UNL     1       9.266  -0.106  23.741  0.00  0.00    -0.251 N 
ATOM     32  N   UNL     1       7.183   3.386  24.546  0.00  0.00    -0.237 NA
ENDBRANCH  19  31
ENDBRANCH   1  19
TORSDOF 4
ENDMDL
MODEL 2
REMARK VINA RESULT:      -8.4      3.115      4.295
REMARK  Name = 
REMARK  6 active torsions:
REMARK  status: ('A' for Active; 'I' for Inactive)
REMARK    1  A    between atoms: C_1  and  C_2
REMARK    2  A    between atoms: C_4  and  C_5
REMARK    3  A    between atoms: N_11  and  C_12
REMARK    4  A    between atoms: C_12  and  C_13
REMARK    5  A    between atoms: C_16  and  C_19
REMARK    6  A    between atoms: C_24  and  C_25
REMARK                            x       y       z     vdW  Elec       q    Type
REMARK                         _______ _______ _______ _____ _____    ______ ____
ROOT
ATOM      1  C   UNL     1       9.835  -0.229  23.642  0.00  0.00    -0.030 A 
ATOM      2  C   UNL     1      10.174  -1.476  24.174  0.00  0.00    +0.006 A 
ATOM      3  C   UNL     1       9.499  -2.643  23.776  0.00  0.00    +0.009 A 
ATOM      4  C   UNL     1       8.375  -2.613  22.935  0.00  0.00    -0.017 A 
ATOM      5  C   UNL     1       8.096  -1.360  22.350  0.00  0.00    +0.009 A 
ATOM      6  C   UNL     1       8.820  -0.199  22.681  0.00  0.00    +0.006 A 
ENDROOT
BRANCH   4   7
ATOM      7  C   UNL     1       7.497  -3.814  22.695  0.00  0.00    -0.007 A 
ATOM      8  C   UNL     1       7.180  -4.806  23.671  0.00  0.00    +0.030 A 
ATOM      9  C   UNL     1       6.333  -5.892  23.336  0.00  0.00    +0.012 A 
ATOM     10  C   UNL     1       5.752  -6.011  22.080  0.00  0.00    +0.001 A 
ATOM     11  C   UNL     1       6.030  -5.047  21.124  0.00  0.00    +0.001 A 
ATOM     12  C   UNL     1       6.891  -3.979  21.420  0.00  0.00    +0.009 A 
BRANCH   8  13
ATOM     13  C   UNL     1       7.643  -4.794  25.058  0.00  0.00    +0.205 A 
ATOM     14  N   UNL     1       7.073  -4.048  26.063  0.00  0.00    -0.108 NA
ATOM     15  N   UNL     1       7.767  -4.298  27.167  0.00  0.00    -0.049 NA
ATOM     16  N   UNL     1       8.682  -5.206  26.792  0.00  0.00    -0.176 N 
ATOM     17  H   UNL     1       9.338  -5.598  27.462  0.00  0.00    +0.214 HD
ATOM     18  N   UNL     1       8.661  -5.566  25.507  0.00  0.00    -0.133 NA
ENDBRANCH   8  13
ENDBRANCH   4   7
BRANCH   1  19
ATOM     19  C   UNL     1      10.539   1.041  24.100  0.00  0.00    +0.150 C 
BRANCH  19  31
ATOM     20  C   UNL     1      13.135   5.104  22.950  0.00  0.00    +0.088 C 
ATOM     21  C   UNL     1      11.696   4.910  23.306  0.00  0.00    +0.128 A 
ATOM     22  N   UNL     1      11.278   3.652  23.501  0.00  0.00    -0.217 NA
ATOM     23  C   UNL     1      10.021   3.476  23.948  0.00  0.00    +0.135 A 
ATOM     24  C   UNL     1       9.165   4.550  24.175  0.00  0.00    +0.014 A 
ATOM     25  C   UNL     1       7.799   4.354  24.758  0.00  0.00    +0.049 C 
ATOM     26  C   UNL     1       7.341   2.914  24.696  0.00  0.00    +0.101 C 
ATOM     27  C   UNL     1       8.453   1.956  25.028  0.00  0.00    +0.221 C 
ATOM     28  O   UNL     1       8.270   1.016  25.799  0.00  0.00    -0.275 OA
ATOM     29  C   UNL     1       9.683   5.815  23.928  0.00  0.00    +0.047 A 
ATOM     30  C   UNL     1       8.885   7.065  24.171  0.00  0.00    +0.066 C 
ATOM     31  N   UNL     1       9.621   2.161  24.311  0.00  0.00    -0.251 N 
ATOM     32  N   UNL     1      10.945   6.003  23.497  0.00  0.00    -0.237 NA
ENDBRANCH  19  31
ENDBRANCH   1  19
TORSDOF 4
ENDMDL
MODEL 3
REMARK VINA RESULT:      -8.2      2.319      7.978
REMARK  Name = 
REMARK  6 active torsions:
REMARK  status: ('A' for Active; 'I' for Inactive)
REMARK    1  A    between atoms: C_1  and  C_2
REMARK    2  A    between atoms: C_4  and  C_5
REMARK    3  A    between atoms: N_11  and  C_12
REMARK    4  A    between atoms: C_12  and  C_13
REMARK    5  A    between atoms: C_16  and  C_19
REMARK    6  A    between atoms: C_24  and  C_25
REMARK                            x       y       z     vdW  Elec       q    Type
REMARK                         _______ _______ _______ _____ _____    ______ ____
ROOT
ATOM      1  C   UNL     1       8.969  -3.400  25.186  0.00  0.00    -0.030 A 
ATOM      2  C   UNL     1       9.664  -2.928  24.069  0.00  0.00    +0.006 A 
ATOM      3  C   UNL     1       9.908  -1.555  23.894  0.00  0.00    +0.009 A 
ATOM      4  C   UNL     1       9.365  -0.578  24.743  0.00  0.00    -0.017 A 
ATOM      5  C   UNL     1       8.733  -1.076  25.902  0.00  0.00    +0.009 A 
ATOM      6  C   UNL     1       8.555  -2.454  26.128  0.00  0.00    +0.006 A 
ENDROOT
BRANCH   4   7
ATOM      7  C   UNL     1       9.410   0.896  24.434  0.00  0.00    -0.007 A 
ATOM      8  C   UNL     1       8.316   1.800  24.591  0.00  0.00    +0.030 A 
ATOM      9  C   UNL     1       8.475   3.173  24.277  0.00  0.00    +0.012 A 
ATOM     10  C   UNL     1       9.690   3.694  23.854  0.00  0.00    +0.001 A 
ATOM     11  C   UNL     1      10.771   2.838  23.715  0.00  0.00    +0.001 A 
ATOM     12  C   UNL     1      10.632   1.469  23.988  0.00  0.00    +0.009 A 
BRANCH   8  13
ATOM     13  C   UNL     1       6.993   1.434  25.096  0.00  0.00    +0.205 A 
ATOM     14  N   UNL     1       6.041   0.761  24.367  0.00  0.00    -0.108 NA
ATOM     15  N   UNL     1       4.982   0.619  25.156  0.00  0.00    -0.049 NA
ATOM     16  N   UNL     1       5.359   1.165  26.324  0.00  0.00    -0.176 N 
ATOM     17  H   UNL     1       4.736   1.165  27.128  0.00  0.00    +0.214 HD
ATOM     18  N   UNL     1       6.588   1.681  26.364  0.00  0.00    -0.133 NA
ENDBRANCH   8  13
ENDBRANCH   4   7
BRANCH   1  19
ATOM     19  C   UNL     1       8.670  -4.883  25.359  0.00  0.00    +0.150 C 
BRANCH  19  31
ATOM     20  C   UNL     1       6.284  -6.517  29.385  0.00  0.00    +0.088 C 
ATOM     21  C   UNL     1       5.821  -6.272  27.984  0.00  0.00    +0.128 A 
ATOM     22  N   UNL     1       6.711  -5.754  27.127  0.00  0.00    -0.217 NA
ATOM     23  C   UNL     1       6.346  -5.651  25.836  0.00  0.00    +0.135 A 
ATOM     24  C   UNL     1       5.083  -6.038  25.398  0.00  0.00    +0.014 A 
ATOM     25  C   UNL     1       4.713  -6.008  23.946  0.00  0.00    +0.049 C 
ATOM     26  C   UNL     1       5.673  -5.181  23.119  0.00  0.00    +0.101 C 
ATOM     27  C   UNL     1       7.103  -5.397  23.535  0.00  0.00    +0.221 C 
ATOM     28  O   UNL     1       7.985  -5.577  22.697  0.00  0.00    -0.275 OA
ATOM     29  C   UNL     1       4.223  -6.548  26.363  0.00  0.00    +0.047 A 
ATOM     30  C   UNL     1       2.846  -7.043  26.023  0.00  0.00    +0.066 C 
ATOM     31  N   UNL     1       7.333  -5.256  24.893  0.00  0.00    -0.251 N 
ATOM     32  N   UNL     1       4.585  -6.670  27.655  0.00  0.00    -0.237 NA
ENDBRANCH  19  31
ENDBRANCH   1  19
TORSDOF 4
ENDMDL
MODEL 4
REMARK VINA RESULT:      -8.2      2.325      7.742
REMARK  Name = 
REMARK  6 active torsions:
REMARK  status: ('A' for Active; 'I' for Inactive)
REMARK    1  A    between atoms: C_1  and  C_2
REMARK    2  A    between atoms: C_4  and  C_5
REMARK    3  A    between atoms: N_11  and  C_12
REMARK    4  A    between atoms: C_12  and  C_13
REMARK    5  A    between atoms: C_16  and  C_19
REMARK    6  A    between atoms: C_24  and  C_25
REMARK                            x       y       z     vdW  Elec       q    Type
REMARK                         _______ _______ _______ _____ _____    ______ ____
ROOT
ATOM      1  C   UNL     1       8.684  -3.799  25.430  0.00  0.00    -0.030 A 
ATOM      2  C   UNL     1       9.326  -3.382  24.259  0.00  0.00    +0.006 A 
ATOM      3  C   UNL     1       9.638  -2.029  24.047  0.00  0.00    +0.009 A 
ATOM      4  C   UNL     1       9.216  -1.011  24.918  0.00  0.00    -0.017 A 
ATOM      5  C   UNL     1       8.639  -1.458  26.126  0.00  0.00    +0.009 A 
ATOM      6  C   UNL     1       8.396  -2.820  26.384  0.00  0.00    +0.006 A 
ENDROOT
BRANCH   4   7
ATOM      7  C   UNL     1       9.327   0.454  24.586  0.00  0.00    -0.007 A 
ATOM      8  C   UNL     1       8.279   1.411  24.740  0.00  0.00    +0.030 A 
ATOM      9  C   UNL     1       8.498   2.770  24.402  0.00  0.00    +0.012 A 
ATOM     10  C   UNL     1       9.732   3.227  23.957  0.00  0.00    +0.001 A 
ATOM     11  C   UNL     1      10.769   2.318  23.820  0.00  0.00    +0.001 A 
ATOM     12  C   UNL     1      10.569   0.961  24.117  0.00  0.00    +0.009 A 
BRANCH   8  13
ATOM     13  C   UNL     1       6.946   1.116  25.264  0.00  0.00    +0.205 A 
ATOM     14  N   UNL     1       5.958   0.469  24.560  0.00  0.00    -0.108 NA
ATOM     15  N   UNL     1       4.902   0.393  25.362  0.00  0.00    -0.049 NA
ATOM     16  N   UNL     1       5.313   0.948  26.513  0.00  0.00    -0.176 N 
ATOM     17  H   UNL     1       4.699   0.995  27.321  0.00  0.00    +0.214 HD
ATOM     18  N   UNL     1       6.565   1.410  26.529  0.00  0.00    -0.133 NA
ENDBRANCH   8  13
ENDBRANCH   4   7
BRANCH   1  19
ATOM     19  C   UNL     1       8.311  -5.259  25.644  0.00  0.00    +0.150 C 
BRANCH  19  31
ATOM     20  C   UNL     1       6.131  -3.750  21.455  0.00  0.00    +0.088 C 
ATOM     21  C   UNL     1       5.585  -4.412  22.680  0.00  0.00    +0.128 A 
ATOM     22  N   UNL     1       6.461  -4.762  23.630  0.00  0.00    -0.217 NA
ATOM     23  C   UNL     1       5.968  -5.238  24.788  0.00  0.00    +0.135 A 
ATOM     24  C   UNL     1       4.601  -5.395  24.994  0.00  0.00    +0.014 A 
ATOM     25  C   UNL     1       4.052  -5.839  26.316  0.00  0.00    +0.049 C 
ATOM     26  C   UNL     1       5.112  -6.443  27.211  0.00  0.00    +0.101 C 
ATOM     27  C   UNL     1       6.407  -5.679  27.143  0.00  0.00    +0.221 C 
ATOM     28  O   UNL     1       7.022  -5.385  28.166  0.00  0.00    -0.275 OA
ATOM     29  C   UNL     1       3.771  -5.021  23.944  0.00  0.00    +0.047 A 
ATOM     30  C   UNL     1       2.274  -5.097  24.044  0.00  0.00    +0.066 C 
ATOM     31  N   UNL     1       6.876  -5.459  25.859  0.00  0.00    -0.251 N 
ATOM     32  N   UNL     1       4.254  -4.528  22.787  0.00  0.00    -0.237 NA
ENDBRANCH  19  31
ENDBRANCH   1  19
TORSDOF 4
ENDMDL
MODEL 5
REMARK VINA RESULT:      -8.1      2.555      3.351
REMARK  Name = 
REMARK  6 active torsions:
REMARK  status: ('A' for Active; 'I' for Inactive)
REMARK    1  A    between atoms: C_1  and  C_2
REMARK    2  A    between atoms: C_4  and  C_5
REMARK    3  A    between atoms: N_11  and  C_12
REMARK    4  A    between atoms: C_12  and  C_13
REMARK    5  A    between atoms: C_16  and  C_19
REMARK    6  A    between atoms: C_24  and  C_25
REMARK                            x       y       z     vdW  Elec       q    Type
REMARK                         _______ _______ _______ _____ _____    ______ ____
ROOT
ATOM      1  C   UNL     1       6.919  -0.296  23.047  0.00  0.00    -0.030 A 
ATOM      2  C   UNL     1       6.497  -0.194  24.377  0.00  0.00    +0.006 A 
ATOM      3  C   UNL     1       6.162  -1.339  25.120  0.00  0.00    +0.009 A 
ATOM      4  C   UNL     1       6.102  -2.619  24.547  0.00  0.00    -0.017 A 
ATOM      5  C   UNL     1       6.602  -2.711  23.231  0.00  0.00    +0.009 A 
ATOM      6  C   UNL     1       7.018  -1.580  22.504  0.00  0.00    +0.006 A 
ENDROOT
BRANCH   4   7
ATOM      7  C   UNL     1       5.513  -3.811  25.257  0.00  0.00    -0.007 A 
ATOM      8  C   UNL     1       6.267  -4.884  25.820  0.00  0.00    +0.030 A 
ATOM      9  C   UNL     1       5.606  -5.954  26.475  0.00  0.00    +0.012 A 
ATOM     10  C   UNL     1       4.226  -5.978  26.632  0.00  0.00    +0.001 A 
ATOM     11  C   UNL     1       3.477  -4.935  26.111  0.00  0.00    +0.001 A 
ATOM     12  C   UNL     1       4.104  -3.881  25.430  0.00  0.00    +0.009 A 
BRANCH   8  13
ATOM     13  C   UNL     1       7.726  -4.979  25.811  0.00  0.00    +0.205 A 
ATOM     14  N   UNL     1       8.483  -5.235  24.691  0.00  0.00    -0.108 NA
ATOM     15  N   UNL     1       9.752  -5.248  25.081  0.00  0.00    -0.049 NA
ATOM     16  N   UNL     1       9.705  -4.956  26.391  0.00  0.00    -0.176 N 
ATOM     17  H   UNL     1      10.556  -4.872  26.940  0.00  0.00    +0.214 HD
ATOM     18  N   UNL     1       8.490  -4.769  26.909  0.00  0.00    -0.133 NA
ENDBRANCH   8  13
ENDBRANCH   4   7
BRANCH   1  19
ATOM     19  C   UNL     1       7.246   0.946  22.229  0.00  0.00    +0.150 C 
BRANCH  19  31
ATOM     20  C   UNL     1       5.759   5.623  22.931  0.00  0.00    +0.088 C 
ATOM     21  C   UNL     1       7.047   4.930  23.242  0.00  0.00    +0.128 A 
ATOM     22  N   UNL     1       7.114   3.617  22.987  0.00  0.00    -0.217 NA
ATOM     23  C   UNL     1       8.306   3.012  23.140  0.00  0.00    +0.135 A 
ATOM     24  C   UNL     1       9.430   3.706  23.576  0.00  0.00    +0.014 A 
ATOM     25  C   UNL     1      10.775   3.050  23.658  0.00  0.00    +0.049 C 
ATOM     26  C   UNL     1      10.689   1.540  23.601  0.00  0.00    +0.101 C 
ATOM     27  C   UNL     1       9.675   1.073  22.592  0.00  0.00    +0.221 C 
ATOM     28  O   UNL     1       9.938   0.167  21.803  0.00  0.00    -0.275 OA
ATOM     29  C   UNL     1       9.259   5.061  23.833  0.00  0.00    +0.047 A 
ATOM     30  C   UNL     1      10.397   5.941  24.268  0.00  0.00    +0.066 C 
ATOM     31  N   UNL     1       8.427   1.660  22.718  0.00  0.00    -0.251 N 
ATOM     32  N   UNL     1       8.074   5.679  23.666  0.00  0.00    -0.237 NA
ENDBRANCH  19  31
ENDBRANCH   1  19
TORSDOF 4
ENDMDL
MODEL 6
REMARK VINA RESULT:      -8.1      2.581      7.640
REMARK  Name = 
REMARK  6 active torsions:
REMARK  status: ('A' for Active; 'I' for Inactive)
REMARK    1  A    between atoms: C_1  and  C_2
REMARK    2  A    between atoms: C_4  and  C_5
REMARK    3  A    between atoms: N_11  and  C_12
REMARK    4  A    between atoms: C_12  and  C_13
REMARK    5  A    between atoms: C_16  and  C_19
REMARK    6  A    between atoms: C_24  and  C_25
REMARK                            x       y       z     vdW  Elec       q    Type
REMARK                         _______ _______ _______ _____ _____    ______ ____
ROOT
ATOM      1  C   UNL     1       6.152  -1.387  26.259  0.00  0.00    -0.030 A 
ATOM      2  C   UNL     1       7.303  -0.946  26.918  0.00  0.00    +0.006 A 
ATOM      3  C   UNL     1       7.975   0.217  26.504  0.00  0.00    +0.009 A 
ATOM      4  C   UNL     1       7.617   0.921  25.343  0.00  0.00    -0.017 A 
ATOM      5  C   UNL     1       6.412   0.507  24.738  0.00  0.00    +0.009 A 
ATOM      6  C   UNL     1       5.687  -0.609  25.195  0.00  0.00    +0.006 A 
ENDROOT
BRANCH   4   7
ATOM      7  C   UNL     1       8.467   2.017  24.752  0.00  0.00    -0.007 A 
ATOM      8  C   UNL     1       9.424   1.838  23.708  0.00  0.00    +0.030 A 
ATOM      9  C   UNL     1      10.164   2.945  23.222  0.00  0.00    +0.012 A 
ATOM     10  C   UNL     1       9.961   4.232  23.701  0.00  0.00    +0.001 A 
ATOM     11  C   UNL     1       9.021   4.431  24.700  0.00  0.00    +0.001 A 
ATOM     12  C   UNL     1       8.298   3.347  25.221  0.00  0.00    +0.009 A 
BRANCH   8  13
ATOM     13  C   UNL     1       9.708   0.569  23.040  0.00  0.00    +0.205 A 
ATOM     14  N   UNL     1      10.235  -0.538  23.664  0.00  0.00    -0.108 NA
ATOM     15  N   UNL     1      10.351  -1.482  22.737  0.00  0.00    -0.049 NA
ATOM     16  N   UNL     1       9.852  -0.923  21.623  0.00  0.00    -0.176 N 
ATOM     17  H   UNL     1       9.794  -1.447  20.754  0.00  0.00    +0.214 HD
ATOM     18  N   UNL     1       9.429   0.338  21.736  0.00  0.00    -0.133 NA
ENDBRANCH   8  13
ENDBRANCH   4   7
BRANCH   1  19
ATOM     19  C   UNL     1       5.445  -2.667  26.682  0.00  0.00    +0.150 C 
BRANCH  19  31
ATOM     20  C   UNL     1       9.751  -4.182  24.749  0.00  0.00    +0.088 C 
ATOM     21  C   UNL     1       8.335  -4.551  24.438  0.00  0.00    +0.128 A 
ATOM     22  N   UNL     1       7.379  -4.005  25.201  0.00  0.00    -0.217 NA
ATOM     23  C   UNL     1       6.099  -4.227  24.849  0.00  0.00    +0.135 A 
ATOM     24  C   UNL     1       5.766  -5.017  23.753  0.00  0.00    +0.014 A 
ATOM     25  C   UNL     1       4.344  -5.187  23.312  0.00  0.00    +0.049 C 
ATOM     26  C   UNL     1       3.352  -4.755  24.369  0.00  0.00    +0.101 C 
ATOM     27  C   UNL     1       3.786  -3.493  25.065  0.00  0.00    +0.221 C 
ATOM     28  O   UNL     1       2.994  -2.573  25.260  0.00  0.00    -0.275 OA
ATOM     29  C   UNL     1       6.826  -5.555  23.033  0.00  0.00    +0.047 A 
ATOM     30  C   UNL     1       6.613  -6.391  21.803  0.00  0.00    +0.066 C 
ATOM     31  N   UNL     1       5.083  -3.523  25.551  0.00  0.00    -0.251 N 
ATOM     32  N   UNL     1       8.111  -5.325  23.367  0.00  0.00    -0.237 NA
ENDBRANCH  19  31
ENDBRANCH   1  19
TORSDOF 4
ENDMDL
MODEL 7
REMARK VINA RESULT:      -8.1      2.320      8.367
REMARK  Name = 
REMARK  6 active torsions:
REMARK  status: ('A' for Active; 'I' for Inactive)
REMARK    1  A    between atoms: C_1  and  C_2
REMARK    2  A    between atoms: C_4  and  C_5
REMARK    3  A    between atoms: N_11  and  C_12
REMARK    4  A    between atoms: C_12  and  C_13
REMARK    5  A    between atoms: C_16  and  C_19
REMARK    6  A    between atoms: C_24  and  C_25
REMARK                            x       y       z     vdW  Elec       q    Type
REMARK                         _______ _______ _______ _____ _____    ______ ____
ROOT
ATOM      1  C   UNL     1       8.447  -1.352  22.370  0.00  0.00    -0.030 A 
ATOM      2  C   UNL     1       8.067  -0.738  23.568  0.00  0.00    +0.006 A 
ATOM      3  C   UNL     1       8.266   0.638  23.772  0.00  0.00    +0.009 A 
ATOM      4  C   UNL     1       8.967   1.442  22.858  0.00  0.00    -0.017 A 
ATOM      5  C   UNL     1       9.274   0.824  21.628  0.00  0.00    +0.009 A 
ATOM      6  C   UNL     1       9.004  -0.535  21.382  0.00  0.00    +0.006 A 
ENDROOT
BRANCH   4   7
ATOM      7  C   UNL     1       9.401   2.851  23.169  0.00  0.00    -0.007 A 
ATOM      8  C   UNL     1       8.520   3.958  23.357  0.00  0.00    +0.030 A 
ATOM      9  C   UNL     1       9.042   5.242  23.655  0.00  0.00    +0.012 A 
ATOM     10  C   UNL     1      10.403   5.463  23.817  0.00  0.00    +0.001 A 
ATOM     11  C   UNL     1      11.274   4.398  23.659  0.00  0.00    +0.001 A 
ATOM     12  C   UNL     1      10.787   3.123  23.332  0.00  0.00    +0.009 A 
BRANCH   8  13
ATOM     13  C   UNL     1       7.061   3.887  23.297  0.00  0.00    +0.205 A 
ATOM     14  N   UNL     1       6.345   3.492  22.191  0.00  0.00    -0.108 NA
ATOM     15  N   UNL     1       5.061   3.561  22.520  0.00  0.00    -0.049 NA
ATOM     16  N   UNL     1       5.063   3.944  23.807  0.00  0.00    -0.176 N 
ATOM     17  H   UNL     1       4.195   4.050  24.325  0.00  0.00    +0.214 HD
ATOM     18  N   UNL     1       6.261   4.157  24.356  0.00  0.00    -0.133 NA
ENDBRANCH   8  13
ENDBRANCH   4   7
BRANCH   1  19
ATOM     19  C   UNL     1       8.266  -2.849  22.161  0.00  0.00    +0.150 C 
BRANCH  19  31
ATOM     20  C   UNL     1      10.247  -5.346  25.958  0.00  0.00    +0.088 C 
ATOM     21  C   UNL     1       8.828  -5.024  25.610  0.00  0.00    +0.128 A 
ATOM     22  N   UNL     1       8.622  -4.258  24.530  0.00  0.00    -0.217 NA
ATOM     23  C   UNL     1       7.350  -4.071  24.134  0.00  0.00    +0.135 A 
ATOM     24  C   UNL     1       6.276  -4.622  24.827  0.00  0.00    +0.014 A 
ATOM     25  C   UNL     1       4.869  -4.487  24.330  0.00  0.00    +0.049 C 
ATOM     26  C   UNL     1       4.726  -3.410  23.277  0.00  0.00    +0.101 C 
ATOM     27  C   UNL     1       5.877  -3.416  22.307  0.00  0.00    +0.221 C 
ATOM     28  O   UNL     1       5.684  -3.335  21.095  0.00  0.00    -0.275 OA
ATOM     29  C   UNL     1       6.589  -5.388  25.944  0.00  0.00    +0.047 A 
ATOM     30  C   UNL     1       5.532  -6.077  26.760  0.00  0.00    +0.066 C 
ATOM     31  N   UNL     1       7.128  -3.397  22.902  0.00  0.00    -0.251 N 
ATOM     32  N   UNL     1       7.860  -5.595  26.339  0.00  0.00    -0.237 NA
ENDBRANCH  19  31
ENDBRANCH   1  19
TORSDOF 4
ENDMDL
MODEL 8
REMARK VINA RESULT:      -8.1      1.848      2.386
REMARK  Name = 
REMARK  6 active torsions:
REMARK  status: ('A' for Active; 'I' for Inactive)
REMARK    1  A    between atoms: C_1  and  C_2
REMARK    2  A    between atoms: C_4  and  C_5
REMARK    3  A    between atoms: N_11  and  C_12
REMARK    4  A    between atoms: C_12  and  C_13
REMARK    5  A    between atoms: C_16  and  C_19
REMARK    6  A    between atoms: C_24  and  C_25
REMARK                            x       y       z     vdW  Elec       q    Type
REMARK                         _______ _______ _______ _____ _____    ______ ____
ROOT
ATOM      1  C   UNL     1       7.486  -2.075  23.670  0.00  0.00    -0.030 A 
ATOM      2  C   UNL     1       6.682  -1.708  24.754  0.00  0.00    +0.006 A 
ATOM      3  C   UNL     1       6.315  -2.645  25.734  0.00  0.00    +0.009 A 
ATOM      4  C   UNL     1       6.614  -4.012  25.620  0.00  0.00    -0.017 A 
ATOM      5  C   UNL     1       7.486  -4.349  24.564  0.00  0.00    +0.009 A 
ATOM      6  C   UNL     1       7.927  -3.401  23.622  0.00  0.00    +0.006 A 
ENDROOT
BRANCH   4   7
ATOM      7  C   UNL     1       6.023  -5.061  26.527  0.00  0.00    -0.007 A 
ATOM      8  C   UNL     1       4.992  -5.976  26.158  0.00  0.00    +0.030 A 
ATOM      9  C   UNL     1       4.516  -6.930  27.093  0.00  0.00    +0.012 A 
ATOM     10  C   UNL     1       5.054  -7.040  28.368  0.00  0.00    +0.001 A 
ATOM     11  C   UNL     1       6.071  -6.175  28.740  0.00  0.00    +0.001 A 
ATOM     12  C   UNL     1       6.537  -5.200  27.845  0.00  0.00    +0.009 A 
BRANCH   8  13
ATOM     13  C   UNL     1       4.369  -6.048  24.837  0.00  0.00    +0.205 A 
ATOM     14  N   UNL     1       3.795  -4.981  24.188  0.00  0.00    -0.108 NA
ATOM     15  N   UNL     1       3.338  -5.437  23.028  0.00  0.00    -0.049 NA
ATOM     16  N   UNL     1       3.694  -6.732  23.012  0.00  0.00    -0.176 N 
ATOM     17  H   UNL     1       3.489  -7.322  22.210  0.00  0.00    +0.214 HD
ATOM     18  N   UNL     1       4.340  -7.178  24.091  0.00  0.00    -0.133 NA
ENDBRANCH   8  13
ENDBRANCH   4   7
BRANCH   1  19
ATOM     19  C   UNL     1       7.853  -1.070  22.587  0.00  0.00    +0.150 C 
BRANCH  19  31
ATOM     20  C   UNL     1       5.286   3.167  22.411  0.00  0.00    +0.088 C 
ATOM     21  C   UNL     1       6.650   2.850  22.936  0.00  0.00    +0.128 A 
ATOM     22  N   UNL     1       7.038   1.569  22.898  0.00  0.00    -0.217 NA
ATOM     23  C   UNL     1       8.308   1.292  23.246  0.00  0.00    +0.135 A 
ATOM     24  C   UNL     1       9.189   2.287  23.661  0.00  0.00    +0.014 A 
ATOM     25  C   UNL     1      10.626   1.988  23.959  0.00  0.00    +0.049 C 
ATOM     26  C   UNL     1      10.887   0.508  24.135  0.00  0.00    +0.101 C 
ATOM     27  C   UNL     1      10.131  -0.319  23.130  0.00  0.00    +0.221 C 
ATOM     28  O   UNL     1      10.683  -1.234  22.521  0.00  0.00    -0.275 OA
ATOM     29  C   UNL     1       8.689   3.584  23.684  0.00  0.00    +0.047 A 
ATOM     30  C   UNL     1       9.541   4.760  24.069  0.00  0.00    +0.066 C 
ATOM     31  N   UNL     1       8.778  -0.036  23.056  0.00  0.00    -0.251 N 
ATOM     32  N   UNL     1       7.425   3.873  23.321  0.00  0.00    -0.237 NA
ENDBRANCH  19  31
ENDBRANCH   1  19
TORSDOF 4
ENDMDL
MODEL 9
REMARK VINA RESULT:      -7.9      2.276      2.902
REMARK  Name = 
REMARK  6 active torsions:
REMARK  status: ('A' for Active; 'I' for Inactive)
REMARK    1  A    between atoms: C_1  and  C_2
REMARK    2  A    between atoms: C_4  and  C_5
REMARK    3  A    between atoms: N_11  and  C_12
REMARK    4  A    between atoms: C_12  and  C_13
REMARK    5  A    between atoms: C_16  and  C_19
REMARK    6  A    between atoms: C_24  and  C_25
REMARK                            x       y       z     vdW  Elec       q    Type
REMARK                         _______ _______ _______ _____ _____    ______ ____
ROOT
ATOM      1  C   UNL     1       8.102  -2.581  24.290  0.00  0.00    -0.030 A 
ATOM      2  C   UNL     1       8.322  -3.882  23.825  0.00  0.00    +0.006 A 
ATOM      3  C   UNL     1       7.264  -4.797  23.703  0.00  0.00    +0.009 A 
ATOM      4  C   UNL     1       5.966  -4.514  24.159  0.00  0.00    -0.017 A 
ATOM      5  C   UNL     1       5.747  -3.178  24.554  0.00  0.00    +0.009 A 
ATOM      6  C   UNL     1       6.785  -2.228  24.601  0.00  0.00    +0.006 A 
ENDROOT
BRANCH   4   7
ATOM      7  C   UNL     1       4.885  -5.560  24.263  0.00  0.00    -0.007 A 
ATOM      8  C   UNL     1       4.703  -6.442  25.370  0.00  0.00    +0.030 A 
ATOM      9  C   UNL     1       3.643  -7.384  25.364  0.00  0.00    +0.012 A 
ATOM     10  C   UNL     1       2.730  -7.456  24.320  0.00  0.00    +0.001 A 
ATOM     11  C   UNL     1       2.877  -6.594  23.245  0.00  0.00    +0.001 A 
ATOM     12  C   UNL     1       3.936  -5.674  23.211  0.00  0.00    +0.009 A 
BRANCH   8  13
ATOM     13  C   UNL     1       5.523  -6.449  26.580  0.00  0.00    +0.205 A 
ATOM     14  N   UNL     1       6.719  -5.782  26.714  0.00  0.00    -0.108 NA
ATOM     15  N   UNL     1       7.162  -6.031  27.941  0.00  0.00    -0.049 NA
ATOM     16  N   UNL     1       6.203  -6.788  28.497  0.00  0.00    -0.176 N 
ATOM     17  H   UNL     1       6.276  -7.102  29.461  0.00  0.00    +0.214 HD
ATOM     18  N   UNL     1       5.158  -7.081  27.720  0.00  0.00    -0.133 NA
ENDBRANCH   8  13
ENDBRANCH   4   7
BRANCH   1  19
ATOM     19  C   UNL     1       9.253  -1.600  24.458  0.00  0.00    +0.150 C 
BRANCH  19  31
ATOM     20  C   UNL     1       6.935   1.700  27.341  0.00  0.00    +0.088 C 
ATOM     21  C   UNL     1       7.533   1.817  25.975  0.00  0.00    +0.128 A 
ATOM     22  N   UNL     1       8.161   0.740  25.487  0.00  0.00    -0.217 NA
ATOM     23  C   UNL     1       8.587   0.791  24.211  0.00  0.00    +0.135 A 
ATOM     24  C   UNL     1       8.416   1.927  23.426  0.00  0.00    +0.014 A 
ATOM     25  C   UNL     1       8.810   1.948  21.981  0.00  0.00    +0.049 C 
ATOM     26  C   UNL     1       9.724   0.801  21.611  0.00  0.00    +0.101 C 
ATOM     27  C   UNL     1       9.302  -0.487  22.265  0.00  0.00    +0.221 C 
ATOM     28  O   UNL     1       9.249  -1.535  21.624  0.00  0.00    -0.275 OA
ATOM     29  C   UNL     1       7.769   3.001  24.025  0.00  0.00    +0.047 A 
ATOM     30  C   UNL     1       7.479   4.274  23.281  0.00  0.00    +0.066 C 
ATOM     31  N   UNL     1       9.107  -0.399  23.634  0.00  0.00    -0.251 N 
ATOM     32  N   UNL     1       7.323   2.953  25.296  0.00  0.00    -0.237 NA
ENDBRANCH  19  31
ENDBRANCH   1  19
TORSDOF 4
ENDMDL
