MODEL 1
REMARK VINA RESULT:      -4.7      0.000      0.000
REMARK  Name = 
REMARK  5 active torsions:
REMARK  status: ('A' for Active; 'I' for Inactive)
REMARK    1  A    between atoms: C_2  and  C_3
REMARK    2  A    between atoms: C_3  and  N_4
REMARK    3  A    between atoms: N_4  and  P_5
REMARK    4  A    between atoms: N_11  and  C_12
REMARK    5  A    between atoms: C_12  and  C_13
REMARK                            x       y       z     vdW  Elec       q    Type
REMARK                         _______ _______ _______ _____ _____    ______ ____
ROOT
ATOM      1  P   UNL     1       9.185  -2.674  24.072  0.00  0.00    +0.346 P 
ATOM      2  N   UNL     1       7.688  -3.217  23.637  0.00  0.00    -0.218 NA
ATOM      3  C   UNL     1       7.085  -4.036  24.705  0.00  0.00    +0.097 C 
ATOM      4  C   UNL     1       7.960  -5.235  25.088  0.00  0.00    +0.044 C 
ATOM      5  C   UNL     1       9.344  -4.781  25.533  0.00  0.00    +0.171 C 
ATOM      6  O   UNL     1       9.958  -4.029  24.498  0.00  0.00    -0.305 OA
ATOM      7  O   UNL     1       9.201  -1.703  25.211  0.00  0.00    -0.254 OA
ENDROOT
BRANCH   1   8
ATOM      8  N   UNL     1      10.021  -2.169  22.767  0.00  0.00    -0.231 NA
ATOM      9  H   UNL     1      10.830  -2.770  22.642  0.00  0.00    +0.133 HD
BRANCH   8  10
ATOM     10  C   UNL     1      10.443  -0.777  22.636  0.00  0.00    +0.107 C 
BRANCH  10  12
ATOM     11 CL   UNL     1      10.001   1.791  21.868  0.00  0.00    -0.124 Cl
ATOM     12  C   UNL     1       9.596   0.065  21.679  0.00  0.00    +0.124 C 
ENDBRANCH  10  12
ENDBRANCH   8  10
ENDBRANCH   1   8
BRANCH   2  13
ATOM     13  C   UNL     1       7.490  -3.811  22.304  0.00  0.00    +0.110 C 
BRANCH  13  14
ATOM     14  C   UNL     1       6.067  -4.325  22.051  0.00  0.00    +0.124 C 
ATOM     15 CL   UNL     1       6.102  -6.011  21.470  0.00  0.00    -0.124 Cl
ENDBRANCH  13  14
ENDBRANCH   2  13
TORSDOF 5
ENDMDL
MODEL 2
REMARK VINA RESULT:      -4.7      1.696      4.944
REMARK  Name = 
REMARK  5 active torsions:
REMARK  status: ('A' for Active; 'I' for Inactive)
REMARK    1  A    between atoms: C_2  and  C_3
REMARK    2  A    between atoms: C_3  and  N_4
REMARK    3  A    between atoms: N_4  and  P_5
REMARK    4  A    between atoms: N_11  and  C_12
REMARK    5  A    between atoms: C_12  and  C_13
REMARK                            x       y       z     vdW  Elec       q    Type
REMARK                         _______ _______ _______ _____ _____    ______ ____
ROOT
ATOM      1  P   UNL     1       9.001  -2.549  23.795  0.00  0.00    +0.346 P 
ATOM      2  N   UNL     1       9.445  -0.979  23.542  0.00  0.00    -0.218 NA
ATOM      3  C   UNL     1       9.959  -0.363  24.779  0.00  0.00    +0.097 C 
ATOM      4  C   UNL     1       8.944  -0.417  25.926  0.00  0.00    +0.044 C 
ATOM      5  C   UNL     1       8.531  -1.853  26.222  0.00  0.00    +0.171 C 
ATOM      6  O   UNL     1       7.990  -2.447  25.052  0.00  0.00    -0.305 OA
ATOM      7  O   UNL     1      10.125  -3.481  24.123  0.00  0.00    -0.254 OA
ENDROOT
BRANCH   1   8
ATOM      8  N   UNL     1       8.038  -3.080  22.591  0.00  0.00    -0.231 NA
ATOM      9  H   UNL     1       7.677  -2.280  22.081  0.00  0.00    +0.133 HD
BRANCH   8  10
ATOM     10  C   UNL     1       6.937  -4.002  22.859  0.00  0.00    +0.107 C 
BRANCH  10  12
ATOM     11 CL   UNL     1       6.337  -5.840  20.950  0.00  0.00    -0.124 Cl
ATOM     12  C   UNL     1       7.203  -5.455  22.461  0.00  0.00    +0.124 C 
ENDBRANCH  10  12
ENDBRANCH   8  10
ENDBRANCH   1   8
BRANCH   2  13
ATOM     13  C   UNL     1       8.539  -0.078  22.808  0.00  0.00    +0.110 C 
BRANCH  13  14
ATOM     14  C   UNL     1       9.159   0.549  21.553  0.00  0.00    +0.124 C 
ATOM     15 CL   UNL     1      10.222   1.912  21.992  0.00  0.00    -0.124 Cl
ENDBRANCH  13  14
ENDBRANCH   2  13
TORSDOF 5
ENDMDL
MODEL 3
REMARK VINA RESULT:      -4.6      2.219      5.584
REMARK  Name = 
REMARK  5 active torsions:
REMARK  status: ('A' for Active; 'I' for Inactive)
REMARK    1  A    between atoms: C_2  and  C_3
REMARK    2  A    between atoms: C_3  and  N_4
REMARK    3  A    between atoms: N_4  and  P_5
REMARK    4  A    between atoms: N_11  and  C_12
REMARK    5  A    between atoms: C_12  and  C_13
REMARK                            x       y       z     vdW  Elec       q    Type
REMARK                         _______ _______ _______ _____ _____    ______ ____
ROOT
ATOM      1  P   UNL     1       9.476  -1.070  23.091  0.00  0.00    +0.346 P 
ATOM      2  N   UNL     1       9.022   0.309  22.304  0.00  0.00    -0.218 NA
ATOM      3  C   UNL     1      10.079   1.335  22.372  0.00  0.00    +0.097 C 
ATOM      4  C   UNL     1      10.464   1.686  23.814  0.00  0.00    +0.044 C 
ATOM      5  C   UNL     1      10.926   0.449  24.571  0.00  0.00    +0.171 C 
ATOM      6  O   UNL     1       9.901  -0.534  24.556  0.00  0.00    -0.305 OA
ATOM      7  O   UNL     1      10.621  -1.807  22.469  0.00  0.00    -0.254 OA
ENDROOT
BRANCH   1   8
ATOM      8  N   UNL     1       8.182  -2.010  23.405  0.00  0.00    -0.231 NA
ATOM      9  H   UNL     1       8.305  -2.445  24.315  0.00  0.00    +0.133 HD
BRANCH   8  10
ATOM     10  C   UNL     1       7.742  -3.026  22.453  0.00  0.00    +0.107 C 
BRANCH  10  12
ATOM     11 CL   UNL     1       7.203  -5.593  21.744  0.00  0.00    -0.124 Cl
ATOM     12  C   UNL     1       7.555  -4.425  23.045  0.00  0.00    +0.124 C 
ENDBRANCH  10  12
ENDBRANCH   8  10
ENDBRANCH   1   8
BRANCH   2  13
ATOM     13  C   UNL     1       7.683   0.875  22.544  0.00  0.00    +0.110 C 
BRANCH  13  14
ATOM     14  C   UNL     1       7.397   2.162  21.760  0.00  0.00    +0.124 C 
ATOM     15 CL   UNL     1       7.227   3.548  22.870  0.00  0.00    -0.124 Cl
ENDBRANCH  13  14
ENDBRANCH   2  13
TORSDOF 5
ENDMDL
MODEL 4
REMARK VINA RESULT:      -4.6      2.391      3.282
REMARK  Name = 
REMARK  5 active torsions:
REMARK  status: ('A' for Active; 'I' for Inactive)
REMARK    1  A    between atoms: C_2  and  C_3
REMARK    2  A    between atoms: C_3  and  N_4
REMARK    3  A    between atoms: N_4  and  P_5
REMARK    4  A    between atoms: N_11  and  C_12
REMARK    5  A    between atoms: C_12  and  C_13
REMARK                            x       y       z     vdW  Elec       q    Type
REMARK                         _______ _______ _______ _____ _____    ______ ____
ROOT
ATOM      1  P   UNL     1       9.396  -1.816  23.674  0.00  0.00    +0.346 P 
ATOM      2  N   UNL     1       9.121  -3.240  24.462  0.00  0.00    -0.218 NA
ATOM      3  C   UNL     1       8.292  -4.150  23.650  0.00  0.00    +0.097 C 
ATOM      4  C   UNL     1       6.947  -3.526  23.259  0.00  0.00    +0.044 C 
ATOM      5  C   UNL     1       7.151  -2.225  22.494  0.00  0.00    +0.171 C 
ATOM      6  O   UNL     1       7.909  -1.319  23.281  0.00  0.00    -0.305 OA
ATOM      7  O   UNL     1      10.235  -1.928  22.439  0.00  0.00    -0.254 OA
ENDROOT
BRANCH   1   8
ATOM      8  N   UNL     1       9.906  -0.667  24.712  0.00  0.00    -0.231 NA
ATOM      9  H   UNL     1       9.096  -0.213  25.123  0.00  0.00    +0.133 HD
BRANCH   8  10
ATOM     10  C   UNL     1      10.857   0.358  24.292  0.00  0.00    +0.107 C 
BRANCH  10  12
ATOM     11 CL   UNL     1      10.066   1.599  22.008  0.00  0.00    -0.124 Cl
ATOM     12  C   UNL     1      10.224   1.654  23.784  0.00  0.00    +0.124 C 
ENDBRANCH  10  12
ENDBRANCH   8  10
ENDBRANCH   1   8
BRANCH   2  13
ATOM     13  C   UNL     1       8.698  -3.218  25.874  0.00  0.00    +0.110 C 
BRANCH  13  14
ATOM     14  C   UNL     1       8.921  -4.543  26.616  0.00  0.00    +0.124 C 
ATOM     15 CL   UNL     1       7.360  -5.273  27.077  0.00  0.00    -0.124 Cl
ENDBRANCH  13  14
ENDBRANCH   2  13
TORSDOF 5
ENDMDL
MODEL 5
REMARK VINA RESULT:      -4.4      2.622      3.552
REMARK  Name = 
REMARK  5 active torsions:
REMARK  status: ('A' for Active; 'I' for Inactive)
REMARK    1  A    between atoms: C_2  and  C_3
REMARK    2  A    between atoms: C_3  and  N_4
REMARK    3  A    between atoms: N_4  and  P_5
REMARK    4  A    between atoms: N_11  and  C_12
REMARK    5  A    between atoms: C_12  and  C_13
REMARK                            x       y       z     vdW  Elec       q    Type
REMARK                         _______ _______ _______ _____ _____    ______ ____
ROOT
ATOM      1  P   UNL     1       9.085  -3.804  24.718  0.00  0.00    +0.346 P 
ATOM      2  N   UNL     1       8.396  -3.227  26.103  0.00  0.00    -0.218 NA
ATOM      3  C   UNL     1       7.447  -4.200  26.674  0.00  0.00    +0.097 C 
ATOM      4  C   UNL     1       6.340  -4.588  25.688  0.00  0.00    +0.044 C 
ATOM      5  C   UNL     1       6.927  -5.162  24.405  0.00  0.00    +0.171 C 
ATOM      6  O   UNL     1       7.809  -4.218  23.817  0.00  0.00    -0.305 OA
ATOM      7  O   UNL     1       9.981  -4.989  24.902  0.00  0.00    -0.254 OA
ENDROOT
BRANCH   1   8
ATOM      8  N   UNL     1       9.764  -2.595  23.861  0.00  0.00    -0.231 NA
ATOM      9  H   UNL     1      10.048  -1.859  24.500  0.00  0.00    +0.133 HD
BRANCH   8  10
ATOM     10  C   UNL     1       9.068  -1.993  22.727  0.00  0.00    +0.107 C 
BRANCH  10  12
ATOM     11 CL   UNL     1       9.167   0.387  21.420  0.00  0.00    -0.124 Cl
ATOM     12  C   UNL     1       9.955  -1.170  21.791  0.00  0.00    +0.124 C 
ENDBRANCH  10  12
ENDBRANCH   8  10
ENDBRANCH   1   8
BRANCH   2  13
ATOM     13  C   UNL     1       7.865  -1.853  26.131  0.00  0.00    +0.110 C 
BRANCH  13  14
ATOM     14  C   UNL     1       8.830  -0.819  26.725  0.00  0.00    +0.124 C 
ATOM     15 CL   UNL     1       9.305   0.378  25.491  0.00  0.00    -0.124 Cl
ENDBRANCH  13  14
ENDBRANCH   2  13
TORSDOF 5
ENDMDL
MODEL 6
REMARK VINA RESULT:      -4.3      3.082      4.860
REMARK  Name = 
REMARK  5 active torsions:
REMARK  status: ('A' for Active; 'I' for Inactive)
REMARK    1  A    between atoms: C_2  and  C_3
REMARK    2  A    between atoms: C_3  and  N_4
REMARK    3  A    between atoms: N_4  and  P_5
REMARK    4  A    between atoms: N_11  and  C_12
REMARK    5  A    between atoms: C_12  and  C_13
REMARK                            x       y       z     vdW  Elec       q    Type
REMARK                         _______ _______ _______ _____ _____    ______ ____
ROOT
ATOM      1  P   UNL     1       8.528  -4.632  25.010  0.00  0.00    +0.346 P 
ATOM      2  N   UNL     1       7.718  -4.451  23.583  0.00  0.00    -0.218 NA
ATOM      3  C   UNL     1       8.136  -3.222  22.883  0.00  0.00    +0.097 C 
ATOM      4  C   UNL     1       7.935  -1.964  23.737  0.00  0.00    +0.044 C 
ATOM      5  C   UNL     1       8.696  -2.069  25.051  0.00  0.00    +0.171 C 
ATOM      6  O   UNL     1       8.272  -3.224  25.760  0.00  0.00    -0.305 OA
ATOM      7  O   UNL     1       9.999  -4.875  24.877  0.00  0.00    -0.254 OA
ENDROOT
BRANCH   1   8
ATOM      8  N   UNL     1       7.770  -5.706  25.974  0.00  0.00    -0.231 NA
ATOM      9  H   UNL     1       6.997  -6.119  25.461  0.00  0.00    +0.133 HD
BRANCH   8  10
ATOM     10  C   UNL     1       7.303  -5.324  27.304  0.00  0.00    +0.107 C 
BRANCH  10  12
ATOM     11 CL   UNL     1       5.155  -6.665  26.319  0.00  0.00    -0.124 Cl
ATOM     12  C   UNL     1       5.813  -5.561  27.555  0.00  0.00    +0.124 C 
ENDBRANCH  10  12
ENDBRANCH   8  10
ENDBRANCH   1   8
BRANCH   2  13
ATOM     13  C   UNL     1       6.257  -4.638  23.548  0.00  0.00    +0.110 C 
BRANCH  13  14
ATOM     14  C   UNL     1       5.803  -5.886  22.780  0.00  0.00    +0.124 C 
ATOM     15 CL   UNL     1       6.252  -5.761  21.059  0.00  0.00    -0.124 Cl
ENDBRANCH  13  14
ENDBRANCH   2  13
TORSDOF 5
ENDMDL
MODEL 7
REMARK VINA RESULT:      -4.3      2.716      3.268
REMARK  Name = 
REMARK  5 active torsions:
REMARK  status: ('A' for Active; 'I' for Inactive)
REMARK    1  A    between atoms: C_2  and  C_3
REMARK    2  A    between atoms: C_3  and  N_4
REMARK    3  A    between atoms: N_4  and  P_5
REMARK    4  A    between atoms: N_11  and  C_12
REMARK    5  A    between atoms: C_12  and  C_13
REMARK                            x       y       z     vdW  Elec       q    Type
REMARK                         _______ _______ _______ _____ _____    ______ ____
ROOT
ATOM      1  P   UNL     1       7.684  -4.314  23.473  0.00  0.00    +0.346 P 
ATOM      2  N   UNL     1       6.152  -4.376  24.086  0.00  0.00    -0.218 NA
ATOM      3  C   UNL     1       5.477  -5.633  23.713  0.00  0.00    +0.097 C 
ATOM      4  C   UNL     1       5.418  -5.839  22.195  0.00  0.00    +0.044 C 
ATOM      5  C   UNL     1       6.815  -5.826  21.587  0.00  0.00    +0.171 C 
ATOM      6  O   UNL     1       7.462  -4.602  21.898  0.00  0.00    -0.305 OA
ATOM      7  O   UNL     1       8.635  -5.319  24.043  0.00  0.00    -0.254 OA
ENDROOT
BRANCH   1   8
ATOM      8  N   UNL     1       8.254  -2.787  23.491  0.00  0.00    -0.231 NA
ATOM      9  H   UNL     1       7.659  -2.221  24.089  0.00  0.00    +0.133 HD
BRANCH   8  10
ATOM     10  C   UNL     1       8.500  -2.061  22.249  0.00  0.00    +0.107 C 
BRANCH  10  12
ATOM     11 CL   UNL     1       9.692   0.276  21.540  0.00  0.00    -0.124 Cl
ATOM     12  C   UNL     1       9.871  -1.388  22.157  0.00  0.00    +0.124 C 
ENDBRANCH  10  12
ENDBRANCH   8  10
ENDBRANCH   1   8
BRANCH   2  13
ATOM     13  C   UNL     1       5.265  -3.208  23.943  0.00  0.00    +0.110 C 
BRANCH  13  14
ATOM     14  C   UNL     1       4.499  -2.842  25.221  0.00  0.00    +0.124 C 
ATOM     15 CL   UNL     1       2.838  -3.488  25.163  0.00  0.00    -0.124 Cl
ENDBRANCH  13  14
ENDBRANCH   2  13
TORSDOF 5
ENDMDL
MODEL 8
REMARK VINA RESULT:      -4.2      3.254      4.519
REMARK  Name = 
REMARK  5 active torsions:
REMARK  status: ('A' for Active; 'I' for Inactive)
REMARK    1  A    between atoms: C_2  and  C_3
REMARK    2  A    between atoms: C_3  and  N_4
REMARK    3  A    between atoms: N_4  and  P_5
REMARK    4  A    between atoms: N_11  and  C_12
REMARK    5  A    between atoms: C_12  and  C_13
REMARK                            x       y       z     vdW  Elec       q    Type
REMARK                         _______ _______ _______ _____ _____    ______ ____
ROOT
ATOM      1  P   UNL     1       9.885   0.315  24.380  0.00  0.00    +0.346 P 
ATOM      2  N   UNL     1       9.931  -1.302  24.052  0.00  0.00    -0.218 NA
ATOM      3  C   UNL     1      10.388  -1.556  22.673  0.00  0.00    +0.097 C 
ATOM      4  C   UNL     1       9.512  -0.857  21.627  0.00  0.00    +0.044 C 
ATOM      5  C   UNL     1       9.469   0.646  21.867  0.00  0.00    +0.171 C 
ATOM      6  O   UNL     1       8.986   0.910  23.176  0.00  0.00    -0.305 OA
ATOM      7  O   UNL     1      11.219   0.995  24.401  0.00  0.00    -0.254 OA
ENDROOT
BRANCH   1   8
ATOM      8  N   UNL     1       8.976   0.614  25.700  0.00  0.00    -0.231 NA
ATOM      9  H   UNL     1       8.666  -0.270  26.092  0.00  0.00    +0.133 HD
BRANCH   8  10
ATOM     10  C   UNL     1       7.839   1.527  25.639  0.00  0.00    +0.107 C 
BRANCH  10  12
ATOM     11 CL   UNL     1       5.851   0.008  24.579  0.00  0.00    -0.124 Cl
ATOM     12  C   UNL     1       6.488   0.898  25.987  0.00  0.00    +0.124 C 
ENDBRANCH  10  12
ENDBRANCH   8  10
ENDBRANCH   1   8
BRANCH   2  13
ATOM     13  C   UNL     1       8.783  -2.150  24.420  0.00  0.00    +0.110 C 
BRANCH  13  14
ATOM     14  C   UNL     1       9.131  -3.634  24.599  0.00  0.00    +0.124 C 
ATOM     15 CL   UNL     1       8.021  -4.657  23.650  0.00  0.00    -0.124 Cl
ENDBRANCH  13  14
ENDBRANCH   2  13
TORSDOF 5
ENDMDL
MODEL 9
REMARK VINA RESULT:      -4.2      3.077      4.723
REMARK  Name = 
REMARK  5 active torsions:
REMARK  status: ('A' for Active; 'I' for Inactive)
REMARK    1  A    between atoms: C_2  and  C_3
REMARK    2  A    between atoms: C_3  and  N_4
REMARK    3  A    between atoms: N_4  and  P_5
REMARK    4  A    between atoms: N_11  and  C_12
REMARK    5  A    between atoms: C_12  and  C_13
REMARK                            x       y       z     vdW  Elec       q    Type
REMARK                         _______ _______ _______ _____ _____    ______ ____
ROOT
ATOM      1  P   UNL     1       7.216  -1.397  23.203  0.00  0.00    +0.346 P 
ATOM      2  N   UNL     1       8.047  -1.887  24.543  0.00  0.00    -0.218 NA
ATOM      3  C   UNL     1       9.446  -1.421  24.504  0.00  0.00    +0.097 C 
ATOM      4  C   UNL     1      10.188  -1.899  23.251  0.00  0.00    +0.044 C 
ATOM      5  C   UNL     1       9.478  -1.439  21.986  0.00  0.00    +0.171 C 
ATOM      6  O   UNL     1       8.141  -1.919  21.985  0.00  0.00    -0.305 OA
ATOM      7  O   UNL     1       7.013   0.081  23.088  0.00  0.00    -0.254 OA
ENDROOT
BRANCH   1   8
ATOM      8  N   UNL     1       5.847  -2.264  23.021  0.00  0.00    -0.231 NA
ATOM      9  H   UNL     1       5.627  -2.719  23.903  0.00  0.00    +0.133 HD
BRANCH   8  10
ATOM     10  C   UNL     1       5.710  -3.238  21.942  0.00  0.00    +0.107 C 
BRANCH  10  12
ATOM     11 CL   UNL     1       6.167  -5.791  21.132  0.00  0.00    -0.124 Cl
ATOM     12  C   UNL     1       5.565  -4.690  22.400  0.00  0.00    +0.124 C 
ENDBRANCH  10  12
ENDBRANCH   8  10
ENDBRANCH   1   8
BRANCH   2  13
ATOM     13  C   UNL     1       7.942  -3.286  24.991  0.00  0.00    +0.110 C 
BRANCH  13  14
ATOM     14  C   UNL     1       7.263  -3.458  26.357  0.00  0.00    +0.124 C 
ATOM     15 CL   UNL     1       7.606  -5.074  27.029  0.00  0.00    -0.124 Cl
ENDBRANCH  13  14
ENDBRANCH   2  13
TORSDOF 5
ENDMDL
