MODEL 1
REMARK VINA RESULT:      -6.7      0.000      0.000
REMARK  Name = 
REMARK  8 active torsions:
REMARK  status: ('A' for Active; 'I' for Inactive)
REMARK    1  A    between atoms: C_2  and  C_3
REMARK    2  A    between atoms: C_2  and  C_4
REMARK    3  A    between atoms: C_2  and  C_18
REMARK    4  A    between atoms: C_4  and  N_5
REMARK    5  A    between atoms: C_6  and  C_8
REMARK    6  A    between atoms: C_11  and  S_14
REMARK    7  A    between atoms: S_14  and  N_15
REMARK    8  A    between atoms: C_18  and  N_19
REMARK                            x       y       z     vdW  Elec       q    Type
REMARK                         _______ _______ _______ _____ _____    ______ ____
ROOT
ATOM      1  N   UNL     1       6.494  -0.658  22.973  0.00  0.00    -0.311 N 
ATOM      2  H   UNL     1       6.894  -0.286  22.122  0.00  0.00    +0.149 HD
ATOM      3  C   UNL     1       6.079   0.210  23.962  0.00  0.00    +0.244 C 
ATOM      4  O   UNL     1       5.400  -0.136  24.921  0.00  0.00    -0.270 OA
ENDROOT
BRANCH   3   5
ATOM      5  C   UNL     1       6.463   1.639  23.792  0.00  0.00    +0.037 A 
ATOM      6  C   UNL     1       6.941   2.416  24.860  0.00  0.00    +0.015 A 
ATOM      7  C   UNL     1       7.320   3.744  24.647  0.00  0.00    +0.029 A 
ATOM      8  C   UNL     1       7.203   4.300  23.369  0.00  0.00    +0.105 A 
ATOM      9  C   UNL     1       6.709   3.542  22.303  0.00  0.00    +0.029 A 
ATOM     10  C   UNL     1       6.330   2.215  22.521  0.00  0.00    +0.015 A 
BRANCH   8  11
ATOM     11  S   UNL     1       7.746   5.959  23.079  0.00  0.00    +0.056 S 
ATOM     12  O   UNL     1       9.180   6.024  23.245  0.00  0.00    -0.153 OA
ATOM     13  O   UNL     1       6.847   6.874  23.745  0.00  0.00    -0.153 OA
BRANCH  11  14
ATOM     14  N   UNL     1       7.457   6.139  21.438  0.00  0.00    -0.204 NA
ATOM     15  H   UNL     1       6.584   6.649  21.294  0.00  0.00    +0.144 HD
ATOM     16  H   UNL     1       7.478   5.229  20.980  0.00  0.00    +0.144 HD
ENDBRANCH  11  14
ENDBRANCH   8  11
ENDBRANCH   3   5
BRANCH   1  17
ATOM     17  C   UNL     1       6.135  -2.062  22.995  0.00  0.00    +0.109 C 
BRANCH  17  18
ATOM     18  C   UNL     1       7.332  -2.990  23.270  0.00  0.00    +0.023 C 
ATOM     19  C   UNL     1       7.098  -4.375  22.655  0.00  0.00    +0.011 C 
BRANCH  18  20
ATOM     20  C   UNL     1       8.612  -2.323  22.719  0.00  0.00    +0.126 C 
BRANCH  20  21
ATOM     21  N   UNL     1       9.170  -1.278  23.564  0.00  0.00    -0.346 N 
ATOM     22  C   UNL     1       9.580  -0.022  23.151  0.00  0.00    +0.049 A 
ATOM     23  C   UNL     1      10.104   0.624  24.278  0.00  0.00    -0.000 A 
ATOM     24  C   UNL     1      10.635   1.924  24.142  0.00  0.00    +0.010 A 
ATOM     25  C   UNL     1      10.600   2.557  22.897  0.00  0.00    +0.001 A 
ATOM     26  C   UNL     1      10.050   1.912  21.793  0.00  0.00    +0.002 A 
ATOM     27  C   UNL     1       9.941  -0.251  25.382  0.00  0.00    +0.027 A 
ATOM     28  C   UNL     1       9.541   0.612  21.896  0.00  0.00    +0.026 A 
ATOM     29  C   UNL     1       9.322  -1.391  24.924  0.00  0.00    +0.087 A 
ENDBRANCH  20  21
ENDBRANCH  18  20
ENDBRANCH  17  18
ENDBRANCH   1  17
TORSDOF 7
ENDMDL
MODEL 2
REMARK VINA RESULT:      -6.7      4.124      7.157
REMARK  Name = 
REMARK  8 active torsions:
REMARK  status: ('A' for Active; 'I' for Inactive)
REMARK    1  A    between atoms: C_2  and  C_3
REMARK    2  A    between atoms: C_2  and  C_4
REMARK    3  A    between atoms: C_2  and  C_18
REMARK    4  A    between atoms: C_4  and  N_5
REMARK    5  A    between atoms: C_6  and  C_8
REMARK    6  A    between atoms: C_11  and  S_14
REMARK    7  A    between atoms: S_14  and  N_15
REMARK    8  A    between atoms: C_18  and  N_19
REMARK                            x       y       z     vdW  Elec       q    Type
REMARK                         _______ _______ _______ _____ _____    ______ ____
ROOT
ATOM      1  N   UNL     1       8.783  -0.977  22.503  0.00  0.00    -0.311 N 
ATOM      2  H   UNL     1       7.780  -0.894  22.598  0.00  0.00    +0.149 HD
ATOM      3  C   UNL     1       9.430  -2.051  23.081  0.00  0.00    +0.244 C 
ATOM      4  O   UNL     1      10.596  -2.343  22.842  0.00  0.00    -0.270 OA
ENDROOT
BRANCH   3   5
ATOM      5  C   UNL     1       8.619  -2.895  24.003  0.00  0.00    +0.037 A 
ATOM      6  C   UNL     1       7.918  -4.026  23.557  0.00  0.00    +0.015 A 
ATOM      7  C   UNL     1       7.196  -4.806  24.464  0.00  0.00    +0.029 A 
ATOM      8  C   UNL     1       7.160  -4.443  25.814  0.00  0.00    +0.105 A 
ATOM      9  C   UNL     1       7.839  -3.307  26.265  0.00  0.00    +0.029 A 
ATOM     10  C   UNL     1       8.559  -2.529  25.355  0.00  0.00    +0.015 A 
BRANCH   8  11
ATOM     11  S   UNL     1       6.304  -5.465  26.977  0.00  0.00    +0.056 S 
ATOM     12  O   UNL     1       5.674  -6.558  26.273  0.00  0.00    -0.153 OA
ATOM     13  O   UNL     1       5.584  -4.624  27.906  0.00  0.00    -0.153 OA
BRANCH  11  14
ATOM     14  N   UNL     1       7.569  -6.137  27.848  0.00  0.00    -0.204 NA
ATOM     15  H   UNL     1       7.684  -7.119  27.591  0.00  0.00    +0.144 HD
ATOM     16  H   UNL     1       7.420  -5.991  28.846  0.00  0.00    +0.144 HD
ENDBRANCH  11  14
ENDBRANCH   8  11
ENDBRANCH   3   5
BRANCH   1  17
ATOM     17  C   UNL     1       9.448  -0.116  21.545  0.00  0.00    +0.109 C 
BRANCH  17  18
ATOM     18  C   UNL     1       9.287   1.381  21.863  0.00  0.00    +0.023 C 
ATOM     19  C   UNL     1       7.935   1.902  21.357  0.00  0.00    +0.011 C 
BRANCH  18  20
ATOM     20  C   UNL     1       9.449   1.584  23.386  0.00  0.00    +0.126 C 
BRANCH  20  21
ATOM     21  N   UNL     1       9.346   2.965  23.834  0.00  0.00    -0.346 N 
ATOM     22  C   UNL     1      10.348   3.920  23.780  0.00  0.00    +0.049 A 
ATOM     23  C   UNL     1       9.832   5.081  24.371  0.00  0.00    -0.000 A 
ATOM     24  C   UNL     1      10.656   6.219  24.486  0.00  0.00    +0.010 A 
ATOM     25  C   UNL     1      11.959   6.183  23.980  0.00  0.00    +0.001 A 
ATOM     26  C   UNL     1      12.446   5.031  23.370  0.00  0.00    +0.002 A 
ATOM     27  C   UNL     1       8.483   4.814  24.722  0.00  0.00    +0.027 A 
ATOM     28  C   UNL     1      11.656   3.879  23.268  0.00  0.00    +0.026 A 
ATOM     29  C   UNL     1       8.198   3.525  24.337  0.00  0.00    +0.087 A 
ENDBRANCH  20  21
ENDBRANCH  18  20
ENDBRANCH  17  18
ENDBRANCH   1  17
TORSDOF 7
ENDMDL
MODEL 3
REMARK VINA RESULT:      -6.7      3.477      6.655
REMARK  Name = 
REMARK  8 active torsions:
REMARK  status: ('A' for Active; 'I' for Inactive)
REMARK    1  A    between atoms: C_2  and  C_3
REMARK    2  A    between atoms: C_2  and  C_4
REMARK    3  A    between atoms: C_2  and  C_18
REMARK    4  A    between atoms: C_4  and  N_5
REMARK    5  A    between atoms: C_6  and  C_8
REMARK    6  A    between atoms: C_11  and  S_14
REMARK    7  A    between atoms: S_14  and  N_15
REMARK    8  A    between atoms: C_18  and  N_19
REMARK                            x       y       z     vdW  Elec       q    Type
REMARK                         _______ _______ _______ _____ _____    ______ ____
ROOT
ATOM      1  N   UNL     1       7.697   1.645  26.199  0.00  0.00    -0.311 N 
ATOM      2  H   UNL     1       8.569   1.278  26.555  0.00  0.00    +0.149 HD
ATOM      3  C   UNL     1       6.761   0.777  25.673  0.00  0.00    +0.244 C 
ATOM      4  O   UNL     1       5.608   1.104  25.417  0.00  0.00    -0.270 OA
ENDROOT
BRANCH   3   5
ATOM      5  C   UNL     1       7.207  -0.628  25.462  0.00  0.00    +0.037 A 
ATOM      6  C   UNL     1       6.899  -1.341  24.293  0.00  0.00    +0.015 A 
ATOM      7  C   UNL     1       7.366  -2.648  24.125  0.00  0.00    +0.029 A 
ATOM      8  C   UNL     1       8.126  -3.247  25.135  0.00  0.00    +0.105 A 
ATOM      9  C   UNL     1       8.421  -2.552  26.312  0.00  0.00    +0.029 A 
ATOM     10  C   UNL     1       7.951  -1.247  26.477  0.00  0.00    +0.015 A 
BRANCH   8  11
ATOM     11  S   UNL     1       8.777  -4.874  24.898  0.00  0.00    +0.056 S 
ATOM     12  O   UNL     1      10.220  -4.816  24.926  0.00  0.00    -0.153 OA
ATOM     13  O   UNL     1       8.048  -5.525  23.832  0.00  0.00    -0.153 OA
BRANCH  11  14
ATOM     14  N   UNL     1       8.313  -5.645  26.312  0.00  0.00    -0.204 NA
ATOM     15  H   UNL     1       8.267  -6.654  26.158  0.00  0.00    +0.144 HD
ATOM     16  H   UNL     1       7.441  -5.245  26.655  0.00  0.00    +0.144 HD
ENDBRANCH  11  14
ENDBRANCH   8  11
ENDBRANCH   3   5
BRANCH   1  17
ATOM     17  C   UNL     1       7.367   3.024  26.503  0.00  0.00    +0.109 C 
BRANCH  17  18
ATOM     18  C   UNL     1       7.676   3.990  25.345  0.00  0.00    +0.023 C 
ATOM     19  C   UNL     1       7.813   5.428  25.860  0.00  0.00    +0.011 C 
BRANCH  18  20
ATOM     20  C   UNL     1       8.957   3.510  24.628  0.00  0.00    +0.126 C 
BRANCH  20  21
ATOM     21  N   UNL     1       8.728   2.679  23.455  0.00  0.00    -0.346 N 
ATOM     22  C   UNL     1       9.301   1.445  23.200  0.00  0.00    +0.049 A 
ATOM     23  C   UNL     1       8.847   1.041  21.938  0.00  0.00    -0.000 A 
ATOM     24  C   UNL     1       9.304  -0.180  21.401  0.00  0.00    +0.010 A 
ATOM     25  C   UNL     1      10.173  -0.981  22.147  0.00  0.00    +0.001 A 
ATOM     26  C   UNL     1      10.592  -0.578  23.412  0.00  0.00    +0.002 A 
ATOM     27  C   UNL     1       7.944   2.033  21.475  0.00  0.00    +0.027 A 
ATOM     28  C   UNL     1      10.173   0.643  23.956  0.00  0.00    +0.026 A 
ATOM     29  C   UNL     1       7.853   3.001  22.446  0.00  0.00    +0.087 A 
ENDBRANCH  20  21
ENDBRANCH  18  20
ENDBRANCH  17  18
ENDBRANCH   1  17
TORSDOF 7
ENDMDL
MODEL 4
REMARK VINA RESULT:      -6.7      3.853      7.155
REMARK  Name = 
REMARK  8 active torsions:
REMARK  status: ('A' for Active; 'I' for Inactive)
REMARK    1  A    between atoms: C_2  and  C_3
REMARK    2  A    between atoms: C_2  and  C_4
REMARK    3  A    between atoms: C_2  and  C_18
REMARK    4  A    between atoms: C_4  and  N_5
REMARK    5  A    between atoms: C_6  and  C_8
REMARK    6  A    between atoms: C_11  and  S_14
REMARK    7  A    between atoms: S_14  and  N_15
REMARK    8  A    between atoms: C_18  and  N_19
REMARK                            x       y       z     vdW  Elec       q    Type
REMARK                         _______ _______ _______ _____ _____    ______ ____
ROOT
ATOM      1  N   UNL     1       9.715  -0.759  24.228  0.00  0.00    -0.311 N 
ATOM      2  H   UNL     1       8.841  -0.614  24.715  0.00  0.00    +0.149 HD
ATOM      3  C   UNL     1       9.807  -1.769  23.291  0.00  0.00    +0.244 C 
ATOM      4  O   UNL     1      10.746  -1.881  22.511  0.00  0.00    -0.270 OA
ENDROOT
BRANCH   3   5
ATOM      5  C   UNL     1       8.666  -2.724  23.233  0.00  0.00    +0.037 A 
ATOM      6  C   UNL     1       8.584  -3.841  24.079  0.00  0.00    +0.015 A 
ATOM      7  C   UNL     1       7.478  -4.693  24.012  0.00  0.00    +0.029 A 
ATOM      8  C   UNL     1       6.463  -4.437  23.083  0.00  0.00    +0.105 A 
ATOM      9  C   UNL     1       6.545  -3.339  22.222  0.00  0.00    +0.029 A 
ATOM     10  C   UNL     1       7.653  -2.490  22.292  0.00  0.00    +0.015 A 
BRANCH   8  11
ATOM     11  S   UNL     1       5.029  -5.472  23.041  0.00  0.00    +0.056 S 
ATOM     12  O   UNL     1       3.856  -4.650  22.853  0.00  0.00    -0.153 OA
ATOM     13  O   UNL     1       5.124  -6.456  24.095  0.00  0.00    -0.153 OA
BRANCH  11  14
ATOM     14  N   UNL     1       5.247  -6.311  21.606  0.00  0.00    -0.204 NA
ATOM     15  H   UNL     1       4.927  -5.743  20.820  0.00  0.00    +0.144 HD
ATOM     16  H   UNL     1       4.791  -7.222  21.664  0.00  0.00    +0.144 HD
ENDBRANCH  11  14
ENDBRANCH   8  11
ENDBRANCH   3   5
BRANCH   1  17
ATOM     17  C   UNL     1      10.734   0.265  24.342  0.00  0.00    +0.109 C 
BRANCH  17  18
ATOM     18  C   UNL     1      10.267   1.643  23.839  0.00  0.00    +0.023 C 
ATOM     19  C   UNL     1      10.276   1.693  22.306  0.00  0.00    +0.011 C 
BRANCH  18  20
ATOM     20  C   UNL     1       8.864   1.932  24.417  0.00  0.00    +0.126 C 
BRANCH  20  21
ATOM     21  N   UNL     1       8.011   2.755  23.572  0.00  0.00    -0.346 N 
ATOM     22  C   UNL     1       8.144   4.115  23.351  0.00  0.00    +0.049 A 
ATOM     23  C   UNL     1       7.078   4.497  22.527  0.00  0.00    -0.000 A 
ATOM     24  C   UNL     1       6.940   5.853  22.164  0.00  0.00    +0.010 A 
ATOM     25  C   UNL     1       7.884   6.785  22.604  0.00  0.00    +0.001 A 
ATOM     26  C   UNL     1       8.953   6.384  23.398  0.00  0.00    +0.002 A 
ATOM     27  C   UNL     1       6.343   3.324  22.213  0.00  0.00    +0.027 A 
ATOM     28  C   UNL     1       9.097   5.048  23.794  0.00  0.00    +0.026 A 
ATOM     29  C   UNL     1       6.967   2.264  22.827  0.00  0.00    +0.087 A 
ENDBRANCH  20  21
ENDBRANCH  18  20
ENDBRANCH  17  18
ENDBRANCH   1  17
TORSDOF 7
ENDMDL
MODEL 5
REMARK VINA RESULT:      -6.7      4.203      7.141
REMARK  Name = 
REMARK  8 active torsions:
REMARK  status: ('A' for Active; 'I' for Inactive)
REMARK    1  A    between atoms: C_2  and  C_3
REMARK    2  A    between atoms: C_2  and  C_4
REMARK    3  A    between atoms: C_2  and  C_18
REMARK    4  A    between atoms: C_4  and  N_5
REMARK    5  A    between atoms: C_6  and  C_8
REMARK    6  A    between atoms: C_11  and  S_14
REMARK    7  A    between atoms: S_14  and  N_15
REMARK    8  A    between atoms: C_18  and  N_19
REMARK                            x       y       z     vdW  Elec       q    Type
REMARK                         _______ _______ _______ _____ _____    ______ ____
ROOT
ATOM      1  N   UNL     1       8.815  -1.578  22.243  0.00  0.00    -0.311 N 
ATOM      2  H   UNL     1       8.001  -1.450  21.658  0.00  0.00    +0.149 HD
ATOM      3  C   UNL     1       8.848  -2.628  23.138  0.00  0.00    +0.244 C 
ATOM      4  O   UNL     1       9.862  -2.981  23.727  0.00  0.00    -0.270 OA
ENDROOT
BRANCH   3   5
ATOM      5  C   UNL     1       7.570  -3.368  23.336  0.00  0.00    +0.037 A 
ATOM      6  C   UNL     1       6.344  -2.883  22.853  0.00  0.00    +0.015 A 
ATOM      7  C   UNL     1       5.175  -3.627  23.035  0.00  0.00    +0.029 A 
ATOM      8  C   UNL     1       5.230  -4.847  23.717  0.00  0.00    +0.105 A 
ATOM      9  C   UNL     1       6.442  -5.329  24.220  0.00  0.00    +0.029 A 
ATOM     10  C   UNL     1       7.608  -4.582  24.037  0.00  0.00    +0.015 A 
BRANCH   8  11
ATOM     11  S   UNL     1       3.765  -5.824  23.889  0.00  0.00    +0.056 S 
ATOM     12  O   UNL     1       3.029  -5.796  22.646  0.00  0.00    -0.153 OA
ATOM     13  O   UNL     1       3.147  -5.530  25.162  0.00  0.00    -0.153 OA
BRANCH  11  14
ATOM     14  N   UNL     1       4.392  -7.372  24.027  0.00  0.00    -0.204 NA
ATOM     15  H   UNL     1       5.399  -7.325  24.189  0.00  0.00    +0.144 HD
ATOM     16  H   UNL     1       4.136  -7.924  23.209  0.00  0.00    +0.144 HD
ENDBRANCH  11  14
ENDBRANCH   8  11
ENDBRANCH   3   5
BRANCH   1  17
ATOM     17  C   UNL     1      10.007  -0.818  21.922  0.00  0.00    +0.109 C 
BRANCH  17  18
ATOM     18  C   UNL     1       9.826   0.699  22.106  0.00  0.00    +0.023 C 
ATOM     19  C   UNL     1       8.623   1.205  21.300  0.00  0.00    +0.011 C 
BRANCH  18  20
ATOM     20  C   UNL     1       9.677   1.000  23.614  0.00  0.00    +0.126 C 
BRANCH  20  21
ATOM     21  N   UNL     1       9.327   2.377  23.932  0.00  0.00    -0.346 N 
ATOM     22  C   UNL     1      10.152   3.482  23.809  0.00  0.00    +0.049 A 
ATOM     23  C   UNL     1       9.427   4.583  24.282  0.00  0.00    -0.000 A 
ATOM     24  C   UNL     1      10.042   5.852  24.308  0.00  0.00    +0.010 A 
ATOM     25  C   UNL     1      11.348   5.996  23.832  0.00  0.00    +0.001 A 
ATOM     26  C   UNL     1      12.044   4.897  23.339  0.00  0.00    +0.002 A 
ATOM     27  C   UNL     1       8.132   4.120  24.631  0.00  0.00    +0.027 A 
ATOM     28  C   UNL     1      11.465   3.622  23.328  0.00  0.00    +0.026 A 
ATOM     29  C   UNL     1       8.083   2.773  24.361  0.00  0.00    +0.087 A 
ENDBRANCH  20  21
ENDBRANCH  18  20
ENDBRANCH  17  18
ENDBRANCH   1  17
TORSDOF 7
ENDMDL
MODEL 6
REMARK VINA RESULT:      -6.4      3.392      7.089
REMARK  Name = 
REMARK  8 active torsions:
REMARK  status: ('A' for Active; 'I' for Inactive)
REMARK    1  A    between atoms: C_2  and  C_3
REMARK    2  A    between atoms: C_2  and  C_4
REMARK    3  A    between atoms: C_2  and  C_18
REMARK    4  A    between atoms: C_4  and  N_5
REMARK    5  A    between atoms: C_6  and  C_8
REMARK    6  A    between atoms: C_11  and  S_14
REMARK    7  A    between atoms: S_14  and  N_15
REMARK    8  A    between atoms: C_18  and  N_19
REMARK                            x       y       z     vdW  Elec       q    Type
REMARK                         _______ _______ _______ _____ _____    ______ ____
ROOT
ATOM      1  N   UNL     1      10.491   2.251  23.842  0.00  0.00    -0.311 N 
ATOM      2  H   UNL     1      10.399   2.132  24.841  0.00  0.00    +0.149 HD
ATOM      3  C   UNL     1      10.131   1.217  23.000  0.00  0.00    +0.244 C 
ATOM      4  O   UNL     1      10.011   1.345  21.788  0.00  0.00    -0.270 OA
ENDROOT
BRANCH   3   5
ATOM      5  C   UNL     1       9.843  -0.093  23.649  0.00  0.00    +0.037 A 
ATOM      6  C   UNL     1       9.294  -0.183  24.937  0.00  0.00    +0.015 A 
ATOM      7  C   UNL     1       9.011  -1.434  25.493  0.00  0.00    +0.029 A 
ATOM      8  C   UNL     1       9.295  -2.595  24.766  0.00  0.00    +0.105 A 
ATOM      9  C   UNL     1       9.860  -2.516  23.490  0.00  0.00    +0.029 A 
ATOM     10  C   UNL     1      10.143  -1.264  22.939  0.00  0.00    +0.015 A 
BRANCH   8  11
ATOM     11  S   UNL     1       8.874  -4.176  25.437  0.00  0.00    +0.056 S 
ATOM     12  O   UNL     1       7.762  -4.725  24.696  0.00  0.00    -0.153 OA
ATOM     13  O   UNL     1       8.878  -4.095  26.880  0.00  0.00    -0.153 OA
BRANCH  11  14
ATOM     14  N   UNL     1      10.212  -5.098  25.024  0.00  0.00    -0.204 NA
ATOM     15  H   UNL     1      10.368  -5.050  24.016  0.00  0.00    +0.144 HD
ATOM     16  H   UNL     1      10.100  -6.049  25.375  0.00  0.00    +0.144 HD
ENDBRANCH  11  14
ENDBRANCH   8  11
ENDBRANCH   3   5
BRANCH   1  17
ATOM     17  C   UNL     1      10.741   3.587  23.337  0.00  0.00    +0.109 C 
BRANCH  17  18
ATOM     18  C   UNL     1       9.952   4.675  24.088  0.00  0.00    +0.023 C 
ATOM     19  C   UNL     1      10.786   5.955  24.224  0.00  0.00    +0.011 C 
BRANCH  18  20
ATOM     20  C   UNL     1       8.624   4.928  23.340  0.00  0.00    +0.126 C 
BRANCH  20  21
ATOM     21  N   UNL     1       7.707   3.798  23.319  0.00  0.00    -0.346 N 
ATOM     22  C   UNL     1       7.260   3.086  24.420  0.00  0.00    +0.049 A 
ATOM     23  C   UNL     1       6.449   2.054  23.931  0.00  0.00    -0.000 A 
ATOM     24  C   UNL     1       5.878   1.139  24.840  0.00  0.00    +0.010 A 
ATOM     25  C   UNL     1       6.103   1.294  26.210  0.00  0.00    +0.001 A 
ATOM     26  C   UNL     1       6.888   2.342  26.681  0.00  0.00    +0.002 A 
ATOM     27  C   UNL     1       6.374   2.204  22.522  0.00  0.00    +0.027 A 
ATOM     28  C   UNL     1       7.488   3.249  25.797  0.00  0.00    +0.026 A 
ATOM     29  C   UNL     1       7.116   3.310  22.180  0.00  0.00    +0.087 A 
ENDBRANCH  20  21
ENDBRANCH  18  20
ENDBRANCH  17  18
ENDBRANCH   1  17
TORSDOF 7
ENDMDL
MODEL 7
REMARK VINA RESULT:      -6.4      4.196      7.149
REMARK  Name = 
REMARK  8 active torsions:
REMARK  status: ('A' for Active; 'I' for Inactive)
REMARK    1  A    between atoms: C_2  and  C_3
REMARK    2  A    between atoms: C_2  and  C_4
REMARK    3  A    between atoms: C_2  and  C_18
REMARK    4  A    between atoms: C_4  and  N_5
REMARK    5  A    between atoms: C_6  and  C_8
REMARK    6  A    between atoms: C_11  and  S_14
REMARK    7  A    between atoms: S_14  and  N_15
REMARK    8  A    between atoms: C_18  and  N_19
REMARK                            x       y       z     vdW  Elec       q    Type
REMARK                         _______ _______ _______ _____ _____    ______ ____
ROOT
ATOM      1  N   UNL     1       9.565  -1.954  23.294  0.00  0.00    -0.311 N 
ATOM      2  H   UNL     1       9.815  -1.773  24.257  0.00  0.00    +0.149 HD
ATOM      3  C   UNL     1       8.452  -2.724  23.017  0.00  0.00    +0.244 C 
ATOM      4  O   UNL     1       7.959  -2.817  21.900  0.00  0.00    -0.270 OA
ENDROOT
BRANCH   3   5
ATOM      5  C   UNL     1       7.829  -3.425  24.174  0.00  0.00    +0.037 A 
ATOM      6  C   UNL     1       6.761  -4.322  24.015  0.00  0.00    +0.015 A 
ATOM      7  C   UNL     1       6.229  -4.982  25.126  0.00  0.00    +0.029 A 
ATOM      8  C   UNL     1       6.751  -4.728  26.398  0.00  0.00    +0.105 A 
ATOM      9  C   UNL     1       7.801  -3.821  26.570  0.00  0.00    +0.029 A 
ATOM     10  C   UNL     1       8.330  -3.163  25.457  0.00  0.00    +0.015 A 
BRANCH   8  11
ATOM     11  S   UNL     1       6.126  -5.612  27.798  0.00  0.00    +0.056 S 
ATOM     12  O   UNL     1       5.193  -4.771  28.510  0.00  0.00    -0.153 OA
ATOM     13  O   UNL     1       7.220  -6.288  28.458  0.00  0.00    -0.153 OA
BRANCH  11  14
ATOM     14  N   UNL     1       5.212  -6.814  27.071  0.00  0.00    -0.204 NA
ATOM     15  H   UNL     1       4.338  -6.942  27.583  0.00  0.00    +0.144 HD
ATOM     16  H   UNL     1       5.765  -7.667  26.987  0.00  0.00    +0.144 HD
ENDBRANCH  11  14
ENDBRANCH   8  11
ENDBRANCH   3   5
BRANCH   1  17
ATOM     17  C   UNL     1      10.226  -1.178  22.264  0.00  0.00    +0.109 C 
BRANCH  17  18
ATOM     18  C   UNL     1       9.980   0.336  22.395  0.00  0.00    +0.023 C 
ATOM     19  C   UNL     1       8.824   0.779  21.489  0.00  0.00    +0.011 C 
BRANCH  18  20
ATOM     20  C   UNL     1       9.710   0.667  23.879  0.00  0.00    +0.126 C 
BRANCH  20  21
ATOM     21  N   UNL     1       9.276   2.033  24.132  0.00  0.00    -0.346 N 
ATOM     22  C   UNL     1      10.020   3.182  23.922  0.00  0.00    +0.049 A 
ATOM     23  C   UNL     1       9.236   4.258  24.356  0.00  0.00    -0.000 A 
ATOM     24  C   UNL     1       9.763   5.564  24.292  0.00  0.00    +0.010 A 
ATOM     25  C   UNL     1      11.042   5.767  23.767  0.00  0.00    +0.001 A 
ATOM     26  C   UNL     1      11.797   4.690  23.313  0.00  0.00    +0.002 A 
ATOM     27  C   UNL     1       7.986   3.730  24.773  0.00  0.00    +0.027 A 
ATOM     28  C   UNL     1      11.306   3.381  23.391  0.00  0.00    +0.026 A 
ATOM     29  C   UNL     1       8.021   2.370  24.578  0.00  0.00    +0.087 A 
ENDBRANCH  20  21
ENDBRANCH  18  20
ENDBRANCH  17  18
ENDBRANCH   1  17
TORSDOF 7
ENDMDL
MODEL 8
REMARK VINA RESULT:      -6.4      3.642      6.707
REMARK  Name = 
REMARK  8 active torsions:
REMARK  status: ('A' for Active; 'I' for Inactive)
REMARK    1  A    between atoms: C_2  and  C_3
REMARK    2  A    between atoms: C_2  and  C_4
REMARK    3  A    between atoms: C_2  and  C_18
REMARK    4  A    between atoms: C_4  and  N_5
REMARK    5  A    between atoms: C_6  and  C_8
REMARK    6  A    between atoms: C_11  and  S_14
REMARK    7  A    between atoms: S_14  and  N_15
REMARK    8  A    between atoms: C_18  and  N_19
REMARK                            x       y       z     vdW  Elec       q    Type
REMARK                         _______ _______ _______ _____ _____    ______ ____
ROOT
ATOM      1  N   UNL     1       5.634   0.726  24.368  0.00  0.00    -0.311 N 
ATOM      2  H   UNL     1       5.806   0.728  23.372  0.00  0.00    +0.149 HD
ATOM      3  C   UNL     1       5.734  -0.459  25.070  0.00  0.00    +0.244 C 
ATOM      4  O   UNL     1       5.751  -0.519  26.293  0.00  0.00    -0.270 OA
ENDROOT
BRANCH   3   5
ATOM      5  C   UNL     1       5.868  -1.700  24.256  0.00  0.00    +0.037 A 
ATOM      6  C   UNL     1       6.318  -1.676  22.927  0.00  0.00    +0.015 A 
ATOM      7  C   UNL     1       6.458  -2.869  22.213  0.00  0.00    +0.029 A 
ATOM      8  C   UNL     1       6.129  -4.084  22.822  0.00  0.00    +0.105 A 
ATOM      9  C   UNL     1       5.660  -4.117  24.139  0.00  0.00    +0.029 A 
ATOM     10  C   UNL     1       5.520  -2.922  24.850  0.00  0.00    +0.015 A 
BRANCH   8  11
ATOM     11  S   UNL     1       6.369  -5.601  21.945  0.00  0.00    +0.056 S 
ATOM     12  O   UNL     1       7.657  -6.153  22.298  0.00  0.00    -0.153 OA
ATOM     13  O   UNL     1       5.951  -5.426  20.573  0.00  0.00    -0.153 OA
BRANCH  11  14
ATOM     14  N   UNL     1       5.224  -6.599  22.653  0.00  0.00    -0.204 NA
ATOM     15  H   UNL     1       5.261  -6.504  23.669  0.00  0.00    +0.144 HD
ATOM     16  H   UNL     1       5.350  -7.557  22.328  0.00  0.00    +0.144 HD
ENDBRANCH  11  14
ENDBRANCH   8  11
ENDBRANCH   3   5
BRANCH   1  17
ATOM     17  C   UNL     1       5.557   2.004  25.047  0.00  0.00    +0.109 C 
BRANCH  17  18
ATOM     18  C   UNL     1       6.411   3.097  24.378  0.00  0.00    +0.023 C 
ATOM     19  C   UNL     1       6.164   4.459  25.038  0.00  0.00    +0.011 C 
BRANCH  18  20
ATOM     20  C   UNL     1       7.897   2.680  24.455  0.00  0.00    +0.126 C 
BRANCH  20  21
ATOM     21  N   UNL     1       8.369   1.888  23.329  0.00  0.00    -0.346 N 
ATOM     22  C   UNL     1       8.978   0.646  23.399  0.00  0.00    +0.049 A 
ATOM     23  C   UNL     1       9.319   0.288  22.089  0.00  0.00    -0.000 A 
ATOM     24  C   UNL     1       9.992  -0.930  21.861  0.00  0.00    +0.010 A 
ATOM     25  C   UNL     1      10.278  -1.773  22.939  0.00  0.00    +0.001 A 
ATOM     26  C   UNL     1       9.907  -1.415  24.231  0.00  0.00    +0.002 A 
ATOM     27  C   UNL     1       8.846   1.315  21.232  0.00  0.00    +0.027 A 
ATOM     28  C   UNL     1       9.261  -0.199  24.486  0.00  0.00    +0.026 A 
ATOM     29  C   UNL     1       8.225   2.259  22.015  0.00  0.00    +0.087 A 
ENDBRANCH  20  21
ENDBRANCH  18  20
ENDBRANCH  17  18
ENDBRANCH   1  17
TORSDOF 7
ENDMDL
MODEL 9
REMARK VINA RESULT:      -6.3      4.103      7.070
REMARK  Name = 
REMARK  8 active torsions:
REMARK  status: ('A' for Active; 'I' for Inactive)
REMARK    1  A    between atoms: C_2  and  C_3
REMARK    2  A    between atoms: C_2  and  C_4
REMARK    3  A    between atoms: C_2  and  C_18
REMARK    4  A    between atoms: C_4  and  N_5
REMARK    5  A    between atoms: C_6  and  C_8
REMARK    6  A    between atoms: C_11  and  S_14
REMARK    7  A    between atoms: S_14  and  N_15
REMARK    8  A    between atoms: C_18  and  N_19
REMARK                            x       y       z     vdW  Elec       q    Type
REMARK                         _______ _______ _______ _____ _____    ______ ____
ROOT
ATOM      1  N   UNL     1       8.799  -1.113  22.000  0.00  0.00    -0.311 N 
ATOM      2  H   UNL     1       7.896  -0.969  21.569  0.00  0.00    +0.149 HD
ATOM      3  C   UNL     1       9.029  -2.270  22.718  0.00  0.00    +0.244 C 
ATOM      4  O   UNL     1      10.141  -2.622  23.090  0.00  0.00    -0.270 OA
ENDROOT
BRANCH   3   5
ATOM      5  C   UNL     1       7.840  -3.125  22.993  0.00  0.00    +0.037 A 
ATOM      6  C   UNL     1       7.933  -4.320  23.723  0.00  0.00    +0.015 A 
ATOM      7  C   UNL     1       6.786  -5.073  23.985  0.00  0.00    +0.029 A 
ATOM      8  C   UNL     1       5.548  -4.640  23.499  0.00  0.00    +0.105 A 
ATOM      9  C   UNL     1       5.447  -3.462  22.752  0.00  0.00    +0.029 A 
ATOM     10  C   UNL     1       6.597  -2.713  22.492  0.00  0.00    +0.015 A 
BRANCH   8  11
ATOM     11  S   UNL     1       4.083  -5.554  23.885  0.00  0.00    +0.056 S 
ATOM     12  O   UNL     1       3.102  -5.338  22.847  0.00  0.00    -0.153 OA
ATOM     13  O   UNL     1       3.777  -5.386  25.288  0.00  0.00    -0.153 OA
BRANCH  11  14
ATOM     14  N   UNL     1       4.604  -7.138  23.714  0.00  0.00    -0.204 NA
ATOM     15  H   UNL     1       4.898  -7.507  24.619  0.00  0.00    +0.144 HD
ATOM     16  H   UNL     1       5.328  -7.189  22.998  0.00  0.00    +0.144 HD
ENDBRANCH  11  14
ENDBRANCH   8  11
ENDBRANCH   3   5
BRANCH   1  17
ATOM     17  C   UNL     1       9.882  -0.228  21.620  0.00  0.00    +0.109 C 
BRANCH  17  18
ATOM     18  C   UNL     1       9.555   1.259  21.843  0.00  0.00    +0.023 C 
ATOM     19  C   UNL     1       8.040   1.495  21.798  0.00  0.00    +0.011 C 
BRANCH  18  20
ATOM     20  C   UNL     1      10.168   1.705  23.189  0.00  0.00    +0.126 C 
BRANCH  20  21
ATOM     21  N   UNL     1       9.198   2.037  24.223  0.00  0.00    -0.346 N 
ATOM     22  C   UNL     1       8.699   1.176  25.185  0.00  0.00    +0.049 A 
ATOM     23  C   UNL     1       7.755   1.899  25.925  0.00  0.00    -0.000 A 
ATOM     24  C   UNL     1       7.053   1.253  26.963  0.00  0.00    +0.010 A 
ATOM     25  C   UNL     1       7.332  -0.084  27.258  0.00  0.00    +0.001 A 
ATOM     26  C   UNL     1       8.293  -0.780  26.532  0.00  0.00    +0.002 A 
ATOM     27  C   UNL     1       7.748   3.226  25.422  0.00  0.00    +0.027 A 
ATOM     28  C   UNL     1       8.986  -0.169  25.479  0.00  0.00    +0.026 A 
ATOM     29  C   UNL     1       8.678   3.294  24.411  0.00  0.00    +0.087 A 
ENDBRANCH  20  21
ENDBRANCH  18  20
ENDBRANCH  17  18
ENDBRANCH   1  17
TORSDOF 7
ENDMDL
