MODEL 1
REMARK VINA RESULT:      -6.5      0.000      0.000
REMARK  Name = 
REMARK  5 active torsions:
REMARK  status: ('A' for Active; 'I' for Inactive)
REMARK    1  A    between atoms: C_1  and  C_2
REMARK    2  A    between atoms: C_3  and  N_4
REMARK    3  A    between atoms: N_4  and  C_5
REMARK    4  A    between atoms: C_6  and  C_11
REMARK    5  A    between atoms: C_11  and  O_12
REMARK                            x       y       z     vdW  Elec       q    Type
REMARK                         _______ _______ _______ _____ _____    ______ ____
ROOT
ATOM      1  N   UNL     1      10.609   3.679  22.938  0.00  0.00    -0.299 N 
ATOM      2  H   UNL     1      11.244   3.700  22.145  0.00  0.00    +0.154 HD
ENDROOT
BRANCH   1  10
ATOM      3  C   UNL     1       8.111   2.525  21.842  0.00  0.00    +0.047 C 
ATOM      4  C   UNL     1       8.952   1.848  22.894  0.00  0.00    -0.011 A 
ATOM      5  C   UNL     1       8.501   0.652  23.491  0.00  0.00    +0.046 A 
ATOM      6 CL   UNL     1       6.904   0.044  23.221  0.00  0.00    -0.083 Cl
ATOM      7  C   UNL     1       9.327  -0.081  24.346  0.00  0.00    +0.020 A 
ATOM      8  C   UNL     1      10.621   0.356  24.600  0.00  0.00    +0.003 A 
ATOM      9  C   UNL     1      11.055   1.571  24.076  0.00  0.00    +0.023 A 
ATOM     10  C   UNL     1      10.208   2.369  23.290  0.00  0.00    +0.037 A 
ENDBRANCH   1  10
BRANCH   1  11
ATOM     11  C   UNL     1      10.738   4.819  23.765  0.00  0.00    +0.137 A 
ATOM     12  N   UNL     1       9.699   5.201  24.547  0.00  0.00    -0.239 NA
ATOM     13  C   UNL     1       9.854   6.276  25.356  0.00  0.00    +0.113 A 
ATOM     14  C   UNL     1      11.023   7.007  25.452  0.00  0.00    +0.021 A 
ATOM     15  C   UNL     1      12.074   6.654  24.616  0.00  0.00    +0.020 A 
ATOM     16  C   UNL     1      11.912   5.580  23.735  0.00  0.00    +0.099 A 
BRANCH  16  17
ATOM     17  C   UNL     1      13.013   5.286  22.795  0.00  0.00    +0.340 C 
ATOM     18  O   UNL     1      12.861   5.290  21.588  0.00  0.00    -0.245 OA
BRANCH  17  19
ATOM     19  O   UNL     1      14.165   4.942  23.403  0.00  0.00    -0.477 OA
ATOM     20  H   UNL     1      14.699   5.695  23.737  0.00  0.00    +0.295 HD
ENDBRANCH  17  19
ENDBRANCH  16  17
ENDBRANCH   1  11
TORSDOF 4
ENDMDL
MODEL 2
REMARK VINA RESULT:      -6.3      5.280      8.094
REMARK  Name = 
REMARK  5 active torsions:
REMARK  status: ('A' for Active; 'I' for Inactive)
REMARK    1  A    between atoms: C_1  and  C_2
REMARK    2  A    between atoms: C_3  and  N_4
REMARK    3  A    between atoms: N_4  and  C_5
REMARK    4  A    between atoms: C_6  and  C_11
REMARK    5  A    between atoms: C_11  and  O_12
REMARK                            x       y       z     vdW  Elec       q    Type
REMARK                         _______ _______ _______ _____ _____    ______ ____
ROOT
ATOM      1  N   UNL     1       9.602  -2.178  23.588  0.00  0.00    -0.299 N 
ATOM      2  H   UNL     1      10.522  -2.603  23.527  0.00  0.00    +0.154 HD
ENDROOT
BRANCH   1  10
ATOM      3  C   UNL     1       9.074  -0.326  25.840  0.00  0.00    +0.047 C 
ATOM      4  C   UNL     1       9.239   0.123  24.410  0.00  0.00    -0.011 A 
ATOM      5  C   UNL     1       9.031   1.477  24.071  0.00  0.00    +0.046 A 
ATOM      6 CL   UNL     1       8.371   2.609  25.201  0.00  0.00    -0.083 Cl
ATOM      7  C   UNL     1       9.332   1.952  22.793  0.00  0.00    +0.020 A 
ATOM      8  C   UNL     1       9.866   1.092  21.843  0.00  0.00    +0.003 A 
ATOM      9  C   UNL     1      10.011  -0.261  22.140  0.00  0.00    +0.023 A 
ATOM     10  C   UNL     1       9.626  -0.777  23.388  0.00  0.00    +0.037 A 
ENDBRANCH   1  10
BRANCH   1  11
ATOM     11  C   UNL     1       8.561  -3.095  23.311  0.00  0.00    +0.137 A 
ATOM     12  N   UNL     1       7.677  -2.827  22.320  0.00  0.00    -0.239 NA
ATOM     13  C   UNL     1       6.708  -3.734  22.050  0.00  0.00    +0.113 A 
ATOM     14  C   UNL     1       6.573  -4.939  22.715  0.00  0.00    +0.021 A 
ATOM     15  C   UNL     1       7.442  -5.196  23.767  0.00  0.00    +0.020 A 
ATOM     16  C   UNL     1       8.414  -4.246  24.094  0.00  0.00    +0.099 A 
BRANCH  16  17
ATOM     17  C   UNL     1       9.264  -4.506  25.274  0.00  0.00    +0.340 C 
ATOM     18  O   UNL     1       9.081  -3.959  26.345  0.00  0.00    -0.245 OA
BRANCH  17  19
ATOM     19  O   UNL     1      10.293  -5.339  25.025  0.00  0.00    -0.477 OA
ATOM     20  H   UNL     1      10.917  -5.462  25.772  0.00  0.00    +0.295 HD
ENDBRANCH  17  19
ENDBRANCH  16  17
ENDBRANCH   1  11
TORSDOF 4
ENDMDL
MODEL 3
REMARK VINA RESULT:      -6.3      5.522      8.297
REMARK  Name = 
REMARK  5 active torsions:
REMARK  status: ('A' for Active; 'I' for Inactive)
REMARK    1  A    between atoms: C_1  and  C_2
REMARK    2  A    between atoms: C_3  and  N_4
REMARK    3  A    between atoms: N_4  and  C_5
REMARK    4  A    between atoms: C_6  and  C_11
REMARK    5  A    between atoms: C_11  and  O_12
REMARK                            x       y       z     vdW  Elec       q    Type
REMARK                         _______ _______ _______ _____ _____    ______ ____
ROOT
ATOM      1  N   UNL     1       9.360  -2.727  23.404  0.00  0.00    -0.299 N 
ATOM      2  H   UNL     1       9.985  -3.022  22.660  0.00  0.00    +0.154 HD
ENDROOT
BRANCH   1  10
ATOM      3  C   UNL     1       9.317  -0.637  21.304  0.00  0.00    +0.047 C 
ATOM      4  C   UNL     1       9.636  -0.360  22.752  0.00  0.00    -0.011 A 
ATOM      5  C   UNL     1      10.047   0.930  23.146  0.00  0.00    +0.046 A 
ATOM      6 CL   UNL     1      10.416   2.163  21.988  0.00  0.00    -0.083 Cl
ATOM      7  C   UNL     1      10.193   1.258  24.495  0.00  0.00    +0.020 A 
ATOM      8  C   UNL     1       9.910   0.311  25.471  0.00  0.00    +0.003 A 
ATOM      9  C   UNL     1       9.573  -0.987  25.096  0.00  0.00    +0.023 A 
ATOM     10  C   UNL     1       9.512  -1.362  23.745  0.00  0.00    +0.037 A 
ENDBRANCH   1  10
BRANCH   1  11
ATOM     11  C   UNL     1       8.208  -3.542  23.499  0.00  0.00    +0.137 A 
ATOM     12  N   UNL     1       7.161  -3.321  22.668  0.00  0.00    -0.239 NA
ATOM     13  C   UNL     1       6.080  -4.134  22.753  0.00  0.00    +0.113 A 
ATOM     14  C   UNL     1       5.983  -5.198  23.629  0.00  0.00    +0.021 A 
ATOM     15  C   UNL     1       7.029  -5.397  24.520  0.00  0.00    +0.020 A 
ATOM     16  C   UNL     1       8.129  -4.534  24.482  0.00  0.00    +0.099 A 
BRANCH  16  17
ATOM     17  C   UNL     1       9.183  -4.714  25.501  0.00  0.00    +0.340 C 
ATOM     18  O   UNL     1       9.039  -4.371  26.659  0.00  0.00    -0.245 OA
BRANCH  17  19
ATOM     19  O   UNL     1      10.331  -5.219  25.007  0.00  0.00    -0.477 OA
ATOM     20  H   UNL     1      10.218  -5.883  24.293  0.00  0.00    +0.295 HD
ENDBRANCH  17  19
ENDBRANCH  16  17
ENDBRANCH   1  11
TORSDOF 4
ENDMDL
MODEL 4
REMARK VINA RESULT:      -6.2      5.766      8.628
REMARK  Name = 
REMARK  5 active torsions:
REMARK  status: ('A' for Active; 'I' for Inactive)
REMARK    1  A    between atoms: C_1  and  C_2
REMARK    2  A    between atoms: C_3  and  N_4
REMARK    3  A    between atoms: N_4  and  C_5
REMARK    4  A    between atoms: C_6  and  C_11
REMARK    5  A    between atoms: C_11  and  O_12
REMARK                            x       y       z     vdW  Elec       q    Type
REMARK                         _______ _______ _______ _____ _____    ______ ____
ROOT
ATOM      1  N   UNL     1       7.530  -2.320  23.568  0.00  0.00    -0.299 N 
ATOM      2  H   UNL     1       7.810  -2.446  24.537  0.00  0.00    +0.154 HD
ENDROOT
BRANCH   1  10
ATOM      3  C   UNL     1       6.244   0.280  24.171  0.00  0.00    +0.047 C 
ATOM      4  C   UNL     1       7.348   0.109  23.158  0.00  0.00    -0.011 A 
ATOM      5  C   UNL     1       7.742   1.202  22.358  0.00  0.00    +0.046 A 
ATOM      6 CL   UNL     1       6.850   2.685  22.337  0.00  0.00    -0.083 Cl
ATOM      7  C   UNL     1       8.864   1.120  21.531  0.00  0.00    +0.020 A 
ATOM      8  C   UNL     1       9.621  -0.044  21.507  0.00  0.00    +0.003 A 
ATOM      9  C   UNL     1       9.204  -1.155  22.236  0.00  0.00    +0.023 A 
ATOM     10  C   UNL     1       8.028  -1.123  23.001  0.00  0.00    +0.037 A 
ENDBRANCH   1  10
BRANCH   1  11
ATOM     11  C   UNL     1       7.224  -3.544  22.929  0.00  0.00    +0.137 A 
ATOM     12  N   UNL     1       6.340  -3.562  21.902  0.00  0.00    -0.239 NA
ATOM     13  C   UNL     1       6.086  -4.739  21.283  0.00  0.00    +0.113 A 
ATOM     14  C   UNL     1       6.692  -5.935  21.621  0.00  0.00    +0.021 A 
ATOM     15  C   UNL     1       7.558  -5.935  22.706  0.00  0.00    +0.020 A 
ATOM     16  C   UNL     1       7.791  -4.738  23.391  0.00  0.00    +0.099 A 
BRANCH  16  17
ATOM     17  C   UNL     1       8.644  -4.787  24.595  0.00  0.00    +0.340 C 
ATOM     18  O   UNL     1       8.288  -5.320  25.628  0.00  0.00    -0.245 OA
BRANCH  17  19
ATOM     19  O   UNL     1       9.808  -4.121  24.458  0.00  0.00    -0.477 OA
ATOM     20  H   UNL     1      10.595  -4.689  24.311  0.00  0.00    +0.295 HD
ENDBRANCH  17  19
ENDBRANCH  16  17
ENDBRANCH   1  11
TORSDOF 4
ENDMDL
MODEL 5
REMARK VINA RESULT:      -6.1      5.508      7.799
REMARK  Name = 
REMARK  5 active torsions:
REMARK  status: ('A' for Active; 'I' for Inactive)
REMARK    1  A    between atoms: C_1  and  C_2
REMARK    2  A    between atoms: C_3  and  N_4
REMARK    3  A    between atoms: N_4  and  C_5
REMARK    4  A    between atoms: C_6  and  C_11
REMARK    5  A    between atoms: C_11  and  O_12
REMARK                            x       y       z     vdW  Elec       q    Type
REMARK                         _______ _______ _______ _____ _____    ______ ____
ROOT
ATOM      1  N   UNL     1       9.727  -2.129  24.442  0.00  0.00    -0.299 N 
ATOM      2  H   UNL     1      10.389  -2.882  24.283  0.00  0.00    +0.154 HD
ENDROOT
BRANCH   1  10
ATOM      3  C   UNL     1      10.967   0.502  25.003  0.00  0.00    +0.047 C 
ATOM      4  C   UNL     1      10.232   0.180  23.726  0.00  0.00    -0.011 A 
ATOM      5  C   UNL     1      10.010   1.193  22.770  0.00  0.00    +0.046 A 
ATOM      6 CL   UNL     1      10.354   2.856  23.106  0.00  0.00    -0.083 Cl
ATOM      7  C   UNL     1       9.479   0.892  21.514  0.00  0.00    +0.020 A 
ATOM      8  C   UNL     1       9.185  -0.425  21.186  0.00  0.00    +0.003 A 
ATOM      9  C   UNL     1       9.332  -1.425  22.144  0.00  0.00    +0.023 A 
ATOM     10  C   UNL     1       9.775  -1.130  23.442  0.00  0.00    +0.037 A 
ENDBRANCH   1  10
BRANCH   1  11
ATOM     11  C   UNL     1       8.631  -2.532  25.242  0.00  0.00    +0.137 A 
ATOM     12  N   UNL     1       7.994  -1.619  26.014  0.00  0.00    -0.239 NA
ATOM     13  C   UNL     1       6.927  -2.018  26.746  0.00  0.00    +0.113 A 
ATOM     14  C   UNL     1       6.428  -3.307  26.743  0.00  0.00    +0.021 A 
ATOM     15  C   UNL     1       7.108  -4.260  25.996  0.00  0.00    +0.020 A 
ATOM     16  C   UNL     1       8.244  -3.876  25.276  0.00  0.00    +0.099 A 
BRANCH  16  17
ATOM     17  C   UNL     1       8.999  -4.928  24.566  0.00  0.00    +0.340 C 
ATOM     18  O   UNL     1       8.513  -5.590  23.669  0.00  0.00    -0.245 OA
BRANCH  17  19
ATOM     19  O   UNL     1      10.237  -5.130  25.059  0.00  0.00    -0.477 OA
ATOM     20  H   UNL     1      10.290  -5.187  26.037  0.00  0.00    +0.295 HD
ENDBRANCH  17  19
ENDBRANCH  16  17
ENDBRANCH   1  11
TORSDOF 4
ENDMDL
MODEL 6
REMARK VINA RESULT:      -5.8      4.974      7.617
REMARK  Name = 
REMARK  5 active torsions:
REMARK  status: ('A' for Active; 'I' for Inactive)
REMARK    1  A    between atoms: C_1  and  C_2
REMARK    2  A    between atoms: C_3  and  N_4
REMARK    3  A    between atoms: N_4  and  C_5
REMARK    4  A    between atoms: C_6  and  C_11
REMARK    5  A    between atoms: C_11  and  O_12
REMARK                            x       y       z     vdW  Elec       q    Type
REMARK                         _______ _______ _______ _____ _____    ______ ____
ROOT
ATOM      1  N   UNL     1       9.970  -2.053  24.156  0.00  0.00    -0.299 N 
ATOM      2  H   UNL     1      10.896  -2.466  24.223  0.00  0.00    +0.154 HD
ENDROOT
BRANCH   1  10
ATOM      3  C   UNL     1      11.136   0.568  24.897  0.00  0.00    +0.047 C 
ATOM      4  C   UNL     1      10.337   0.335  23.640  0.00  0.00    -0.011 A 
ATOM      5  C   UNL     1      10.014   1.422  22.802  0.00  0.00    +0.046 A 
ATOM      6 CL   UNL     1      10.311   3.060  23.277  0.00  0.00    -0.083 Cl
ATOM      7  C   UNL     1       9.419   1.217  21.556  0.00  0.00    +0.020 A 
ATOM      8  C   UNL     1       9.158  -0.075  21.119  0.00  0.00    +0.003 A 
ATOM      9  C   UNL     1       9.405  -1.154  21.964  0.00  0.00    +0.023 A 
ATOM     10  C   UNL     1       9.916  -0.962  23.257  0.00  0.00    +0.037 A 
ENDBRANCH   1  10
BRANCH   1  11
ATOM     11  C   UNL     1       8.945  -2.960  24.514  0.00  0.00    +0.137 A 
ATOM     12  N   UNL     1       8.806  -4.119  23.827  0.00  0.00    -0.239 NA
ATOM     13  C   UNL     1       7.839  -4.988  24.207  0.00  0.00    +0.113 A 
ATOM     14  C   UNL     1       6.987  -4.776  25.274  0.00  0.00    +0.021 A 
ATOM     15  C   UNL     1       7.088  -3.567  25.949  0.00  0.00    +0.020 A 
ATOM     16  C   UNL     1       8.046  -2.635  25.535  0.00  0.00    +0.099 A 
BRANCH  16  17
ATOM     17  C   UNL     1       8.069  -1.322  26.212  0.00  0.00    +0.340 C 
ATOM     18  O   UNL     1       8.922  -1.019  27.024  0.00  0.00    -0.245 OA
BRANCH  17  19
ATOM     19  O   UNL     1       7.018  -0.537  25.902  0.00  0.00    -0.477 OA
ATOM     20  H   UNL     1       6.145  -0.985  25.921  0.00  0.00    +0.295 HD
ENDBRANCH  17  19
ENDBRANCH  16  17
ENDBRANCH   1  11
TORSDOF 4
ENDMDL
MODEL 7
REMARK VINA RESULT:      -5.8      6.596      9.446
REMARK  Name = 
REMARK  5 active torsions:
REMARK  status: ('A' for Active; 'I' for Inactive)
REMARK    1  A    between atoms: C_1  and  C_2
REMARK    2  A    between atoms: C_3  and  N_4
REMARK    3  A    between atoms: N_4  and  C_5
REMARK    4  A    between atoms: C_6  and  C_11
REMARK    5  A    between atoms: C_11  and  O_12
REMARK                            x       y       z     vdW  Elec       q    Type
REMARK                         _______ _______ _______ _____ _____    ______ ____
ROOT
ATOM      1  N   UNL     1       8.283  -3.928  24.504  0.00  0.00    -0.299 N 
ATOM      2  H   UNL     1       8.992  -4.399  23.951  0.00  0.00    +0.154 HD
ENDROOT
BRANCH   1  10
ATOM      3  C   UNL     1       8.776  -2.134  22.198  0.00  0.00    +0.047 C 
ATOM      4  C   UNL     1       8.940  -1.711  23.636  0.00  0.00    -0.011 A 
ATOM      5  C   UNL     1       9.458  -0.434  23.937  0.00  0.00    +0.046 A 
ATOM      6 CL   UNL     1      10.127   0.591  22.712  0.00  0.00    -0.083 Cl
ATOM      7  C   UNL     1       9.471   0.047  25.247  0.00  0.00    +0.020 A 
ATOM      8  C   UNL     1       8.946  -0.729  26.273  0.00  0.00    +0.003 A 
ATOM      9  C   UNL     1       8.497  -2.019  26.003  0.00  0.00    +0.023 A 
ATOM     10  C   UNL     1       8.562  -2.556  24.708  0.00  0.00    +0.037 A 
ENDBRANCH   1  10
BRANCH   1  11
ATOM     11  C   UNL     1       7.028  -4.578  24.445  0.00  0.00    +0.137 A 
ATOM     12  N   UNL     1       6.264  -4.461  23.332  0.00  0.00    -0.239 NA
ATOM     13  C   UNL     1       5.081  -5.119  23.283  0.00  0.00    +0.113 A 
ATOM     14  C   UNL     1       4.604  -5.925  24.299  0.00  0.00    +0.021 A 
ATOM     15  C   UNL     1       5.355  -6.006  25.464  0.00  0.00    +0.020 A 
ATOM     16  C   UNL     1       6.554  -5.291  25.552  0.00  0.00    +0.099 A 
BRANCH  16  17
ATOM     17  C   UNL     1       7.284  -5.324  26.836  0.00  0.00    +0.340 C 
ATOM     18  O   UNL     1       6.821  -4.867  27.863  0.00  0.00    -0.245 OA
BRANCH  17  19
ATOM     19  O   UNL     1       8.529  -5.832  26.735  0.00  0.00    -0.477 OA
ATOM     20  H   UNL     1       9.081  -5.440  26.026  0.00  0.00    +0.295 HD
ENDBRANCH  17  19
ENDBRANCH  16  17
ENDBRANCH   1  11
TORSDOF 4
ENDMDL
MODEL 8
REMARK VINA RESULT:      -5.8      2.188      2.709
REMARK  Name = 
REMARK  5 active torsions:
REMARK  status: ('A' for Active; 'I' for Inactive)
REMARK    1  A    between atoms: C_1  and  C_2
REMARK    2  A    between atoms: C_3  and  N_4
REMARK    3  A    between atoms: N_4  and  C_5
REMARK    4  A    between atoms: C_6  and  C_11
REMARK    5  A    between atoms: C_11  and  O_12
REMARK                            x       y       z     vdW  Elec       q    Type
REMARK                         _______ _______ _______ _____ _____    ______ ____
ROOT
ATOM      1  N   UNL     1      10.552   2.954  22.568  0.00  0.00    -0.299 N 
ATOM      2  H   UNL     1      10.957   2.877  21.640  0.00  0.00    +0.154 HD
ENDROOT
BRANCH   1  10
ATOM      3  C   UNL     1       8.574   1.200  21.231  0.00  0.00    +0.047 C 
ATOM      4  C   UNL     1       9.167   0.909  22.587  0.00  0.00    -0.011 A 
ATOM      5  C   UNL     1       8.700  -0.191  23.336  0.00  0.00    +0.046 A 
ATOM      6 CL   UNL     1       7.306  -1.097  22.854  0.00  0.00    -0.083 Cl
ATOM      7  C   UNL     1       9.336  -0.580  24.516  0.00  0.00    +0.020 A 
ATOM      8  C   UNL     1      10.462   0.108  24.953  0.00  0.00    +0.003 A 
ATOM      9  C   UNL     1      10.892   1.238  24.263  0.00  0.00    +0.023 A 
ATOM     10  C   UNL     1      10.209   1.701  23.127  0.00  0.00    +0.037 A 
ENDBRANCH   1  10
BRANCH   1  11
ATOM     11  C   UNL     1      10.933   4.146  23.229  0.00  0.00    +0.137 A 
ATOM     12  N   UNL     1      12.247   4.449  23.360  0.00  0.00    -0.239 NA
ATOM     13  C   UNL     1      12.589   5.610  23.967  0.00  0.00    +0.113 A 
ATOM     14  C   UNL     1      11.674   6.527  24.449  0.00  0.00    +0.021 A 
ATOM     15  C   UNL     1      10.328   6.199  24.366  0.00  0.00    +0.020 A 
ATOM     16  C   UNL     1       9.959   4.979  23.791  0.00  0.00    +0.099 A 
BRANCH  16  17
ATOM     17  C   UNL     1       8.527   4.617  23.799  0.00  0.00    +0.340 C 
ATOM     18  O   UNL     1       7.921   4.368  24.824  0.00  0.00    -0.245 OA
BRANCH  17  19
ATOM     19  O   UNL     1       7.989   4.516  22.567  0.00  0.00    -0.477 OA
ATOM     20  H   UNL     1       8.620   4.650  21.827  0.00  0.00    +0.295 HD
ENDBRANCH  17  19
ENDBRANCH  16  17
ENDBRANCH   1  11
TORSDOF 4
ENDMDL
MODEL 9
REMARK VINA RESULT:      -5.8      4.855      6.510
REMARK  Name = 
REMARK  5 active torsions:
REMARK  status: ('A' for Active; 'I' for Inactive)
REMARK    1  A    between atoms: C_1  and  C_2
REMARK    2  A    between atoms: C_3  and  N_4
REMARK    3  A    between atoms: N_4  and  C_5
REMARK    4  A    between atoms: C_6  and  C_11
REMARK    5  A    between atoms: C_11  and  O_12
REMARK                            x       y       z     vdW  Elec       q    Type
REMARK                         _______ _______ _______ _____ _____    ______ ____
ROOT
ATOM      1  N   UNL     1       7.647  -2.099  23.942  0.00  0.00    -0.299 N 
ATOM      2  H   UNL     1       7.522  -2.318  22.958  0.00  0.00    +0.154 HD
ENDROOT
BRANCH   1  10
ATOM      3  C   UNL     1       5.644  -4.265  23.675  0.00  0.00    +0.047 C 
ATOM      4  C   UNL     1       6.700  -4.232  24.750  0.00  0.00    -0.011 A 
ATOM      5  C   UNL     1       6.698  -5.211  25.766  0.00  0.00    +0.046 A 
ATOM      6 CL   UNL     1       5.389  -6.327  25.954  0.00  0.00    -0.083 Cl
ATOM      7  C   UNL     1       7.751  -5.303  26.678  0.00  0.00    +0.020 A 
ATOM      8  C   UNL     1       8.831  -4.436  26.576  0.00  0.00    +0.003 A 
ATOM      9  C   UNL     1       8.814  -3.419  25.624  0.00  0.00    +0.023 A 
ATOM     10  C   UNL     1       7.722  -3.252  24.759  0.00  0.00    +0.037 A 
ENDBRANCH   1  10
BRANCH   1  11
ATOM     11  C   UNL     1       8.237  -0.829  24.144  0.00  0.00    +0.137 A 
ATOM     12  N   UNL     1       7.636   0.066  24.963  0.00  0.00    -0.239 NA
ATOM     13  C   UNL     1       8.234   1.264  25.169  0.00  0.00    +0.113 A 
ATOM     14  C   UNL     1       9.442   1.629  24.605  0.00  0.00    +0.021 A 
ATOM     15  C   UNL     1      10.038   0.738  23.722  0.00  0.00    +0.020 A 
ATOM     16  C   UNL     1       9.406  -0.481  23.457  0.00  0.00    +0.099 A 
BRANCH  16  17
ATOM     17  C   UNL     1      10.015  -1.369  22.445  0.00  0.00    +0.340 C 
ATOM     18  O   UNL     1      10.638  -2.370  22.743  0.00  0.00    -0.245 OA
BRANCH  17  19
ATOM     19  O   UNL     1       9.878  -0.919  21.182  0.00  0.00    -0.477 OA
ATOM     20  H   UNL     1      10.667  -1.040  20.611  0.00  0.00    +0.295 HD
ENDBRANCH  17  19
ENDBRANCH  16  17
ENDBRANCH   1  11
TORSDOF 4
ENDMDL
