MODEL 1
REMARK VINA RESULT:      -5.6      0.000      0.000
REMARK  Name = 
REMARK  2 active torsions:
REMARK  status: ('A' for Active; 'I' for Inactive)
REMARK    1  A    between atoms: C_5  and  C_7
REMARK    2  A    between atoms: C_7  and  C_8
REMARK                            x       y       z     vdW  Elec       q    Type
REMARK                         _______ _______ _______ _____ _____    ______ ____
ROOT
ATOM      1  N   UNL     1      12.696   6.338  24.203  0.00  0.00    -0.313 N 
ATOM      2  H   UNL     1      11.912   6.393  24.849  0.00  0.00    +0.146 HD
ATOM      3  H   UNL     1      13.575   6.753  24.474  0.00  0.00    +0.146 HD
ATOM      4  C   UNL     1      12.700   5.372  23.260  0.00  0.00    +0.303 C 
ATOM      5  N   UNL     1      11.520   4.726  23.031  0.00  0.00    -0.240 N 
ATOM      6  H   UNL     1      11.603   3.999  22.336  0.00  0.00    +0.159 HD
ATOM      7  C   UNL     1      10.326   4.863  23.720  0.00  0.00    +0.225 C 
ATOM      8  O   UNL     1      10.153   5.640  24.658  0.00  0.00    -0.275 OA
ATOM      9  O   UNL     1      13.715   5.088  22.632  0.00  0.00    -0.253 OA
ENDROOT
BRANCH   7  10
ATOM     10  C   UNL     1       9.228   3.931  23.237  0.00  0.00    +0.131 C 
BRANCH  10  11
ATOM     11  C   UNL     1       9.669   2.489  23.249  0.00  0.00    -0.039 A 
ATOM     12  C   UNL     1      10.049   1.865  24.445  0.00  0.00    +0.004 A 
ATOM     13  C   UNL     1      10.402   0.515  24.453  0.00  0.00    +0.000 A 
ATOM     14  C   UNL     1      10.386  -0.221  23.269  0.00  0.00    +0.000 A 
ATOM     15  C   UNL     1      10.036   0.397  22.070  0.00  0.00    +0.000 A 
ATOM     16  C   UNL     1       9.687   1.747  22.058  0.00  0.00    +0.004 A 
ENDBRANCH  10  11
ENDBRANCH   7  10
TORSDOF 2
ENDMDL
MODEL 2
REMARK VINA RESULT:      -5.5      6.122      7.723
REMARK  Name = 
REMARK  2 active torsions:
REMARK  status: ('A' for Active; 'I' for Inactive)
REMARK    1  A    between atoms: C_5  and  C_7
REMARK    2  A    between atoms: C_7  and  C_8
REMARK                            x       y       z     vdW  Elec       q    Type
REMARK                         _______ _______ _______ _____ _____    ______ ____
ROOT
ATOM      1  N   UNL     1       9.998  -5.485  25.614  0.00  0.00    -0.313 N 
ATOM      2  H   UNL     1      10.625  -4.809  25.186  0.00  0.00    +0.146 HD
ATOM      3  H   UNL     1      10.390  -6.198  26.212  0.00  0.00    +0.146 HD
ATOM      4  C   UNL     1       8.693  -5.169  25.757  0.00  0.00    +0.303 C 
ATOM      5  N   UNL     1       8.234  -4.099  25.045  0.00  0.00    -0.240 N 
ATOM      6  H   UNL     1       7.260  -3.904  25.220  0.00  0.00    +0.159 HD
ATOM      7  C   UNL     1       8.965  -3.219  24.263  0.00  0.00    +0.225 C 
ATOM      8  O   UNL     1      10.179  -3.303  24.076  0.00  0.00    -0.275 OA
ATOM      9  O   UNL     1       7.949  -5.816  26.487  0.00  0.00    -0.253 OA
ENDROOT
BRANCH   7  10
ATOM     10  C   UNL     1       8.138  -2.094  23.667  0.00  0.00    +0.131 C 
BRANCH  10  11
ATOM     11  C   UNL     1       8.940  -0.826  23.515  0.00  0.00    -0.039 A 
ATOM     12  C   UNL     1       9.277  -0.339  22.245  0.00  0.00    +0.004 A 
ATOM     13  C   UNL     1       9.972   0.865  22.113  0.00  0.00    +0.000 A 
ATOM     14  C   UNL     1      10.340   1.588  23.247  0.00  0.00    +0.000 A 
ATOM     15  C   UNL     1      10.033   1.098  24.515  0.00  0.00    +0.000 A 
ATOM     16  C   UNL     1       9.344  -0.106  24.650  0.00  0.00    +0.004 A 
ENDBRANCH  10  11
ENDBRANCH   7  10
TORSDOF 2
ENDMDL
MODEL 3
REMARK VINA RESULT:      -5.4      5.543      7.240
REMARK  Name = 
REMARK  2 active torsions:
REMARK  status: ('A' for Active; 'I' for Inactive)
REMARK    1  A    between atoms: C_5  and  C_7
REMARK    2  A    between atoms: C_7  and  C_8
REMARK                            x       y       z     vdW  Elec       q    Type
REMARK                         _______ _______ _______ _____ _____    ______ ____
ROOT
ATOM      1  N   UNL     1       5.499  -3.127  23.268  0.00  0.00    -0.313 N 
ATOM      2  H   UNL     1       5.880  -2.621  24.063  0.00  0.00    +0.146 HD
ATOM      3  H   UNL     1       4.499  -3.253  23.210  0.00  0.00    +0.146 HD
ATOM      4  C   UNL     1       6.229  -3.215  22.136  0.00  0.00    +0.303 C 
ATOM      5  N   UNL     1       7.551  -2.889  22.226  0.00  0.00    -0.240 N 
ATOM      6  H   UNL     1       8.027  -2.950  21.338  0.00  0.00    +0.159 HD
ATOM      7  C   UNL     1       8.229  -2.374  23.318  0.00  0.00    +0.225 C 
ATOM      8  O   UNL     1       7.713  -2.155  24.414  0.00  0.00    -0.275 OA
ATOM      9  O   UNL     1       5.731  -3.577  21.075  0.00  0.00    -0.253 OA
ENDROOT
BRANCH   7  10
ATOM     10  C   UNL     1       9.689  -2.059  23.042  0.00  0.00    +0.131 C 
BRANCH  10  11
ATOM     11  C   UNL     1       9.948  -0.574  23.011  0.00  0.00    -0.039 A 
ATOM     12  C   UNL     1       9.688   0.175  21.856  0.00  0.00    +0.004 A 
ATOM     13  C   UNL     1       9.878   1.558  21.855  0.00  0.00    +0.000 A 
ATOM     14  C   UNL     1      10.333   2.202  23.005  0.00  0.00    +0.000 A 
ATOM     15  C   UNL     1      10.620   1.463  24.151  0.00  0.00    +0.000 A 
ATOM     16  C   UNL     1      10.436   0.081  24.152  0.00  0.00    +0.004 A 
ENDBRANCH  10  11
ENDBRANCH   7  10
TORSDOF 2
ENDMDL
MODEL 4
REMARK VINA RESULT:      -5.2      5.571      7.059
REMARK  Name = 
REMARK  2 active torsions:
REMARK  status: ('A' for Active; 'I' for Inactive)
REMARK    1  A    between atoms: C_5  and  C_7
REMARK    2  A    between atoms: C_7  and  C_8
REMARK                            x       y       z     vdW  Elec       q    Type
REMARK                         _______ _______ _______ _____ _____    ______ ____
ROOT
ATOM      1  N   UNL     1       6.823  -4.011  24.323  0.00  0.00    -0.313 N 
ATOM      2  H   UNL     1       6.372  -3.314  23.737  0.00  0.00    +0.146 HD
ATOM      3  H   UNL     1       6.247  -4.703  24.780  0.00  0.00    +0.146 HD
ATOM      4  C   UNL     1       8.130  -4.285  24.129  0.00  0.00    +0.303 C 
ATOM      5  N   UNL     1       8.842  -3.398  23.374  0.00  0.00    -0.240 N 
ATOM      6  H   UNL     1       9.803  -3.680  23.247  0.00  0.00    +0.159 HD
ATOM      7  C   UNL     1       8.369  -2.293  22.686  0.00  0.00    +0.225 C 
ATOM      8  O   UNL     1       7.193  -1.929  22.684  0.00  0.00    -0.275 OA
ATOM      9  O   UNL     1       8.659  -5.281  24.612  0.00  0.00    -0.253 OA
ENDROOT
BRANCH   7  10
ATOM     10  C   UNL     1       9.435  -1.565  21.886  0.00  0.00    +0.131 C 
BRANCH  10  11
ATOM     11  C   UNL     1       9.819  -0.254  22.524  0.00  0.00    -0.039 A 
ATOM     12  C   UNL     1      10.257  -0.206  23.854  0.00  0.00    +0.004 A 
ATOM     13  C   UNL     1      10.664   1.005  24.419  0.00  0.00    +0.000 A 
ATOM     14  C   UNL     1      10.632   2.175  23.663  0.00  0.00    +0.000 A 
ATOM     15  C   UNL     1      10.172   2.142  22.347  0.00  0.00    +0.000 A 
ATOM     16  C   UNL     1       9.761   0.936  21.783  0.00  0.00    +0.004 A 
ENDBRANCH  10  11
ENDBRANCH   7  10
TORSDOF 2
ENDMDL
MODEL 5
REMARK VINA RESULT:      -5.1      2.557      3.058
REMARK  Name = 
REMARK  2 active torsions:
REMARK  status: ('A' for Active; 'I' for Inactive)
REMARK    1  A    between atoms: C_5  and  C_7
REMARK    2  A    between atoms: C_7  and  C_8
REMARK                            x       y       z     vdW  Elec       q    Type
REMARK                         _______ _______ _______ _____ _____    ______ ____
ROOT
ATOM      1  N   UNL     1       7.130   5.294  24.124  0.00  0.00    -0.313 N 
ATOM      2  H   UNL     1       7.368   4.670  24.891  0.00  0.00    +0.146 HD
ATOM      3  H   UNL     1       6.428   6.003  24.278  0.00  0.00    +0.146 HD
ATOM      4  C   UNL     1       8.019   5.471  23.124  0.00  0.00    +0.303 C 
ATOM      5  N   UNL     1       9.046   4.574  23.043  0.00  0.00    -0.240 N 
ATOM      6  H   UNL     1       9.685   4.783  22.291  0.00  0.00    +0.159 HD
ATOM      7  C   UNL     1       9.356   3.553  23.925  0.00  0.00    +0.225 C 
ATOM      8  O   UNL     1       8.703   3.287  24.935  0.00  0.00    -0.275 OA
ATOM      9  O   UNL     1       7.911   6.391  22.320  0.00  0.00    -0.253 OA
ENDROOT
BRANCH   7  10
ATOM     10  C   UNL     1      10.616   2.788  23.560  0.00  0.00    +0.131 C 
BRANCH  10  11
ATOM     11  C   UNL     1      10.307   1.393  23.076  0.00  0.00    -0.039 A 
ATOM     12  C   UNL     1      10.574   0.279  23.883  0.00  0.00    +0.004 A 
ATOM     13  C   UNL     1      10.232  -1.003  23.449  0.00  0.00    +0.000 A 
ATOM     14  C   UNL     1       9.627  -1.184  22.206  0.00  0.00    +0.000 A 
ATOM     15  C   UNL     1       9.382  -0.084  21.385  0.00  0.00    +0.000 A 
ATOM     16  C   UNL     1       9.726   1.196  21.814  0.00  0.00    +0.004 A 
ENDBRANCH  10  11
ENDBRANCH   7  10
TORSDOF 2
ENDMDL
MODEL 6
REMARK VINA RESULT:      -5.0      3.149      4.029
REMARK  Name = 
REMARK  2 active torsions:
REMARK  status: ('A' for Active; 'I' for Inactive)
REMARK    1  A    between atoms: C_5  and  C_7
REMARK    2  A    between atoms: C_7  and  C_8
REMARK                            x       y       z     vdW  Elec       q    Type
REMARK                         _______ _______ _______ _____ _____    ______ ____
ROOT
ATOM      1  N   UNL     1       6.402   3.927  21.870  0.00  0.00    -0.313 N 
ATOM      2  H   UNL     1       6.343   2.967  21.539  0.00  0.00    +0.146 HD
ATOM      3  H   UNL     1       5.547   4.451  21.987  0.00  0.00    +0.146 HD
ATOM      4  C   UNL     1       7.497   4.318  22.555  0.00  0.00    +0.303 C 
ATOM      5  N   UNL     1       8.588   3.500  22.496  0.00  0.00    -0.240 N 
ATOM      6  H   UNL     1       9.359   3.839  23.052  0.00  0.00    +0.159 HD
ATOM      7  C   UNL     1       8.687   2.253  21.900  0.00  0.00    +0.225 C 
ATOM      8  O   UNL     1       7.769   1.700  21.294  0.00  0.00    -0.275 OA
ATOM      9  O   UNL     1       7.517   5.362  23.198  0.00  0.00    -0.253 OA
ENDROOT
BRANCH   7  10
ATOM     10  C   UNL     1      10.040   1.588  22.087  0.00  0.00    +0.131 C 
BRANCH  10  11
ATOM     11  C   UNL     1       9.941   0.342  22.931  0.00  0.00    -0.039 A 
ATOM     12  C   UNL     1       9.656   0.424  24.300  0.00  0.00    +0.004 A 
ATOM     13  C   UNL     1       9.512  -0.738  25.061  0.00  0.00    +0.000 A 
ATOM     14  C   UNL     1       9.656  -1.989  24.462  0.00  0.00    +0.000 A 
ATOM     15  C   UNL     1       9.967  -2.080  23.106  0.00  0.00    +0.000 A 
ATOM     16  C   UNL     1      10.116  -0.921  22.346  0.00  0.00    +0.004 A 
ENDBRANCH  10  11
ENDBRANCH   7  10
TORSDOF 2
ENDMDL
MODEL 7
REMARK VINA RESULT:      -4.9      8.157      9.870
REMARK  Name = 
REMARK  2 active torsions:
REMARK  status: ('A' for Active; 'I' for Inactive)
REMARK    1  A    between atoms: C_5  and  C_7
REMARK    2  A    between atoms: C_7  and  C_8
REMARK                            x       y       z     vdW  Elec       q    Type
REMARK                         _______ _______ _______ _____ _____    ______ ____
ROOT
ATOM      1  N   UNL     1       5.838  -5.150  28.870  0.00  0.00    -0.313 N 
ATOM      2  H   UNL     1       5.814  -4.360  28.230  0.00  0.00    +0.146 HD
ATOM      3  H   UNL     1       5.078  -5.265  29.524  0.00  0.00    +0.146 HD
ATOM      4  C   UNL     1       6.586  -6.228  28.552  0.00  0.00    +0.303 C 
ATOM      5  N   UNL     1       7.502  -6.072  27.553  0.00  0.00    -0.240 N 
ATOM      6  H   UNL     1       8.004  -6.924  27.350  0.00  0.00    +0.159 HD
ATOM      7  C   UNL     1       7.698  -4.967  26.741  0.00  0.00    +0.225 C 
ATOM      8  O   UNL     1       7.059  -3.919  26.832  0.00  0.00    -0.275 OA
ATOM      9  O   UNL     1       6.454  -7.298  29.137  0.00  0.00    -0.253 OA
ENDROOT
BRANCH   7  10
ATOM     10  C   UNL     1       8.765  -5.167  25.679  0.00  0.00    +0.131 C 
BRANCH  10  11
ATOM     11  C   UNL     1       8.623  -4.180  24.548  0.00  0.00    -0.039 A 
ATOM     12  C   UNL     1       9.505  -3.098  24.426  0.00  0.00    +0.004 A 
ATOM     13  C   UNL     1       9.400  -2.222  23.344  0.00  0.00    +0.000 A 
ATOM     14  C   UNL     1       8.412  -2.415  22.379  0.00  0.00    +0.000 A 
ATOM     15  C   UNL     1       7.513  -3.473  22.506  0.00  0.00    +0.000 A 
ATOM     16  C   UNL     1       7.613  -4.346  23.588  0.00  0.00    +0.004 A 
ENDBRANCH  10  11
ENDBRANCH   7  10
TORSDOF 2
ENDMDL
MODEL 8
REMARK VINA RESULT:      -4.9      1.181      1.720
REMARK  Name = 
REMARK  2 active torsions:
REMARK  status: ('A' for Active; 'I' for Inactive)
REMARK    1  A    between atoms: C_5  and  C_7
REMARK    2  A    between atoms: C_7  and  C_8
REMARK                            x       y       z     vdW  Elec       q    Type
REMARK                         _______ _______ _______ _____ _____    ______ ____
ROOT
ATOM      1  N   UNL     1      12.539   6.088  24.185  0.00  0.00    -0.313 N 
ATOM      2  H   UNL     1      11.714   5.979  24.769  0.00  0.00    +0.146 HD
ATOM      3  H   UNL     1      13.298   6.662  24.522  0.00  0.00    +0.146 HD
ATOM      4  C   UNL     1      12.802   5.157  23.243  0.00  0.00    +0.303 C 
ATOM      5  N   UNL     1      11.790   4.298  22.923  0.00  0.00    -0.240 N 
ATOM      6  H   UNL     1      12.065   3.613  22.235  0.00  0.00    +0.159 HD
ATOM      7  C   UNL     1      10.545   4.189  23.519  0.00  0.00    +0.225 C 
ATOM      8  O   UNL     1      10.154   4.902  24.444  0.00  0.00    -0.275 OA
ATOM      9  O   UNL     1      13.896   5.087  22.693  0.00  0.00    -0.253 OA
ENDROOT
BRANCH   7  10
ATOM     10  C   UNL     1       9.689   3.069  22.953  0.00  0.00    +0.131 C 
BRANCH  10  11
ATOM     11  C   UNL     1       9.437   1.985  23.970  0.00  0.00    -0.039 A 
ATOM     12  C   UNL     1       8.185   1.858  24.587  0.00  0.00    +0.004 A 
ATOM     13  C   UNL     1       7.945   0.817  25.485  0.00  0.00    +0.000 A 
ATOM     14  C   UNL     1       8.952  -0.101  25.779  0.00  0.00    +0.000 A 
ATOM     15  C   UNL     1      10.209   0.033  25.191  0.00  0.00    +0.000 A 
ATOM     16  C   UNL     1      10.453   1.074  24.297  0.00  0.00    +0.004 A 
ENDBRANCH  10  11
ENDBRANCH   7  10
TORSDOF 2
ENDMDL
MODEL 9
REMARK VINA RESULT:      -4.7      2.325      3.296
REMARK  Name = 
REMARK  2 active torsions:
REMARK  status: ('A' for Active; 'I' for Inactive)
REMARK    1  A    between atoms: C_5  and  C_7
REMARK    2  A    between atoms: C_7  and  C_8
REMARK                            x       y       z     vdW  Elec       q    Type
REMARK                         _______ _______ _______ _____ _____    ______ ____
ROOT
ATOM      1  N   UNL     1       9.855   4.318  23.955  0.00  0.00    -0.313 N 
ATOM      2  H   UNL     1       8.949   3.866  24.043  0.00  0.00    +0.146 HD
ATOM      3  H   UNL     1      10.098   5.046  24.610  0.00  0.00    +0.146 HD
ATOM      4  C   UNL     1      10.850   3.672  23.310  0.00  0.00    +0.303 C 
ATOM      5  N   UNL     1      10.497   2.594  22.551  0.00  0.00    -0.240 N 
ATOM      6  H   UNL     1      11.292   2.144  22.122  0.00  0.00    +0.159 HD
ATOM      7  C   UNL     1       9.249   2.005  22.436  0.00  0.00    +0.225 C 
ATOM      8  O   UNL     1       8.236   2.410  23.008  0.00  0.00    -0.275 OA
ATOM      9  O   UNL     1      12.018   4.038  23.395  0.00  0.00    -0.253 OA
ENDROOT
BRANCH   7  10
ATOM     10  C   UNL     1       9.231   0.770  21.552  0.00  0.00    +0.131 C 
BRANCH  10  11
ATOM     11  C   UNL     1       9.089  -0.496  22.359  0.00  0.00    -0.039 A 
ATOM     12  C   UNL     1       7.824  -1.033  22.633  0.00  0.00    +0.004 A 
ATOM     13  C   UNL     1       7.705  -2.235  23.333  0.00  0.00    +0.000 A 
ATOM     14  C   UNL     1       8.847  -2.907  23.769  0.00  0.00    +0.000 A 
ATOM     15  C   UNL     1      10.108  -2.367  23.525  0.00  0.00    +0.000 A 
ATOM     16  C   UNL     1      10.229  -1.164  22.830  0.00  0.00    +0.004 A 
ENDBRANCH  10  11
ENDBRANCH   7  10
TORSDOF 2
ENDMDL
