MODEL 1
REMARK VINA RESULT:      -7.7      0.000      0.000
REMARK  Name = 
REMARK  4 active torsions:
REMARK  status: ('A' for Active; 'I' for Inactive)
REMARK    1  A    between atoms: N_1  and  S_2
REMARK    2  A    between atoms: S_2  and  C_5
REMARK    3  A    between atoms: C_8  and  N_9
REMARK    4  A    between atoms: C_12  and  C_16
REMARK                            x       y       z     vdW  Elec       q    Type
REMARK                         _______ _______ _______ _____ _____    ______ ____
ROOT
ATOM      1  N   UNL     1       6.810  -3.151  21.974  0.00  0.00    -0.284 N 
ATOM      2  H   UNL     1       6.436  -3.135  21.035  0.00  0.00    +0.155 HD
ATOM      3  C   UNL     1       6.194  -4.171  22.694  0.00  0.00    +0.220 A 
ATOM      4  N   UNL     1       5.261  -4.858  22.019  0.00  0.00    -0.223 NA
ATOM      5  C   UNL     1       4.631  -5.842  22.680  0.00  0.00    +0.116 A 
ATOM      6  C   UNL     1       4.912  -6.177  23.979  0.00  0.00    +0.050 A 
ATOM      7  C   UNL     1       5.884  -5.424  24.602  0.00  0.00    +0.094 A 
ATOM      8  N   UNL     1       6.533  -4.434  23.969  0.00  0.00    -0.213 NA
ENDROOT
BRANCH   7   9
ATOM      9  C   UNL     1       6.178  -5.592  26.027  0.00  0.00    +0.092 A 
ATOM     10  N   UNL     1       5.305  -5.956  27.051  0.00  0.00    -0.298 N 
ATOM     11  C   UNL     1       6.079  -6.044  28.215  0.00  0.00    +0.138 A 
ATOM     12  C   UNL     1       5.428  -6.429  29.421  0.00  0.00    +0.047 A 
ATOM     13  C   UNL     1       4.108  -6.678  29.424  0.00  0.00    +0.005 A 
ATOM     14  C   UNL     1       3.317  -6.554  28.211  0.00  0.00    +0.018 A 
ATOM     15  N   UNL     1       7.337  -5.740  27.998  0.00  0.00    -0.235 NA
ATOM     16  C   UNL     1       3.925  -6.198  27.063  0.00  0.00    +0.093 A 
ATOM     17  C   UNL     1       7.405  -5.469  26.664  0.00  0.00    +0.141 A 
ENDBRANCH   7   9
BRANCH   1  21
ATOM     18  C   UNL     1       8.936   0.318  23.034  0.00  0.00    +0.105 A 
ATOM     19  C   UNL     1       7.584   0.189  23.360  0.00  0.00    +0.030 A 
ATOM     20  C   UNL     1       6.900  -0.981  23.020  0.00  0.00    +0.025 A 
ATOM     21  C   UNL     1       7.558  -2.041  22.375  0.00  0.00    +0.034 A 
ATOM     22  C   UNL     1       8.923  -1.889  22.086  0.00  0.00    +0.025 A 
ATOM     23  C   UNL     1       9.617  -0.725  22.416  0.00  0.00    +0.030 A 
BRANCH  18  24
ATOM     24  S   UNL     1       9.765   1.835  23.395  0.00  0.00    +0.056 S 
ATOM     25  O   UNL     1       8.796   2.809  23.839  0.00  0.00    -0.153 OA
ATOM     26  O   UNL     1      10.975   1.563  24.128  0.00  0.00    -0.153 OA
BRANCH  24  27
ATOM     27  N   UNL     1      10.234   2.311  21.859  0.00  0.00    -0.204 NA
ATOM     28  H   UNL     1      11.194   2.027  21.671  0.00  0.00    +0.144 HD
ATOM     29  H   UNL     1       9.556   1.979  21.173  0.00  0.00    +0.144 HD
ENDBRANCH  24  27
ENDBRANCH  18  24
ENDBRANCH   1  21
TORSDOF 4
ENDMDL
MODEL 2
REMARK VINA RESULT:      -7.3      4.544      9.168
REMARK  Name = 
REMARK  4 active torsions:
REMARK  status: ('A' for Active; 'I' for Inactive)
REMARK    1  A    between atoms: N_1  and  S_2
REMARK    2  A    between atoms: S_2  and  C_5
REMARK    3  A    between atoms: C_8  and  N_9
REMARK    4  A    between atoms: C_12  and  C_16
REMARK                            x       y       z     vdW  Elec       q    Type
REMARK                         _______ _______ _______ _____ _____    ______ ____
ROOT
ATOM      1  N   UNL     1       9.545  -1.970  23.754  0.00  0.00    -0.284 N 
ATOM      2  H   UNL     1      10.342  -2.448  24.147  0.00  0.00    +0.155 HD
ATOM      3  C   UNL     1       9.764  -0.595  23.804  0.00  0.00    +0.220 A 
ATOM      4  N   UNL     1      10.924  -0.227  24.366  0.00  0.00    -0.223 NA
ATOM      5  C   UNL     1      11.171   1.090  24.450  0.00  0.00    +0.116 A 
ATOM      6  C   UNL     1      10.314   2.048  23.976  0.00  0.00    +0.050 A 
ATOM      7  C   UNL     1       9.143   1.587  23.411  0.00  0.00    +0.094 A 
ATOM      8  N   UNL     1       8.867   0.278  23.313  0.00  0.00    -0.213 NA
ENDROOT
BRANCH   7   9
ATOM      9  C   UNL     1       8.087   2.512  22.994  0.00  0.00    +0.092 A 
ATOM     10  N   UNL     1       8.105   3.906  23.005  0.00  0.00    -0.298 N 
ATOM     11  C   UNL     1       6.888   4.320  22.450  0.00  0.00    +0.138 A 
ATOM     12  C   UNL     1       6.656   5.719  22.319  0.00  0.00    +0.047 A 
ATOM     13  C   UNL     1       7.583   6.597  22.739  0.00  0.00    +0.005 A 
ATOM     14  C   UNL     1       8.827   6.147  23.339  0.00  0.00    +0.018 A 
ATOM     15  N   UNL     1       6.120   3.307  22.127  0.00  0.00    -0.235 NA
ATOM     16  C   UNL     1       9.060   4.825  23.460  0.00  0.00    +0.093 A 
ATOM     17  C   UNL     1       6.847   2.201  22.451  0.00  0.00    +0.141 A 
ENDBRANCH   7   9
BRANCH   1  21
ATOM     18  C   UNL     1       6.180  -4.436  23.228  0.00  0.00    +0.105 A 
ATOM     19  C   UNL     1       6.746  -4.271  24.495  0.00  0.00    +0.030 A 
ATOM     20  C   UNL     1       7.850  -3.429  24.653  0.00  0.00    +0.025 A 
ATOM     21  C   UNL     1       8.385  -2.726  23.561  0.00  0.00    +0.034 A 
ATOM     22  C   UNL     1       7.778  -2.895  22.308  0.00  0.00    +0.025 A 
ATOM     23  C   UNL     1       6.677  -3.736  22.135  0.00  0.00    +0.030 A 
BRANCH  18  24
ATOM     24  S   UNL     1       4.840  -5.568  23.028  0.00  0.00    +0.056 S 
ATOM     25  O   UNL     1       4.966  -6.627  24.002  0.00  0.00    -0.153 OA
ATOM     26  O   UNL     1       3.613  -4.837  22.840  0.00  0.00    -0.153 OA
BRANCH  24  27
ATOM     27  N   UNL     1       5.221  -6.250  21.547  0.00  0.00    -0.204 NA
ATOM     28  H   UNL     1       4.982  -7.241  21.533  0.00  0.00    +0.144 HD
ATOM     29  H   UNL     1       4.796  -5.706  20.796  0.00  0.00    +0.144 HD
ENDBRANCH  24  27
ENDBRANCH  18  24
ENDBRANCH   1  21
TORSDOF 4
ENDMDL
MODEL 3
REMARK VINA RESULT:      -7.2      4.419      8.348
REMARK  Name = 
REMARK  4 active torsions:
REMARK  status: ('A' for Active; 'I' for Inactive)
REMARK    1  A    between atoms: N_1  and  S_2
REMARK    2  A    between atoms: S_2  and  C_5
REMARK    3  A    between atoms: C_8  and  N_9
REMARK    4  A    between atoms: C_12  and  C_16
REMARK                            x       y       z     vdW  Elec       q    Type
REMARK                         _______ _______ _______ _____ _____    ______ ____
ROOT
ATOM      1  N   UNL     1       8.564  -3.975  23.953  0.00  0.00    -0.284 N 
ATOM      2  H   UNL     1       9.202  -4.629  23.523  0.00  0.00    +0.155 HD
ATOM      3  C   UNL     1       8.979  -2.676  23.670  0.00  0.00    +0.220 A 
ATOM      4  N   UNL     1      10.102  -2.586  22.943  0.00  0.00    -0.223 NA
ATOM      5  C   UNL     1      10.548  -1.352  22.659  0.00  0.00    +0.116 A 
ATOM      6  C   UNL     1       9.905  -0.209  23.055  0.00  0.00    +0.050 A 
ATOM      7  C   UNL     1       8.757  -0.387  23.797  0.00  0.00    +0.094 A 
ATOM      8  N   UNL     1       8.285  -1.607  24.099  0.00  0.00    -0.213 NA
ENDROOT
BRANCH   7   9
ATOM      9  C   UNL     1       8.055   0.751  24.394  0.00  0.00    +0.092 A 
ATOM     10  N   UNL     1       7.439   1.822  23.748  0.00  0.00    -0.298 N 
ATOM     11  C   UNL     1       6.856   2.606  24.752  0.00  0.00    +0.138 A 
ATOM     12  C   UNL     1       6.131   3.765  24.356  0.00  0.00    +0.047 A 
ATOM     13  C   UNL     1       6.037   4.089  23.055  0.00  0.00    +0.005 A 
ATOM     14  C   UNL     1       6.673   3.278  22.031  0.00  0.00    +0.018 A 
ATOM     15  N   UNL     1       7.084   2.125  25.951  0.00  0.00    -0.235 NA
ATOM     16  C   UNL     1       7.355   2.174  22.395  0.00  0.00    +0.093 A 
ATOM     17  C   UNL     1       7.810   0.991  25.740  0.00  0.00    +0.141 A 
ENDBRANCH   7   9
BRANCH   1  21
ATOM     18  C   UNL     1       6.039  -5.708  26.834  0.00  0.00    +0.105 A 
ATOM     19  C   UNL     1       7.333  -5.309  27.176  0.00  0.00    +0.030 A 
ATOM     20  C   UNL     1       8.149  -4.714  26.210  0.00  0.00    +0.025 A 
ATOM     21  C   UNL     1       7.679  -4.488  24.907  0.00  0.00    +0.034 A 
ATOM     22  C   UNL     1       6.366  -4.876  24.604  0.00  0.00    +0.025 A 
ATOM     23  C   UNL     1       5.541  -5.476  25.557  0.00  0.00    +0.030 A 
BRANCH  18  24
ATOM     24  S   UNL     1       5.049  -6.535  28.041  0.00  0.00    +0.056 S 
ATOM     25  O   UNL     1       5.831  -7.581  28.656  0.00  0.00    -0.153 OA
ATOM     26  O   UNL     1       4.316  -5.564  28.813  0.00  0.00    -0.153 OA
BRANCH  24  27
ATOM     27  N   UNL     1       3.932  -7.305  27.059  0.00  0.00    -0.204 NA
ATOM     28  H   UNL     1       4.109  -7.095  26.077  0.00  0.00    +0.144 HD
ATOM     29  H   UNL     1       3.910  -8.301  27.276  0.00  0.00    +0.144 HD
ENDBRANCH  24  27
ENDBRANCH  18  24
ENDBRANCH   1  21
TORSDOF 4
ENDMDL
MODEL 4
REMARK VINA RESULT:      -7.0      4.699      8.332
REMARK  Name = 
REMARK  4 active torsions:
REMARK  status: ('A' for Active; 'I' for Inactive)
REMARK    1  A    between atoms: N_1  and  S_2
REMARK    2  A    between atoms: S_2  and  C_5
REMARK    3  A    between atoms: C_8  and  N_9
REMARK    4  A    between atoms: C_12  and  C_16
REMARK                            x       y       z     vdW  Elec       q    Type
REMARK                         _______ _______ _______ _____ _____    ______ ____
ROOT
ATOM      1  N   UNL     1       7.938  -4.521  23.563  0.00  0.00    -0.284 N 
ATOM      2  H   UNL     1       8.773  -5.084  23.486  0.00  0.00    +0.155 HD
ATOM      3  C   UNL     1       8.300  -3.185  23.724  0.00  0.00    +0.220 A 
ATOM      4  N   UNL     1       9.621  -2.958  23.765  0.00  0.00    -0.223 NA
ATOM      5  C   UNL     1      10.016  -1.686  23.933  0.00  0.00    +0.116 A 
ATOM      6  C   UNL     1       9.144  -0.634  24.040  0.00  0.00    +0.050 A 
ATOM      7  C   UNL     1       7.803  -0.952  23.986  0.00  0.00    +0.094 A 
ATOM      8  N   UNL     1       7.376  -2.213  23.819  0.00  0.00    -0.213 NA
ENDROOT
BRANCH   7   9
ATOM      9  C   UNL     1       6.773   0.061  24.225  0.00  0.00    +0.092 A 
ATOM     10  N   UNL     1       6.560   1.255  23.539  0.00  0.00    -0.298 N 
ATOM     11  C   UNL     1       5.418   1.836  24.102  0.00  0.00    +0.138 A 
ATOM     12  C   UNL     1       4.960   3.070  23.560  0.00  0.00    +0.047 A 
ATOM     13  C   UNL     1       5.629   3.652  22.550  0.00  0.00    +0.005 A 
ATOM     14  C   UNL     1       6.829   3.047  21.998  0.00  0.00    +0.018 A 
ATOM     15  N   UNL     1       4.932   1.118  25.088  0.00  0.00    -0.235 NA
ATOM     16  C   UNL     1       7.266   1.875  22.499  0.00  0.00    +0.093 A 
ATOM     17  C   UNL     1       5.750   0.032  25.164  0.00  0.00    +0.141 A 
ENDBRANCH   7   9
BRANCH   1  21
ATOM     18  C   UNL     1       4.210  -6.367  24.172  0.00  0.00    +0.105 A 
ATOM     19  C   UNL     1       4.628  -6.025  22.884  0.00  0.00    +0.030 A 
ATOM     20  C   UNL     1       5.881  -5.433  22.700  0.00  0.00    +0.025 A 
ATOM     21  C   UNL     1       6.736  -5.198  23.788  0.00  0.00    +0.034 A 
ATOM     22  C   UNL     1       6.297  -5.578  25.065  0.00  0.00    +0.025 A 
ATOM     23  C   UNL     1       5.047  -6.167  25.264  0.00  0.00    +0.030 A 
BRANCH  18  24
ATOM     24  S   UNL     1       2.592  -7.037  24.399  0.00  0.00    +0.056 S 
ATOM     25  O   UNL     1       1.902  -6.271  25.411  0.00  0.00    -0.153 OA
ATOM     26  O   UNL     1       2.003  -7.326  23.117  0.00  0.00    -0.153 OA
BRANCH  24  27
ATOM     27  N   UNL     1       2.957  -8.513  25.101  0.00  0.00    -0.204 NA
ATOM     28  H   UNL     1       2.666  -8.531  26.077  0.00  0.00    +0.144 HD
ATOM     29  H   UNL     1       2.572  -9.269  24.534  0.00  0.00    +0.144 HD
ENDBRANCH  24  27
ENDBRANCH  18  24
ENDBRANCH   1  21
TORSDOF 4
ENDMDL
MODEL 5
REMARK VINA RESULT:      -6.9      4.642      8.095
REMARK  Name = 
REMARK  4 active torsions:
REMARK  status: ('A' for Active; 'I' for Inactive)
REMARK    1  A    between atoms: N_1  and  S_2
REMARK    2  A    between atoms: S_2  and  C_5
REMARK    3  A    between atoms: C_8  and  N_9
REMARK    4  A    between atoms: C_12  and  C_16
REMARK                            x       y       z     vdW  Elec       q    Type
REMARK                         _______ _______ _______ _____ _____    ______ ____
ROOT
ATOM      1  N   UNL     1       9.875  -1.705  23.424  0.00  0.00    -0.284 N 
ATOM      2  H   UNL     1      10.792  -2.030  23.697  0.00  0.00    +0.155 HD
ATOM      3  C   UNL     1       9.822  -0.320  23.557  0.00  0.00    +0.220 A 
ATOM      4  N   UNL     1      10.943   0.248  24.024  0.00  0.00    -0.223 NA
ATOM      5  C   UNL     1      10.931   1.581  24.182  0.00  0.00    +0.116 A 
ATOM      6  C   UNL     1       9.853   2.367  23.872  0.00  0.00    +0.050 A 
ATOM      7  C   UNL     1       8.740   1.707  23.396  0.00  0.00    +0.094 A 
ATOM      8  N   UNL     1       8.719   0.376  23.227  0.00  0.00    -0.213 NA
ENDROOT
BRANCH   7   9
ATOM      9  C   UNL     1       7.481   2.416  23.159  0.00  0.00    +0.092 A 
ATOM     10  N   UNL     1       6.320   2.396  23.931  0.00  0.00    -0.298 N 
ATOM     11  C   UNL     1       5.426   3.286  23.322  0.00  0.00    +0.138 A 
ATOM     12  C   UNL     1       4.154   3.476  23.932  0.00  0.00    +0.047 A 
ATOM     13  C   UNL     1       3.835   2.798  25.048  0.00  0.00    +0.005 A 
ATOM     14  C   UNL     1       4.765   1.858  25.648  0.00  0.00    +0.018 A 
ATOM     15  N   UNL     1       5.927   3.824  22.235  0.00  0.00    -0.235 NA
ATOM     16  C   UNL     1       5.975   1.677  25.083  0.00  0.00    +0.093 A 
ATOM     17  C   UNL     1       7.181   3.302  22.133  0.00  0.00    +0.141 A 
ENDBRANCH   7   9
BRANCH   1  21
ATOM     18  C   UNL     1       6.708  -4.448  23.067  0.00  0.00    +0.105 A 
ATOM     19  C   UNL     1       6.890  -3.448  22.108  0.00  0.00    +0.030 A 
ATOM     20  C   UNL     1       7.962  -2.561  22.232  0.00  0.00    +0.025 A 
ATOM     21  C   UNL     1       8.875  -2.673  23.293  0.00  0.00    +0.034 A 
ATOM     22  C   UNL     1       8.678  -3.703  24.224  0.00  0.00    +0.025 A 
ATOM     23  C   UNL     1       7.609  -4.595  24.115  0.00  0.00    +0.030 A 
BRANCH  18  24
ATOM     24  S   UNL     1       5.302  -5.508  22.944  0.00  0.00    +0.056 S 
ATOM     25  O   UNL     1       5.318  -6.444  24.044  0.00  0.00    -0.153 OA
ATOM     26  O   UNL     1       4.136  -4.730  22.611  0.00  0.00    -0.153 OA
BRANCH  24  27
ATOM     27  N   UNL     1       5.692  -6.392  21.575  0.00  0.00    -0.204 NA
ATOM     28  H   UNL     1       5.042  -7.166  21.447  0.00  0.00    +0.144 HD
ATOM     29  H   UNL     1       5.765  -5.769  20.771  0.00  0.00    +0.144 HD
ENDBRANCH  24  27
ENDBRANCH  18  24
ENDBRANCH   1  21
TORSDOF 4
ENDMDL
MODEL 6
REMARK VINA RESULT:      -6.9      4.435      8.037
REMARK  Name = 
REMARK  4 active torsions:
REMARK  status: ('A' for Active; 'I' for Inactive)
REMARK    1  A    between atoms: N_1  and  S_2
REMARK    2  A    between atoms: S_2  and  C_5
REMARK    3  A    between atoms: C_8  and  N_9
REMARK    4  A    between atoms: C_12  and  C_16
REMARK                            x       y       z     vdW  Elec       q    Type
REMARK                         _______ _______ _______ _____ _____    ______ ____
ROOT
ATOM      1  N   UNL     1       8.619  -3.977  23.809  0.00  0.00    -0.284 N 
ATOM      2  H   UNL     1       9.243  -4.565  23.276  0.00  0.00    +0.155 HD
ATOM      3  C   UNL     1       8.896  -2.641  23.529  0.00  0.00    +0.220 A 
ATOM      4  N   UNL     1       9.906  -2.441  22.671  0.00  0.00    -0.223 NA
ATOM      5  C   UNL     1      10.218  -1.167  22.383  0.00  0.00    +0.116 A 
ATOM      6  C   UNL     1       9.548  -0.091  22.903  0.00  0.00    +0.050 A 
ATOM      7  C   UNL     1       8.521  -0.383  23.775  0.00  0.00    +0.094 A 
ATOM      8  N   UNL     1       8.184  -1.644  24.084  0.00  0.00    -0.213 NA
ENDROOT
BRANCH   7   9
ATOM      9  C   UNL     1       7.819   0.678  24.502  0.00  0.00    +0.092 A 
ATOM     10  N   UNL     1       6.976   1.663  23.990  0.00  0.00    -0.298 N 
ATOM     11  C   UNL     1       6.505   2.390  25.091  0.00  0.00    +0.138 A 
ATOM     12  C   UNL     1       5.593   3.455  24.847  0.00  0.00    +0.047 A 
ATOM     13  C   UNL     1       5.221   3.748  23.589  0.00  0.00    +0.005 A 
ATOM     14  C   UNL     1       5.742   2.999  22.458  0.00  0.00    +0.018 A 
ATOM     15  N   UNL     1       7.007   1.955  26.223  0.00  0.00    -0.235 NA
ATOM     16  C   UNL     1       6.600   1.984  22.679  0.00  0.00    +0.093 A 
ATOM     17  C   UNL     1       7.805   0.908  25.871  0.00  0.00    +0.141 A 
ENDBRANCH   7   9
BRANCH   1  21
ATOM     18  C   UNL     1       6.330  -5.631  26.924  0.00  0.00    +0.105 A 
ATOM     19  C   UNL     1       5.782  -5.479  25.648  0.00  0.00    +0.030 A 
ATOM     20  C   UNL     1       6.567  -4.948  24.620  0.00  0.00    +0.025 A 
ATOM     21  C   UNL     1       7.905  -4.588  24.845  0.00  0.00    +0.034 A 
ATOM     22  C   UNL     1       8.431  -4.778  26.131  0.00  0.00    +0.025 A 
ATOM     23  C   UNL     1       7.658  -5.303  27.169  0.00  0.00    +0.030 A 
BRANCH  18  24
ATOM     24  S   UNL     1       5.302  -6.223  28.233  0.00  0.00    +0.056 S 
ATOM     25  O   UNL     1       3.934  -5.848  27.966  0.00  0.00    -0.153 OA
ATOM     26  O   UNL     1       5.679  -7.571  28.572  0.00  0.00    -0.153 OA
BRANCH  24  27
ATOM     27  N   UNL     1       5.812  -5.252  29.499  0.00  0.00    -0.204 NA
ATOM     28  H   UNL     1       5.670  -4.267  29.279  0.00  0.00    +0.144 HD
ATOM     29  H   UNL     1       5.371  -5.556  30.367  0.00  0.00    +0.144 HD
ENDBRANCH  24  27
ENDBRANCH  18  24
ENDBRANCH   1  21
TORSDOF 4
ENDMDL
MODEL 7
REMARK VINA RESULT:      -6.9      4.373      7.683
REMARK  Name = 
REMARK  4 active torsions:
REMARK  status: ('A' for Active; 'I' for Inactive)
REMARK    1  A    between atoms: N_1  and  S_2
REMARK    2  A    between atoms: S_2  and  C_5
REMARK    3  A    between atoms: C_8  and  N_9
REMARK    4  A    between atoms: C_12  and  C_16
REMARK                            x       y       z     vdW  Elec       q    Type
REMARK                         _______ _______ _______ _____ _____    ______ ____
ROOT
ATOM      1  N   UNL     1       8.688  -2.283  22.311  0.00  0.00    -0.284 N 
ATOM      2  H   UNL     1       9.595  -2.593  21.993  0.00  0.00    +0.155 HD
ATOM      3  C   UNL     1       8.638  -0.891  22.267  0.00  0.00    +0.220 A 
ATOM      4  N   UNL     1       9.768  -0.297  21.857  0.00  0.00    -0.223 NA
ATOM      5  C   UNL     1       9.769   1.045  21.813  0.00  0.00    +0.116 A 
ATOM      6  C   UNL     1       8.682   1.811  22.144  0.00  0.00    +0.050 A 
ATOM      7  C   UNL     1       7.560   1.123  22.555  0.00  0.00    +0.094 A 
ATOM      8  N   UNL     1       7.526  -0.217  22.609  0.00  0.00    -0.213 NA
ENDROOT
BRANCH   7   9
ATOM      9  C   UNL     1       6.382   1.829  23.064  0.00  0.00    +0.092 A 
ATOM     10  N   UNL     1       5.702   1.620  24.263  0.00  0.00    -0.298 N 
ATOM     11  C   UNL     1       4.691   2.588  24.316  0.00  0.00    +0.138 A 
ATOM     12  C   UNL     1       3.852   2.614  25.466  0.00  0.00    +0.047 A 
ATOM     13  C   UNL     1       4.030   1.716  26.450  0.00  0.00    +0.005 A 
ATOM     14  C   UNL     1       5.066   0.701  26.362  0.00  0.00    +0.018 A 
ATOM     15  N   UNL     1       4.677   3.349  23.247  0.00  0.00    -0.235 NA
ATOM     16  C   UNL     1       5.871   0.673  25.282  0.00  0.00    +0.093 A 
ATOM     17  C   UNL     1       5.709   2.895  22.482  0.00  0.00    +0.141 A 
ENDBRANCH   7   9
BRANCH   1  21
ATOM     18  C   UNL     1       6.104  -4.978  24.243  0.00  0.00    +0.105 A 
ATOM     19  C   UNL     1       5.907  -4.649  22.899  0.00  0.00    +0.030 A 
ATOM     20  C   UNL     1       6.791  -3.769  22.269  0.00  0.00    +0.025 A 
ATOM     21  C   UNL     1       7.888  -3.229  22.958  0.00  0.00    +0.034 A 
ATOM     22  C   UNL     1       8.071  -3.600  24.298  0.00  0.00    +0.025 A 
ATOM     23  C   UNL     1       7.195  -4.475  24.942  0.00  0.00    +0.030 A 
BRANCH  18  24
ATOM     24  S   UNL     1       4.932  -6.025  25.049  0.00  0.00    +0.056 S 
ATOM     25  O   UNL     1       5.569  -6.668  26.175  0.00  0.00    -0.153 OA
ATOM     26  O   UNL     1       3.671  -5.339  25.166  0.00  0.00    -0.153 OA
BRANCH  24  27
ATOM     27  N   UNL     1       4.722  -7.216  23.890  0.00  0.00    -0.204 NA
ATOM     28  H   UNL     1       3.744  -7.281  23.613  0.00  0.00    +0.144 HD
ATOM     29  H   UNL     1       5.368  -7.061  23.116  0.00  0.00    +0.144 HD
ENDBRANCH  24  27
ENDBRANCH  18  24
ENDBRANCH   1  21
TORSDOF 4
ENDMDL
MODEL 8
REMARK VINA RESULT:      -6.9      2.268      3.845
REMARK  Name = 
REMARK  4 active torsions:
REMARK  status: ('A' for Active; 'I' for Inactive)
REMARK    1  A    between atoms: N_1  and  S_2
REMARK    2  A    between atoms: S_2  and  C_5
REMARK    3  A    between atoms: C_8  and  N_9
REMARK    4  A    between atoms: C_12  and  C_16
REMARK                            x       y       z     vdW  Elec       q    Type
REMARK                         _______ _______ _______ _____ _____    ______ ____
ROOT
ATOM      1  N   UNL     1       8.569  -1.866  26.397  0.00  0.00    -0.284 N 
ATOM      2  H   UNL     1       9.317  -1.917  27.073  0.00  0.00    +0.155 HD
ATOM      3  C   UNL     1       7.948  -3.109  26.305  0.00  0.00    +0.220 A 
ATOM      4  N   UNL     1       8.477  -4.065  27.082  0.00  0.00    -0.223 NA
ATOM      5  C   UNL     1       7.919  -5.284  27.015  0.00  0.00    +0.116 A 
ATOM      6  C   UNL     1       6.843  -5.577  26.219  0.00  0.00    +0.050 A 
ATOM      7  C   UNL     1       6.357  -4.539  25.452  0.00  0.00    +0.094 A 
ATOM      8  N   UNL     1       6.892  -3.309  25.496  0.00  0.00    -0.213 NA
ENDROOT
BRANCH   7   9
ATOM      9  C   UNL     1       5.301  -4.757  24.461  0.00  0.00    +0.092 A 
ATOM     10  N   UNL     1       3.950  -5.022  24.682  0.00  0.00    -0.298 N 
ATOM     11  C   UNL     1       3.349  -5.084  23.419  0.00  0.00    +0.138 A 
ATOM     12  C   UNL     1       1.946  -5.321  23.359  0.00  0.00    +0.047 A 
ATOM     13  C   UNL     1       1.244  -5.496  24.492  0.00  0.00    +0.005 A 
ATOM     14  C   UNL     1       1.892  -5.456  25.791  0.00  0.00    +0.018 A 
ATOM     15  N   UNL     1       4.215  -4.909  22.449  0.00  0.00    -0.235 NA
ATOM     16  C   UNL     1       3.217  -5.223  25.859  0.00  0.00    +0.093 A 
ATOM     17  C   UNL     1       5.406  -4.703  23.078  0.00  0.00    +0.141 A 
ENDBRANCH   7   9
BRANCH   1  21
ATOM     18  C   UNL     1       8.428   1.370  23.716  0.00  0.00    +0.105 A 
ATOM     19  C   UNL     1       7.251   0.738  24.124  0.00  0.00    +0.030 A 
ATOM     20  C   UNL     1       7.317  -0.321  25.034  0.00  0.00    +0.025 A 
ATOM     21  C   UNL     1       8.547  -0.744  25.562  0.00  0.00    +0.034 A 
ATOM     22  C   UNL     1       9.707  -0.071  25.151  0.00  0.00    +0.025 A 
ATOM     23  C   UNL     1       9.657   0.986  24.240  0.00  0.00    +0.030 A 
BRANCH  18  24
ATOM     24  S   UNL     1       8.337   2.650  22.502  0.00  0.00    +0.056 S 
ATOM     25  O   UNL     1       7.175   2.433  21.672  0.00  0.00    -0.153 OA
ATOM     26  O   UNL     1       8.617   3.922  23.118  0.00  0.00    -0.153 OA
BRANCH  24  27
ATOM     27  N   UNL     1       9.665   2.278  21.551  0.00  0.00    -0.204 NA
ATOM     28  H   UNL     1       9.649   2.813  20.684  0.00  0.00    +0.144 HD
ATOM     29  H   UNL     1      10.521   2.386  22.095  0.00  0.00    +0.144 HD
ENDBRANCH  24  27
ENDBRANCH  18  24
ENDBRANCH   1  21
TORSDOF 4
ENDMDL
MODEL 9
REMARK VINA RESULT:      -6.8      5.715      9.178
REMARK  Name = 
REMARK  4 active torsions:
REMARK  status: ('A' for Active; 'I' for Inactive)
REMARK    1  A    between atoms: N_1  and  S_2
REMARK    2  A    between atoms: S_2  and  C_5
REMARK    3  A    between atoms: C_8  and  N_9
REMARK    4  A    between atoms: C_12  and  C_16
REMARK                            x       y       z     vdW  Elec       q    Type
REMARK                         _______ _______ _______ _____ _____    ______ ____
ROOT
ATOM      1  N   UNL     1      10.735   3.206  23.181  0.00  0.00    -0.284 N 
ATOM      2  H   UNL     1      11.691   3.459  22.975  0.00  0.00    +0.155 HD
ATOM      3  C   UNL     1      10.047   4.334  23.621  0.00  0.00    +0.220 A 
ATOM      4  N   UNL     1      10.783   5.453  23.696  0.00  0.00    -0.223 NA
ATOM      5  C   UNL     1      10.164   6.562  24.130  0.00  0.00    +0.116 A 
ATOM      6  C   UNL     1       8.837   6.600  24.470  0.00  0.00    +0.050 A 
ATOM      7  C   UNL     1       8.151   5.409  24.363  0.00  0.00    +0.094 A 
ATOM      8  N   UNL     1       8.740   4.283  23.933  0.00  0.00    -0.213 NA
ENDROOT
BRANCH   7   9
ATOM      9  C   UNL     1       6.766   5.287  24.825  0.00  0.00    +0.092 A 
ATOM     10  N   UNL     1       5.714   4.594  24.228  0.00  0.00    -0.298 N 
ATOM     11  C   UNL     1       4.617   4.727  25.088  0.00  0.00    +0.138 A 
ATOM     12  C   UNL     1       3.401   4.083  24.722  0.00  0.00    +0.047 A 
ATOM     13  C   UNL     1       3.326   3.390  23.573  0.00  0.00    +0.005 A 
ATOM     14  C   UNL     1       4.467   3.288  22.681  0.00  0.00    +0.018 A 
ATOM     15  N   UNL     1       4.897   5.459  26.140  0.00  0.00    -0.235 NA
ATOM     16  C   UNL     1       5.625   3.887  23.022  0.00  0.00    +0.093 A 
ATOM     17  C   UNL     1       6.208   5.799  25.989  0.00  0.00    +0.141 A 
ENDBRANCH   7   9
BRANCH   1  21
ATOM     18  C   UNL     1       9.645  -0.848  23.410  0.00  0.00    +0.105 A 
ATOM     19  C   UNL     1       9.506  -0.145  22.210  0.00  0.00    +0.030 A 
ATOM     20  C   UNL     1       9.896   1.196  22.148  0.00  0.00    +0.025 A 
ATOM     21  C   UNL     1      10.448   1.841  23.267  0.00  0.00    +0.034 A 
ATOM     22  C   UNL     1      10.597   1.098  24.447  0.00  0.00    +0.025 A 
ATOM     23  C   UNL     1      10.209  -0.240  24.525  0.00  0.00    +0.030 A 
BRANCH  18  24
ATOM     24  S   UNL     1       9.071  -2.516  23.497  0.00  0.00    +0.056 S 
ATOM     25  O   UNL     1       8.331  -2.824  22.296  0.00  0.00    -0.153 OA
ATOM     26  O   UNL     1      10.124  -3.365  23.992  0.00  0.00    -0.153 OA
BRANCH  24  27
ATOM     27  N   UNL     1       7.937  -2.395  24.724  0.00  0.00    -0.204 NA
ATOM     28  H   UNL     1       7.742  -1.419  24.940  0.00  0.00    +0.144 HD
ATOM     29  H   UNL     1       7.112  -2.946  24.487  0.00  0.00    +0.144 HD
ENDBRANCH  24  27
ENDBRANCH  18  24
ENDBRANCH   1  21
TORSDOF 4
ENDMDL
