MODEL 1
REMARK VINA RESULT:      -6.4      0.000      0.000
REMARK  Name = 
REMARK  7 active torsions:
REMARK  status: ('A' for Active; 'I' for Inactive)
REMARK    1  A    between atoms: O_1  and  C_2
REMARK    2  A    between atoms: C_2  and  C_3
REMARK    3  A    between atoms: C_6  and  N_16
REMARK    4  A    between atoms: C_9  and  O_11
REMARK    5  A    between atoms: O_11  and  P_12
REMARK    6  A    between atoms: P_12  and  O_13
REMARK    7  A    between atoms: P_12  and  O_14
REMARK                            x       y       z     vdW  Elec       q    Type
REMARK                         _______ _______ _______ _____ _____    ______ ____
ROOT
ATOM      1  C   UNL     1       8.104  -4.609  25.034  0.00  0.00    +0.175 C 
ATOM      2  C   UNL     1       7.255  -4.921  23.794  0.00  0.00    +0.165 C 
ATOM      3  C   UNL     1       7.186  -3.600  23.042  0.00  0.00    +0.089 C 
ATOM      4  C   UNL     1       7.712  -2.581  24.038  0.00  0.00    +0.226 C 
ATOM      5  O   UNL     1       8.640  -3.288  24.865  0.00  0.00    -0.348 OA
ENDROOT
BRANCH   4   6
ATOM      6  N   UNL     1       8.353  -1.438  23.405  0.00  0.00    -0.274 N 
ATOM      7  C   UNL     1       8.316  -0.230  24.090  0.00  0.00    +0.331 A 
ATOM      8  O   UNL     1       7.756  -0.076  25.176  0.00  0.00    -0.246 OA
ATOM      9  N   UNL     1       8.954   0.816  23.484  0.00  0.00    -0.275 N 
ATOM     10  H   UNL     1       8.975   1.693  23.986  0.00  0.00    +0.173 HD
ATOM     11  C   UNL     1       9.601   0.776  22.283  0.00  0.00    +0.254 A 
ATOM     12  O   UNL     1      10.202   1.737  21.809  0.00  0.00    -0.268 OA
ATOM     13  C   UNL     1       9.537  -0.507  21.566  0.00  0.00    +0.088 A 
ATOM     14  C   UNL     1       8.924  -1.540  22.152  0.00  0.00    +0.098 A 
ENDBRANCH   4   6
BRANCH   1  15
ATOM     15  C   UNL     1       9.258  -5.577  25.278  0.00  0.00    +0.190 C 
BRANCH  15  16
ATOM     16  O   UNL     1      10.502  -5.011  24.895  0.00  0.00    -0.392 OA
ATOM     17  H   UNL     1      10.999  -4.824  25.712  0.00  0.00    +0.210 HD
ENDBRANCH  15  16
ENDBRANCH   1  15
BRANCH   2  18
ATOM     18  O   UNL     1       5.957  -5.308  24.215  0.00  0.00    -0.281 OA
BRANCH  18  19
ATOM     19  P   UNL     1       4.973  -6.010  23.164  0.00  0.00    +0.473 P 
ATOM     20  O   UNL     1       3.850  -5.186  22.643  0.00  0.00    -0.228 OA
BRANCH  19  21
ATOM     21  O   UNL     1       4.540  -7.321  23.967  0.00  0.00    -0.303 OA
ATOM     22  H   UNL     1       4.181  -8.007  23.377  0.00  0.00    +0.222 HD
ENDBRANCH  19  21
BRANCH  19  23
ATOM     23  O   UNL     1       5.967  -6.584  22.055  0.00  0.00    -0.303 OA
ATOM     24  H   UNL     1       5.939  -7.556  22.004  0.00  0.00    +0.222 HD
ENDBRANCH  19  23
ENDBRANCH  18  19
ENDBRANCH   2  18
TORSDOF 7
ENDMDL
MODEL 2
REMARK VINA RESULT:      -6.4      3.546      6.688
REMARK  Name = 
REMARK  7 active torsions:
REMARK  status: ('A' for Active; 'I' for Inactive)
REMARK    1  A    between atoms: O_1  and  C_2
REMARK    2  A    between atoms: C_2  and  C_3
REMARK    3  A    between atoms: C_6  and  N_16
REMARK    4  A    between atoms: C_9  and  O_11
REMARK    5  A    between atoms: O_11  and  P_12
REMARK    6  A    between atoms: P_12  and  O_13
REMARK    7  A    between atoms: P_12  and  O_14
REMARK                            x       y       z     vdW  Elec       q    Type
REMARK                         _______ _______ _______ _____ _____    ______ ____
ROOT
ATOM      1  C   UNL     1       9.855  -0.426  24.055  0.00  0.00    +0.175 C 
ATOM      2  C   UNL     1       8.422   0.116  23.974  0.00  0.00    +0.165 C 
ATOM      3  C   UNL     1       7.550  -1.054  24.406  0.00  0.00    +0.089 C 
ATOM      4  C   UNL     1       8.496  -2.242  24.394  0.00  0.00    +0.226 C 
ATOM      5  O   UNL     1       9.791  -1.712  24.689  0.00  0.00    -0.348 OA
ENDROOT
BRANCH   4   6
ATOM      6  N   UNL     1       8.131  -3.276  25.351  0.00  0.00    -0.274 N 
ATOM      7  C   UNL     1       8.891  -4.438  25.349  0.00  0.00    +0.331 A 
ATOM      8  O   UNL     1       9.827  -4.644  24.575  0.00  0.00    -0.246 OA
ATOM      9  N   UNL     1       8.543  -5.377  26.281  0.00  0.00    -0.275 N 
ATOM     10  H   UNL     1       9.110  -6.211  26.324  0.00  0.00    +0.173 HD
ATOM     11  C   UNL     1       7.526  -5.273  27.185  0.00  0.00    +0.254 A 
ATOM     12  O   UNL     1       7.290  -6.128  28.035  0.00  0.00    -0.268 OA
ATOM     13  C   UNL     1       6.706  -4.056  27.085  0.00  0.00    +0.088 A 
ATOM     14  C   UNL     1       7.041  -3.127  26.184  0.00  0.00    +0.098 A 
ENDBRANCH   4   6
BRANCH   1  15
ATOM     15  C   UNL     1      10.828   0.455  24.833  0.00  0.00    +0.190 C 
BRANCH  15  16
ATOM     16  O   UNL     1      11.142   1.641  24.119  0.00  0.00    -0.392 OA
ATOM     17  H   UNL     1      10.598   1.644  23.311  0.00  0.00    +0.210 HD
ENDBRANCH  15  16
ENDBRANCH   1  15
BRANCH   2  18
ATOM     18  O   UNL     1       8.139   0.460  22.627  0.00  0.00    -0.281 OA
BRANCH  18  19
ATOM     19  P   UNL     1       8.178   2.000  22.189  0.00  0.00    +0.473 P 
ATOM     20  O   UNL     1       7.012   2.507  21.417  0.00  0.00    -0.228 OA
BRANCH  19  21
ATOM     21  O   UNL     1       9.582   2.077  21.433  0.00  0.00    -0.303 OA
ATOM     22  H   UNL     1       9.700   2.925  20.970  0.00  0.00    +0.222 HD
ENDBRANCH  19  21
BRANCH  19  23
ATOM     23  O   UNL     1       8.470   2.765  23.560  0.00  0.00    -0.303 OA
ATOM     24  H   UNL     1       8.225   3.705  23.516  0.00  0.00    +0.222 HD
ENDBRANCH  19  23
ENDBRANCH  18  19
ENDBRANCH   2  18
TORSDOF 7
ENDMDL
MODEL 3
REMARK VINA RESULT:      -6.3      2.240      3.776
REMARK  Name = 
REMARK  7 active torsions:
REMARK  status: ('A' for Active; 'I' for Inactive)
REMARK    1  A    between atoms: O_1  and  C_2
REMARK    2  A    between atoms: C_2  and  C_3
REMARK    3  A    between atoms: C_6  and  N_16
REMARK    4  A    between atoms: C_9  and  O_11
REMARK    5  A    between atoms: O_11  and  P_12
REMARK    6  A    between atoms: P_12  and  O_13
REMARK    7  A    between atoms: P_12  and  O_14
REMARK                            x       y       z     vdW  Elec       q    Type
REMARK                         _______ _______ _______ _____ _____    ______ ____
ROOT
ATOM      1  C   UNL     1       8.088  -2.963  22.851  0.00  0.00    +0.175 C 
ATOM      2  C   UNL     1       7.959  -2.748  24.365  0.00  0.00    +0.165 C 
ATOM      3  C   UNL     1       8.098  -1.243  24.545  0.00  0.00    +0.089 C 
ATOM      4  C   UNL     1       8.602  -0.755  23.198  0.00  0.00    +0.226 C 
ATOM      5  O   UNL     1       8.075  -1.668  22.231  0.00  0.00    -0.348 OA
ENDROOT
BRANCH   4   6
ATOM      6  N   UNL     1       8.198   0.609  22.893  0.00  0.00    -0.274 N 
ATOM      7  C   UNL     1       9.068   1.371  22.125  0.00  0.00    +0.331 A 
ATOM      8  O   UNL     1      10.157   0.966  21.718  0.00  0.00    -0.246 OA
ATOM      9  N   UNL     1       8.645   2.638  21.829  0.00  0.00    -0.275 N 
ATOM     10  H   UNL     1       9.244   3.194  21.237  0.00  0.00    +0.173 HD
ATOM     11  C   UNL     1       7.469   3.205  22.226  0.00  0.00    +0.254 A 
ATOM     12  O   UNL     1       7.117   4.333  21.888  0.00  0.00    -0.268 OA
ATOM     13  C   UNL     1       6.626   2.379  23.104  0.00  0.00    +0.088 A 
ATOM     14  C   UNL     1       7.025   1.136  23.393  0.00  0.00    +0.098 A 
ENDBRANCH   4   6
BRANCH   1  15
ATOM     15  C   UNL     1       6.981  -3.812  22.231  0.00  0.00    +0.190 C 
BRANCH  15  16
ATOM     16  O   UNL     1       7.250  -5.199  22.369  0.00  0.00    -0.392 OA
ATOM     17  H   UNL     1       6.398  -5.667  22.297  0.00  0.00    +0.210 HD
ENDBRANCH  15  16
ENDBRANCH   1  15
BRANCH   2  18
ATOM     18  O   UNL     1       9.030  -3.415  25.013  0.00  0.00    -0.281 OA
BRANCH  18  19
ATOM     19  P   UNL     1       8.803  -4.900  25.567  0.00  0.00    +0.473 P 
ATOM     20  O   UNL     1       7.419  -5.439  25.492  0.00  0.00    -0.228 OA
BRANCH  19  21
ATOM     21  O   UNL     1       9.409  -4.783  27.040  0.00  0.00    -0.303 OA
ATOM     22  H   UNL     1      10.377  -4.885  27.045  0.00  0.00    +0.222 HD
ENDBRANCH  19  21
BRANCH  19  23
ATOM     23  O   UNL     1       9.909  -5.755  24.795  0.00  0.00    -0.303 OA
ATOM     24  H   UNL     1      10.043  -5.443  23.883  0.00  0.00    +0.222 HD
ENDBRANCH  19  23
ENDBRANCH  18  19
ENDBRANCH   2  18
TORSDOF 7
ENDMDL
MODEL 4
REMARK VINA RESULT:      -6.3      3.144      6.691
REMARK  Name = 
REMARK  7 active torsions:
REMARK  status: ('A' for Active; 'I' for Inactive)
REMARK    1  A    between atoms: O_1  and  C_2
REMARK    2  A    between atoms: C_2  and  C_3
REMARK    3  A    between atoms: C_6  and  N_16
REMARK    4  A    between atoms: C_9  and  O_11
REMARK    5  A    between atoms: O_11  and  P_12
REMARK    6  A    between atoms: P_12  and  O_13
REMARK    7  A    between atoms: P_12  and  O_14
REMARK                            x       y       z     vdW  Elec       q    Type
REMARK                         _______ _______ _______ _____ _____    ______ ____
ROOT
ATOM      1  C   UNL     1       8.822  -1.636  22.247  0.00  0.00    +0.175 C 
ATOM      2  C   UNL     1       7.831  -0.687  22.936  0.00  0.00    +0.165 C 
ATOM      3  C   UNL     1       6.598  -1.544  23.185  0.00  0.00    +0.089 C 
ATOM      4  C   UNL     1       6.845  -2.793  22.358  0.00  0.00    +0.226 C 
ATOM      5  O   UNL     1       8.265  -2.957  22.313  0.00  0.00    -0.348 OA
ENDROOT
BRANCH   4   6
ATOM      6  N   UNL     1       6.205  -3.980  22.906  0.00  0.00    -0.274 N 
ATOM      7  C   UNL     1       5.764  -4.937  22.002  0.00  0.00    +0.331 A 
ATOM      8  O   UNL     1       5.863  -4.823  20.780  0.00  0.00    -0.246 OA
ATOM      9  N   UNL     1       5.197  -6.055  22.550  0.00  0.00    -0.275 N 
ATOM     10  H   UNL     1       4.908  -6.782  21.911  0.00  0.00    +0.173 HD
ATOM     11  C   UNL     1       5.022  -6.296  23.881  0.00  0.00    +0.254 A 
ATOM     12  O   UNL     1       4.551  -7.343  24.320  0.00  0.00    -0.268 OA
ATOM     13  C   UNL     1       5.435  -5.212  24.786  0.00  0.00    +0.088 A 
ATOM     14  C   UNL     1       5.998  -4.119  24.263  0.00  0.00    +0.098 A 
ENDBRANCH   4   6
BRANCH   1  15
ATOM     15  C   UNL     1      10.216  -1.661  22.867  0.00  0.00    +0.190 C 
BRANCH  15  16
ATOM     16  O   UNL     1      10.650  -0.358  23.226  0.00  0.00    -0.392 OA
ATOM     17  H   UNL     1      10.859  -0.375  24.178  0.00  0.00    +0.210 HD
ENDBRANCH  15  16
ENDBRANCH   1  15
BRANCH   2  18
ATOM     18  O   UNL     1       7.515   0.369  22.043  0.00  0.00    -0.281 OA
BRANCH  18  19
ATOM     19  P   UNL     1       8.093   1.835  22.331  0.00  0.00    +0.473 P 
ATOM     20  O   UNL     1       7.166   2.977  22.111  0.00  0.00    -0.228 OA
BRANCH  19  21
ATOM     21  O   UNL     1       9.407   1.839  21.424  0.00  0.00    -0.303 OA
ATOM     22  H   UNL     1      10.017   1.121  21.663  0.00  0.00    +0.222 HD
ENDBRANCH  19  21
BRANCH  19  23
ATOM     23  O   UNL     1       8.683   1.713  23.810  0.00  0.00    -0.303 OA
ATOM     24  H   UNL     1       8.035   1.346  24.435  0.00  0.00    +0.222 HD
ENDBRANCH  19  23
ENDBRANCH  18  19
ENDBRANCH   2  18
TORSDOF 7
ENDMDL
MODEL 5
REMARK VINA RESULT:      -6.3      1.598      1.847
REMARK  Name = 
REMARK  7 active torsions:
REMARK  status: ('A' for Active; 'I' for Inactive)
REMARK    1  A    between atoms: O_1  and  C_2
REMARK    2  A    between atoms: C_2  and  C_3
REMARK    3  A    between atoms: C_6  and  N_16
REMARK    4  A    between atoms: C_9  and  O_11
REMARK    5  A    between atoms: O_11  and  P_12
REMARK    6  A    between atoms: P_12  and  O_13
REMARK    7  A    between atoms: P_12  and  O_14
REMARK                            x       y       z     vdW  Elec       q    Type
REMARK                         _______ _______ _______ _____ _____    ______ ____
ROOT
ATOM      1  C   UNL     1       7.920  -3.795  24.706  0.00  0.00    +0.175 C 
ATOM      2  C   UNL     1       7.837  -3.934  23.180  0.00  0.00    +0.165 C 
ATOM      3  C   UNL     1       8.100  -2.529  22.658  0.00  0.00    +0.089 C 
ATOM      4  C   UNL     1       7.999  -1.651  23.894  0.00  0.00    +0.226 C 
ATOM      5  O   UNL     1       8.407  -2.475  24.990  0.00  0.00    -0.348 OA
ENDROOT
BRANCH   4   6
ATOM      6  N   UNL     1       8.820  -0.453  23.815  0.00  0.00    -0.274 N 
ATOM      7  C   UNL     1       8.266   0.655  23.186  0.00  0.00    +0.331 A 
ATOM      8  O   UNL     1       7.145   0.664  22.678  0.00  0.00    -0.246 OA
ATOM      9  N   UNL     1       9.051   1.775  23.157  0.00  0.00    -0.275 N 
ATOM     10  H   UNL     1       8.650   2.603  22.741  0.00  0.00    +0.173 HD
ATOM     11  C   UNL     1      10.308   1.889  23.674  0.00  0.00    +0.254 A 
ATOM     12  O   UNL     1      10.949   2.937  23.664  0.00  0.00    -0.268 OA
ATOM     13  C   UNL     1      10.873   0.661  24.256  0.00  0.00    +0.088 A 
ATOM     14  C   UNL     1      10.113  -0.438  24.298  0.00  0.00    +0.098 A 
ENDBRANCH   4   6
BRANCH   1  15
ATOM     15  C   UNL     1       8.831  -4.809  25.391  0.00  0.00    +0.190 C 
BRANCH  15  16
ATOM     16  O   UNL     1       9.448  -5.674  24.448  0.00  0.00    -0.392 OA
ATOM     17  H   UNL     1      10.334  -5.314  24.262  0.00  0.00    +0.210 HD
ENDBRANCH  15  16
ENDBRANCH   1  15
BRANCH   2  18
ATOM     18  O   UNL     1       6.524  -4.343  22.830  0.00  0.00    -0.281 OA
BRANCH  18  19
ATOM     19  P   UNL     1       6.330  -5.640  21.911  0.00  0.00    +0.473 P 
ATOM     20  O   UNL     1       5.945  -5.405  20.493  0.00  0.00    -0.228 OA
BRANCH  19  21
ATOM     21  O   UNL     1       5.280  -6.481  22.771  0.00  0.00    -0.303 OA
ATOM     22  H   UNL     1       4.581  -5.917  23.145  0.00  0.00    +0.222 HD
ENDBRANCH  19  21
BRANCH  19  23
ATOM     23  O   UNL     1       7.691  -6.448  22.121  0.00  0.00    -0.303 OA
ATOM     24  H   UNL     1       7.590  -7.177  22.757  0.00  0.00    +0.222 HD
ENDBRANCH  19  23
ENDBRANCH  18  19
ENDBRANCH   2  18
TORSDOF 7
ENDMDL
MODEL 6
REMARK VINA RESULT:      -6.2      1.836      2.722
REMARK  Name = 
REMARK  7 active torsions:
REMARK  status: ('A' for Active; 'I' for Inactive)
REMARK    1  A    between atoms: O_1  and  C_2
REMARK    2  A    between atoms: C_2  and  C_3
REMARK    3  A    between atoms: C_6  and  N_16
REMARK    4  A    between atoms: C_9  and  O_11
REMARK    5  A    between atoms: O_11  and  P_12
REMARK    6  A    between atoms: P_12  and  O_13
REMARK    7  A    between atoms: P_12  and  O_14
REMARK                            x       y       z     vdW  Elec       q    Type
REMARK                         _______ _______ _______ _____ _____    ______ ____
ROOT
ATOM      1  C   UNL     1       6.998  -5.417  22.930  0.00  0.00    +0.175 C 
ATOM      2  C   UNL     1       5.932  -4.810  23.853  0.00  0.00    +0.165 C 
ATOM      3  C   UNL     1       6.443  -3.407  24.148  0.00  0.00    +0.089 C 
ATOM      4  C   UNL     1       7.878  -3.424  23.650  0.00  0.00    +0.226 C 
ATOM      5  O   UNL     1       7.904  -4.362  22.571  0.00  0.00    -0.348 OA
ENDROOT
BRANCH   4   6
ATOM      6  N   UNL     1       8.349  -2.120  23.212  0.00  0.00    -0.274 N 
ATOM      7  C   UNL     1       9.723  -1.946  23.102  0.00  0.00    +0.331 A 
ATOM      8  O   UNL     1      10.547  -2.818  23.376  0.00  0.00    -0.246 OA
ATOM      9  N   UNL     1      10.132  -0.719  22.657  0.00  0.00    -0.275 N 
ATOM     10  H   UNL     1      11.125  -0.586  22.530  0.00  0.00    +0.173 HD
ATOM     11  C   UNL     1       9.321   0.328  22.329  0.00  0.00    +0.254 A 
ATOM     12  O   UNL     1       9.743   1.394  21.886  0.00  0.00    -0.268 OA
ATOM     13  C   UNL     1       7.882   0.112  22.543  0.00  0.00    +0.088 A 
ATOM     14  C   UNL     1       7.469  -1.085  22.969  0.00  0.00    +0.098 A 
ENDBRANCH   4   6
BRANCH   1  15
ATOM     15  C   UNL     1       6.452  -6.048  21.653  0.00  0.00    +0.190 C 
BRANCH  15  16
ATOM     16  O   UNL     1       5.037  -6.152  21.687  0.00  0.00    -0.392 OA
ATOM     17  H   UNL     1       4.769  -6.711  20.935  0.00  0.00    +0.210 HD
ENDBRANCH  15  16
ENDBRANCH   1  15
BRANCH   2  18
ATOM     18  O   UNL     1       5.879  -5.569  25.050  0.00  0.00    -0.281 OA
BRANCH  18  19
ATOM     19  P   UNL     1       4.544  -6.382  25.400  0.00  0.00    +0.473 P 
ATOM     20  O   UNL     1       3.308  -5.581  25.610  0.00  0.00    -0.228 OA
BRANCH  19  21
ATOM     21  O   UNL     1       5.021  -7.241  26.659  0.00  0.00    -0.303 OA
ATOM     22  H   UNL     1       4.492  -7.049  27.452  0.00  0.00    +0.222 HD
ENDBRANCH  19  21
BRANCH  19  23
ATOM     23  O   UNL     1       4.460  -7.471  24.236  0.00  0.00    -0.303 OA
ATOM     24  H   UNL     1       4.026  -8.291  24.531  0.00  0.00    +0.222 HD
ENDBRANCH  19  23
ENDBRANCH  18  19
ENDBRANCH   2  18
TORSDOF 7
ENDMDL
MODEL 7
REMARK VINA RESULT:      -6.1      2.079      3.303
REMARK  Name = 
REMARK  7 active torsions:
REMARK  status: ('A' for Active; 'I' for Inactive)
REMARK    1  A    between atoms: O_1  and  C_2
REMARK    2  A    between atoms: C_2  and  C_3
REMARK    3  A    between atoms: C_6  and  N_16
REMARK    4  A    between atoms: C_9  and  O_11
REMARK    5  A    between atoms: O_11  and  P_12
REMARK    6  A    between atoms: P_12  and  O_13
REMARK    7  A    between atoms: P_12  and  O_14
REMARK                            x       y       z     vdW  Elec       q    Type
REMARK                         _______ _______ _______ _____ _____    ______ ____
ROOT
ATOM      1  C   UNL     1       6.264  -1.905  23.422  0.00  0.00    +0.175 C 
ATOM      2  C   UNL     1       7.406  -2.921  23.282  0.00  0.00    +0.165 C 
ATOM      3  C   UNL     1       8.617  -2.080  22.905  0.00  0.00    +0.089 C 
ATOM      4  C   UNL     1       8.028  -0.725  22.553  0.00  0.00    +0.226 C 
ATOM      5  O   UNL     1       6.846  -0.594  23.347  0.00  0.00    -0.348 OA
ENDROOT
BRANCH   4   6
ATOM      6  N   UNL     1       8.942   0.380  22.802  0.00  0.00    -0.274 N 
ATOM      7  C   UNL     1       9.108   1.308  21.782  0.00  0.00    +0.331 A 
ATOM      8  O   UNL     1       8.550   1.230  20.688  0.00  0.00    -0.246 OA
ATOM      9  N   UNL     1       9.949   2.351  22.060  0.00  0.00    -0.275 N 
ATOM     10  H   UNL     1      10.050   3.059  21.347  0.00  0.00    +0.173 HD
ATOM     11  C   UNL     1      10.630   2.545  23.226  0.00  0.00    +0.254 A 
ATOM     12  O   UNL     1      11.334   3.530  23.439  0.00  0.00    -0.268 OA
ATOM     13  C   UNL     1      10.478   1.488  24.238  0.00  0.00    +0.088 A 
ATOM     14  C   UNL     1       9.653   0.469  23.982  0.00  0.00    +0.098 A 
ENDBRANCH   4   6
BRANCH   1  15
ATOM     15  C   UNL     1       5.469  -2.012  24.720  0.00  0.00    +0.190 C 
BRANCH  15  16
ATOM     16  O   UNL     1       4.448  -2.994  24.626  0.00  0.00    -0.392 OA
ATOM     17  H   UNL     1       4.329  -3.375  25.515  0.00  0.00    +0.210 HD
ENDBRANCH  15  16
ENDBRANCH   1  15
BRANCH   2  18
ATOM     18  O   UNL     1       7.091  -3.818  22.229  0.00  0.00    -0.281 OA
BRANCH  18  19
ATOM     19  P   UNL     1       6.410  -5.224  22.578  0.00  0.00    +0.473 P 
ATOM     20  O   UNL     1       6.940  -6.420  21.869  0.00  0.00    -0.228 OA
BRANCH  19  21
ATOM     21  O   UNL     1       4.869  -4.902  22.314  0.00  0.00    -0.303 OA
ATOM     22  H   UNL     1       4.613  -4.032  22.665  0.00  0.00    +0.222 HD
ENDBRANCH  19  21
BRANCH  19  23
ATOM     23  O   UNL     1       6.492  -5.287  24.172  0.00  0.00    -0.303 OA
ATOM     24  H   UNL     1       5.644  -5.546  24.573  0.00  0.00    +0.222 HD
ENDBRANCH  19  23
ENDBRANCH  18  19
ENDBRANCH   2  18
TORSDOF 7
ENDMDL
MODEL 8
REMARK VINA RESULT:      -6.0      4.171      8.244
REMARK  Name = 
REMARK  7 active torsions:
REMARK  status: ('A' for Active; 'I' for Inactive)
REMARK    1  A    between atoms: O_1  and  C_2
REMARK    2  A    between atoms: C_2  and  C_3
REMARK    3  A    between atoms: C_6  and  N_16
REMARK    4  A    between atoms: C_9  and  O_11
REMARK    5  A    between atoms: O_11  and  P_12
REMARK    6  A    between atoms: P_12  and  O_13
REMARK    7  A    between atoms: P_12  and  O_14
REMARK                            x       y       z     vdW  Elec       q    Type
REMARK                         _______ _______ _______ _____ _____    ______ ____
ROOT
ATOM      1  C   UNL     1       7.822   2.987  23.364  0.00  0.00    +0.175 C 
ATOM      2  C   UNL     1       9.310   3.352  23.469  0.00  0.00    +0.165 C 
ATOM      3  C   UNL     1       9.966   2.101  24.034  0.00  0.00    +0.089 C 
ATOM      4  C   UNL     1       8.797   1.249  24.499  0.00  0.00    +0.226 C 
ATOM      5  O   UNL     1       7.705   1.583  23.638  0.00  0.00    -0.348 OA
ENDROOT
BRANCH   4   6
ATOM      6  N   UNL     1       9.074  -0.179  24.452  0.00  0.00    -0.274 N 
ATOM      7  C   UNL     1       8.613  -0.949  25.513  0.00  0.00    +0.331 A 
ATOM      8  O   UNL     1       8.016  -0.487  26.485  0.00  0.00    -0.246 OA
ATOM      9  N   UNL     1       8.860  -2.291  25.424  0.00  0.00    -0.275 N 
ATOM     10  H   UNL     1       8.497  -2.873  26.164  0.00  0.00    +0.173 HD
ATOM     11  C   UNL     1       9.517  -2.921  24.407  0.00  0.00    +0.254 A 
ATOM     12  O   UNL     1       9.667  -4.139  24.355  0.00  0.00    -0.268 OA
ATOM     13  C   UNL     1      10.051  -2.045  23.352  0.00  0.00    +0.088 A 
ATOM     14  C   UNL     1       9.809  -0.732  23.424  0.00  0.00    +0.098 A 
ENDBRANCH   4   6
BRANCH   1  15
ATOM     15  C   UNL     1       7.189   3.274  22.006  0.00  0.00    +0.190 C 
BRANCH  15  16
ATOM     16  O   UNL     1       6.857   4.648  21.866  0.00  0.00    -0.392 OA
ATOM     17  H   UNL     1       7.447   5.150  22.457  0.00  0.00    +0.210 HD
ENDBRANCH  15  16
ENDBRANCH   1  15
BRANCH   2  18
ATOM     18  O   UNL     1       9.452   4.429  24.382  0.00  0.00    -0.281 OA
BRANCH  18  19
ATOM     19  P   UNL     1      10.142   5.786  23.886  0.00  0.00    +0.473 P 
ATOM     20  O   UNL     1      10.469   6.792  24.931  0.00  0.00    -0.228 OA
BRANCH  19  21
ATOM     21  O   UNL     1       9.111   6.274  22.769  0.00  0.00    -0.303 OA
ATOM     22  H   UNL     1       9.307   5.886  21.899  0.00  0.00    +0.222 HD
ENDBRANCH  19  21
BRANCH  19  23
ATOM     23  O   UNL     1      11.385   5.273  23.023  0.00  0.00    -0.303 OA
ATOM     24  H   UNL     1      11.726   4.420  23.342  0.00  0.00    +0.222 HD
ENDBRANCH  19  23
ENDBRANCH  18  19
ENDBRANCH   2  18
TORSDOF 7
ENDMDL
MODEL 9
REMARK VINA RESULT:      -5.9      3.784      7.421
REMARK  Name = 
REMARK  7 active torsions:
REMARK  status: ('A' for Active; 'I' for Inactive)
REMARK    1  A    between atoms: O_1  and  C_2
REMARK    2  A    between atoms: C_2  and  C_3
REMARK    3  A    between atoms: C_6  and  N_16
REMARK    4  A    between atoms: C_9  and  O_11
REMARK    5  A    between atoms: O_11  and  P_12
REMARK    6  A    between atoms: P_12  and  O_13
REMARK    7  A    between atoms: P_12  and  O_14
REMARK                            x       y       z     vdW  Elec       q    Type
REMARK                         _______ _______ _______ _____ _____    ______ ____
ROOT
ATOM      1  C   UNL     1       8.374   1.351  22.944  0.00  0.00    +0.175 C 
ATOM      2  C   UNL     1       9.389   1.846  23.984  0.00  0.00    +0.165 C 
ATOM      3  C   UNL     1       9.451   0.727  25.014  0.00  0.00    +0.089 C 
ATOM      4  C   UNL     1       8.265  -0.158  24.668  0.00  0.00    +0.226 C 
ATOM      5  O   UNL     1       8.072  -0.016  23.258  0.00  0.00    -0.348 OA
ENDROOT
BRANCH   4   6
ATOM      6  N   UNL     1       8.468  -1.554  25.024  0.00  0.00    -0.274 N 
ATOM      7  C   UNL     1       7.859  -2.006  26.188  0.00  0.00    +0.331 A 
ATOM      8  O   UNL     1       7.189  -1.290  26.933  0.00  0.00    -0.246 OA
ATOM      9  N   UNL     1       8.043  -3.330  26.478  0.00  0.00    -0.275 N 
ATOM     10  H   UNL     1       7.573  -3.688  27.297  0.00  0.00    +0.173 HD
ATOM     11  C   UNL     1       8.766  -4.221  25.740  0.00  0.00    +0.254 A 
ATOM     12  O   UNL     1       8.855  -5.413  26.022  0.00  0.00    -0.268 OA
ATOM     13  C   UNL     1       9.454  -3.666  24.563  0.00  0.00    +0.088 A 
ATOM     14  C   UNL     1       9.276  -2.376  24.265  0.00  0.00    +0.098 A 
ENDBRANCH   4   6
BRANCH   1  15
ATOM     15  C   UNL     1       8.855   1.426  21.498  0.00  0.00    +0.190 C 
BRANCH  15  16
ATOM     16  O   UNL     1      10.043   2.196  21.383  0.00  0.00    -0.392 OA
ATOM     17  H   UNL     1      10.762   1.682  21.792  0.00  0.00    +0.210 HD
ENDBRANCH  15  16
ENDBRANCH   1  15
BRANCH   2  18
ATOM     18  O   UNL     1       8.886   3.030  24.584  0.00  0.00    -0.281 OA
BRANCH  18  19
ATOM     19  P   UNL     1       9.394   4.451  24.049  0.00  0.00    +0.473 P 
ATOM     20  O   UNL     1       9.404   5.572  25.028  0.00  0.00    -0.228 OA
BRANCH  19  21
ATOM     21  O   UNL     1       8.450   4.665  22.779  0.00  0.00    -0.303 OA
ATOM     22  H   UNL     1       7.521   4.799  23.034  0.00  0.00    +0.222 HD
ENDBRANCH  19  21
BRANCH  19  23
ATOM     23  O   UNL     1      10.808   4.113  23.388  0.00  0.00    -0.303 OA
ATOM     24  H   UNL     1      11.433   4.856  23.458  0.00  0.00    +0.222 HD
ENDBRANCH  19  23
ENDBRANCH  18  19
ENDBRANCH   2  18
TORSDOF 7
ENDMDL
