MODEL 1
REMARK VINA RESULT:      -7.6      0.000      0.000
REMARK  Name = 
REMARK  5 active torsions:
REMARK  status: ('A' for Active; 'I' for Inactive)
REMARK    1  A    between atoms: N_1  and  S_2
REMARK    2  A    between atoms: S_2  and  C_5
REMARK    3  A    between atoms: C_8  and  C_11
REMARK    4  A    between atoms: N_13  and  C_14
REMARK    5  A    between atoms: C_14  and  C_15
REMARK                            x       y       z     vdW  Elec       q    Type
REMARK                         _______ _______ _______ _____ _____    ______ ____
ROOT
ATOM      1  C   UNL     1       8.376  -4.742  24.273  0.00  0.00    +0.244 C 
ATOM      2  N   UNL     1       8.513  -3.390  24.023  0.00  0.00    -0.307 N 
ATOM      3  H   UNL     1       7.697  -2.802  24.122  0.00  0.00    +0.149 HD
ATOM      4  O   UNL     1       9.320  -5.486  24.507  0.00  0.00    -0.270 OA
ENDROOT
BRANCH   1   8
ATOM      5  C   UNL     1       4.399  -6.325  24.285  0.00  0.00    +0.105 A 
ATOM      6  C   UNL     1       5.063  -6.129  25.499  0.00  0.00    +0.029 A 
ATOM      7  C   UNL     1       6.353  -5.596  25.505  0.00  0.00    +0.015 A 
ATOM      8  C   UNL     1       6.978  -5.261  24.297  0.00  0.00    +0.037 A 
ATOM      9  C   UNL     1       6.284  -5.410  23.087  0.00  0.00    +0.015 A 
ATOM     10  C   UNL     1       4.992  -5.946  23.077  0.00  0.00    +0.029 A 
BRANCH   5  11
ATOM     11  S   UNL     1       2.809  -7.102  24.286  0.00  0.00    +0.056 S 
ATOM     12  O   UNL     1       2.955  -8.482  24.687  0.00  0.00    -0.153 OA
ATOM     13  O   UNL     1       1.850  -6.209  24.889  0.00  0.00    -0.153 OA
BRANCH  11  14
ATOM     14  N   UNL     1       2.455  -7.155  22.646  0.00  0.00    -0.204 NA
ATOM     15  H   UNL     1       3.163  -6.648  22.114  0.00  0.00    +0.144 HD
ATOM     16  H   UNL     1       2.335  -8.125  22.351  0.00  0.00    +0.144 HD
ENDBRANCH  11  14
ENDBRANCH   5  11
ENDBRANCH   1   8
BRANCH   2  17
ATOM     17  C   UNL     1       9.811  -2.761  24.129  0.00  0.00    +0.142 C 
BRANCH  17  18
ATOM     18  C   UNL     1       9.843  -1.446  23.403  0.00  0.00    +0.008 A 
ATOM     19  C   UNL     1       9.515  -1.363  22.041  0.00  0.00    +0.011 A 
ATOM     20  C   UNL     1       9.533  -0.131  21.382  0.00  0.00    +0.042 A 
ATOM     21  C   UNL     1       9.867   1.024  22.083  0.00  0.00    +0.161 A 
ATOM     22  F   UNL     1       9.876   2.200  21.443  0.00  0.00    -0.202 F 
ATOM     23  C   UNL     1      10.183   0.961  23.431  0.00  0.00    +0.194 A 
ATOM     24  F   UNL     1      10.494   2.078  24.106  0.00  0.00    -0.199 F 
ATOM     25  C   UNL     1      10.168  -0.267  24.087  0.00  0.00    +0.166 A 
ATOM     26  F   UNL     1      10.458  -0.319  25.394  0.00  0.00    -0.202 F 
ENDBRANCH  17  18
ENDBRANCH   2  17
TORSDOF 5
ENDMDL
MODEL 2
REMARK VINA RESULT:      -7.5      2.449      3.052
REMARK  Name = 
REMARK  5 active torsions:
REMARK  status: ('A' for Active; 'I' for Inactive)
REMARK    1  A    between atoms: N_1  and  S_2
REMARK    2  A    between atoms: S_2  and  C_5
REMARK    3  A    between atoms: C_8  and  C_11
REMARK    4  A    between atoms: N_13  and  C_14
REMARK    5  A    between atoms: C_14  and  C_15
REMARK                            x       y       z     vdW  Elec       q    Type
REMARK                         _______ _______ _______ _____ _____    ______ ____
ROOT
ATOM      1  C   UNL     1       8.285  -3.509  23.759  0.00  0.00    +0.244 C 
ATOM      2  N   UNL     1       9.426  -2.883  24.224  0.00  0.00    -0.307 N 
ATOM      3  H   UNL     1       9.812  -3.190  25.106  0.00  0.00    +0.149 HD
ATOM      4  O   UNL     1       7.918  -3.466  22.591  0.00  0.00    -0.270 OA
ENDROOT
BRANCH   1   8
ATOM      5  C   UNL     1       6.083  -5.702  26.701  0.00  0.00    +0.105 A 
ATOM      6  C   UNL     1       5.637  -5.694  25.377  0.00  0.00    +0.029 A 
ATOM      7  C   UNL     1       6.359  -4.997  24.407  0.00  0.00    +0.015 A 
ATOM      8  C   UNL     1       7.526  -4.307  24.764  0.00  0.00    +0.037 A 
ATOM      9  C   UNL     1       7.995  -4.365  26.085  0.00  0.00    +0.015 A 
ATOM     10  C   UNL     1       7.272  -5.061  27.060  0.00  0.00    +0.029 A 
BRANCH   5  11
ATOM     11  S   UNL     1       5.098  -6.498  27.938  0.00  0.00    +0.056 S 
ATOM     12  O   UNL     1       5.870  -7.549  28.557  0.00  0.00    -0.153 OA
ATOM     13  O   UNL     1       4.394  -5.493  28.697  0.00  0.00    -0.153 OA
BRANCH  11  14
ATOM     14  N   UNL     1       3.949  -7.288  27.001  0.00  0.00    -0.204 NA
ATOM     15  H   UNL     1       4.314  -7.462  26.065  0.00  0.00    +0.144 HD
ATOM     16  H   UNL     1       3.635  -8.131  27.482  0.00  0.00    +0.144 HD
ENDBRANCH  11  14
ENDBRANCH   5  11
ENDBRANCH   1   8
BRANCH   2  17
ATOM     17  C   UNL     1      10.313  -2.213  23.299  0.00  0.00    +0.142 C 
BRANCH  17  18
ATOM     18  C   UNL     1      10.106  -0.725  23.323  0.00  0.00    +0.008 A 
ATOM     19  C   UNL     1      10.431   0.032  24.460  0.00  0.00    +0.011 A 
ATOM     20  C   UNL     1      10.249   1.418  24.464  0.00  0.00    +0.042 A 
ATOM     21  C   UNL     1       9.754   2.054  23.329  0.00  0.00    +0.161 A 
ATOM     22  F   UNL     1       9.589   3.383  23.342  0.00  0.00    -0.202 F 
ATOM     23  C   UNL     1       9.440   1.323  22.195  0.00  0.00    +0.194 A 
ATOM     24  F   UNL     1       8.973   1.941  21.099  0.00  0.00    -0.199 F 
ATOM     25  C   UNL     1       9.617  -0.058  22.192  0.00  0.00    +0.166 A 
ATOM     26  F   UNL     1       9.327  -0.757  21.086  0.00  0.00    -0.202 F 
ENDBRANCH  17  18
ENDBRANCH   2  17
TORSDOF 5
ENDMDL
MODEL 3
REMARK VINA RESULT:      -7.4      2.838      3.205
REMARK  Name = 
REMARK  5 active torsions:
REMARK  status: ('A' for Active; 'I' for Inactive)
REMARK    1  A    between atoms: N_1  and  S_2
REMARK    2  A    between atoms: S_2  and  C_5
REMARK    3  A    between atoms: C_8  and  C_11
REMARK    4  A    between atoms: N_13  and  C_14
REMARK    5  A    between atoms: C_14  and  C_15
REMARK                            x       y       z     vdW  Elec       q    Type
REMARK                         _______ _______ _______ _____ _____    ______ ____
ROOT
ATOM      1  C   UNL     1       7.499  -4.161  23.373  0.00  0.00    +0.244 C 
ATOM      2  N   UNL     1       7.924  -2.846  23.414  0.00  0.00    -0.307 N 
ATOM      3  H   UNL     1       8.214  -2.466  24.305  0.00  0.00    +0.149 HD
ATOM      4  O   UNL     1       7.441  -4.821  22.344  0.00  0.00    -0.270 OA
ENDROOT
BRANCH   1   8
ATOM      5  C   UNL     1       6.514  -5.815  27.196  0.00  0.00    +0.105 A 
ATOM      6  C   UNL     1       5.598  -5.922  26.146  0.00  0.00    +0.029 A 
ATOM      7  C   UNL     1       5.919  -5.402  24.891  0.00  0.00    +0.015 A 
ATOM      8  C   UNL     1       7.155  -4.774  24.688  0.00  0.00    +0.037 A 
ATOM      9  C   UNL     1       8.090  -4.719  25.733  0.00  0.00    +0.015 A 
ATOM     10  C   UNL     1       7.771  -5.237  26.993  0.00  0.00    +0.029 A 
BRANCH   5  11
ATOM     11  S   UNL     1       6.050  -6.381  28.807  0.00  0.00    +0.056 S 
ATOM     12  O   UNL     1       6.984  -7.392  29.244  0.00  0.00    -0.153 OA
ATOM     13  O   UNL     1       5.691  -5.244  29.619  0.00  0.00    -0.153 OA
BRANCH  11  14
ATOM     14  N   UNL     1       4.626  -7.209  28.479  0.00  0.00    -0.204 NA
ATOM     15  H   UNL     1       4.678  -8.161  28.843  0.00  0.00    +0.144 HD
ATOM     16  H   UNL     1       3.830  -6.677  28.832  0.00  0.00    +0.144 HD
ENDBRANCH  11  14
ENDBRANCH   5  11
ENDBRANCH   1   8
BRANCH   2  17
ATOM     17  C   UNL     1       8.426  -2.209  22.217  0.00  0.00    +0.142 C 
BRANCH  17  18
ATOM     18  C   UNL     1       9.136  -0.925  22.536  0.00  0.00    +0.008 A 
ATOM     19  C   UNL     1       9.053   0.181  21.676  0.00  0.00    +0.011 A 
ATOM     20  C   UNL     1       9.705   1.376  21.993  0.00  0.00    +0.042 A 
ATOM     21  C   UNL     1      10.432   1.475  23.176  0.00  0.00    +0.161 A 
ATOM     22  F   UNL     1      11.048   2.626  23.473  0.00  0.00    -0.202 F 
ATOM     23  C   UNL     1      10.514   0.396  24.042  0.00  0.00    +0.194 A 
ATOM     24  F   UNL     1      11.207   0.499  25.187  0.00  0.00    -0.199 F 
ATOM     25  C   UNL     1       9.868  -0.795  23.724  0.00  0.00    +0.166 A 
ATOM     26  F   UNL     1       9.938  -1.829  24.574  0.00  0.00    -0.202 F 
ENDBRANCH  17  18
ENDBRANCH   2  17
TORSDOF 5
ENDMDL
MODEL 4
REMARK VINA RESULT:      -7.4      4.972      8.183
REMARK  Name = 
REMARK  5 active torsions:
REMARK  status: ('A' for Active; 'I' for Inactive)
REMARK    1  A    between atoms: N_1  and  S_2
REMARK    2  A    between atoms: S_2  and  C_5
REMARK    3  A    between atoms: C_8  and  C_11
REMARK    4  A    between atoms: N_13  and  C_14
REMARK    5  A    between atoms: C_14  and  C_15
REMARK                            x       y       z     vdW  Elec       q    Type
REMARK                         _______ _______ _______ _____ _____    ______ ____
ROOT
ATOM      1  C   UNL     1       9.199  -3.348  24.793  0.00  0.00    +0.244 C 
ATOM      2  N   UNL     1       7.976  -3.612  25.381  0.00  0.00    -0.307 N 
ATOM      3  H   UNL     1       7.253  -2.909  25.314  0.00  0.00    +0.149 HD
ATOM      4  O   UNL     1      10.020  -4.215  24.521  0.00  0.00    -0.270 OA
ENDROOT
BRANCH   1   8
ATOM      5  C   UNL     1       9.866   0.739  23.712  0.00  0.00    +0.105 A 
ATOM      6  C   UNL     1       9.374   0.438  24.986  0.00  0.00    +0.029 A 
ATOM      7  C   UNL     1       9.172  -0.892  25.353  0.00  0.00    +0.015 A 
ATOM      8  C   UNL     1       9.459  -1.921  24.446  0.00  0.00    +0.037 A 
ATOM      9  C   UNL     1      10.003  -1.613  23.189  0.00  0.00    +0.015 A 
ATOM     10  C   UNL     1      10.205  -0.279  22.817  0.00  0.00    +0.029 A 
BRANCH   5  11
ATOM     11  S   UNL     1      10.013   2.434  23.223  0.00  0.00    +0.056 S 
ATOM     12  O   UNL     1       8.763   3.111  23.473  0.00  0.00    -0.153 OA
ATOM     13  O   UNL     1      11.284   2.945  23.676  0.00  0.00    -0.153 OA
BRANCH  11  14
ATOM     14  N   UNL     1      10.115   2.298  21.552  0.00  0.00    -0.204 NA
ATOM     15  H   UNL     1      11.084   2.397  21.247  0.00  0.00    +0.144 HD
ATOM     16  H   UNL     1       9.676   1.427  21.251  0.00  0.00    +0.144 HD
ENDBRANCH  11  14
ENDBRANCH   5  11
ENDBRANCH   1   8
BRANCH   2  17
ATOM     17  C   UNL     1       7.565  -4.978  25.616  0.00  0.00    +0.142 C 
BRANCH  17  18
ATOM     18  C   UNL     1       6.346  -5.329  24.812  0.00  0.00    +0.008 A 
ATOM     19  C   UNL     1       5.079  -5.398  25.411  0.00  0.00    +0.011 A 
ATOM     20  C   UNL     1       3.950  -5.709  24.648  0.00  0.00    +0.042 A 
ATOM     21  C   UNL     1       4.081  -5.941  23.282  0.00  0.00    +0.161 A 
ATOM     22  F   UNL     1       2.992  -6.234  22.559  0.00  0.00    -0.202 F 
ATOM     23  C   UNL     1       5.323  -5.866  22.673  0.00  0.00    +0.194 A 
ATOM     24  F   UNL     1       5.444  -6.080  21.353  0.00  0.00    -0.199 F 
ATOM     25  C   UNL     1       6.448  -5.560  23.433  0.00  0.00    +0.166 A 
ATOM     26  F   UNL     1       7.644  -5.472  22.835  0.00  0.00    -0.202 F 
ENDBRANCH  17  18
ENDBRANCH   2  17
TORSDOF 5
ENDMDL
MODEL 5
REMARK VINA RESULT:      -7.4      1.973      2.903
REMARK  Name = 
REMARK  5 active torsions:
REMARK  status: ('A' for Active; 'I' for Inactive)
REMARK    1  A    between atoms: N_1  and  S_2
REMARK    2  A    between atoms: S_2  and  C_5
REMARK    3  A    between atoms: C_8  and  C_11
REMARK    4  A    between atoms: N_13  and  C_14
REMARK    5  A    between atoms: C_14  and  C_15
REMARK                            x       y       z     vdW  Elec       q    Type
REMARK                         _______ _______ _______ _____ _____    ______ ____
ROOT
ATOM      1  C   UNL     1       8.801  -2.564  22.854  0.00  0.00    +0.244 C 
ATOM      2  N   UNL     1       8.661  -1.595  21.878  0.00  0.00    -0.307 N 
ATOM      3  H   UNL     1       7.727  -1.291  21.639  0.00  0.00    +0.149 HD
ATOM      4  O   UNL     1       9.848  -2.773  23.454  0.00  0.00    -0.270 OA
ENDROOT
BRANCH   1   8
ATOM      5  C   UNL     1       5.235  -4.770  23.712  0.00  0.00    +0.105 A 
ATOM      6  C   UNL     1       6.475  -5.301  24.080  0.00  0.00    +0.029 A 
ATOM      7  C   UNL     1       7.641  -4.579  23.821  0.00  0.00    +0.015 A 
ATOM      8  C   UNL     1       7.567  -3.329  23.193  0.00  0.00    +0.037 A 
ATOM      9  C   UNL     1       6.315  -2.780  22.875  0.00  0.00    +0.015 A 
ATOM     10  C   UNL     1       5.144  -3.502  23.132  0.00  0.00    +0.029 A 
BRANCH   5  11
ATOM     11  S   UNL     1       3.776  -5.744  23.948  0.00  0.00    +0.056 S 
ATOM     12  O   UNL     1       3.312  -5.583  25.306  0.00  0.00    -0.153 OA
ATOM     13  O   UNL     1       2.914  -5.584  22.802  0.00  0.00    -0.153 OA
BRANCH  11  14
ATOM     14  N   UNL     1       4.393  -7.304  23.874  0.00  0.00    -0.204 NA
ATOM     15  H   UNL     1       5.249  -7.373  24.425  0.00  0.00    +0.144 HD
ATOM     16  H   UNL     1       3.672  -7.972  24.150  0.00  0.00    +0.144 HD
ENDBRANCH  11  14
ENDBRANCH   5  11
ENDBRANCH   1   8
BRANCH   2  17
ATOM     17  C   UNL     1       9.756  -0.697  21.586  0.00  0.00    +0.142 C 
BRANCH  17  18
ATOM     18  C   UNL     1       9.655   0.569  22.389  0.00  0.00    +0.008 A 
ATOM     19  C   UNL     1      10.411   0.746  23.558  0.00  0.00    +0.011 A 
ATOM     20  C   UNL     1      10.320   1.935  24.287  0.00  0.00    +0.042 A 
ATOM     21  C   UNL     1       9.483   2.956  23.844  0.00  0.00    +0.161 A 
ATOM     22  F   UNL     1       9.407   4.093  24.547  0.00  0.00    -0.202 F 
ATOM     23  C   UNL     1       8.739   2.801  22.685  0.00  0.00    +0.194 A 
ATOM     24  F   UNL     1       7.942   3.792  22.255  0.00  0.00    -0.199 F 
ATOM     25  C   UNL     1       8.827   1.615  21.961  0.00  0.00    +0.166 A 
ATOM     26  F   UNL     1       8.118   1.479  20.833  0.00  0.00    -0.202 F 
ENDBRANCH  17  18
ENDBRANCH   2  17
TORSDOF 5
ENDMDL
MODEL 6
REMARK VINA RESULT:      -7.4      2.946      3.956
REMARK  Name = 
REMARK  5 active torsions:
REMARK  status: ('A' for Active; 'I' for Inactive)
REMARK    1  A    between atoms: N_1  and  S_2
REMARK    2  A    between atoms: S_2  and  C_5
REMARK    3  A    between atoms: C_8  and  C_11
REMARK    4  A    between atoms: N_13  and  C_14
REMARK    5  A    between atoms: C_14  and  C_15
REMARK                            x       y       z     vdW  Elec       q    Type
REMARK                         _______ _______ _______ _____ _____    ______ ____
ROOT
ATOM      1  C   UNL     1       9.375  -2.248  23.013  0.00  0.00    +0.244 C 
ATOM      2  N   UNL     1       8.625  -1.300  22.343  0.00  0.00    -0.307 N 
ATOM      3  H   UNL     1       7.705  -1.080  22.699  0.00  0.00    +0.149 HD
ATOM      4  O   UNL     1      10.588  -2.362  22.891  0.00  0.00    -0.270 OA
ENDROOT
BRANCH   1   8
ATOM      5  C   UNL     1       7.173  -4.650  25.788  0.00  0.00    +0.105 A 
ATOM      6  C   UNL     1       6.907  -4.765  24.420  0.00  0.00    +0.029 A 
ATOM      7  C   UNL     1       7.633  -3.999  23.508  0.00  0.00    +0.015 A 
ATOM      8  C   UNL     1       8.623  -3.118  23.963  0.00  0.00    +0.037 A 
ATOM      9  C   UNL     1       8.920  -3.049  25.333  0.00  0.00    +0.015 A 
ATOM     10  C   UNL     1       8.192  -3.814  26.251  0.00  0.00    +0.029 A 
BRANCH   5  11
ATOM     11  S   UNL     1       6.170  -5.545  26.939  0.00  0.00    +0.056 S 
ATOM     12  O   UNL     1       5.406  -4.611  27.731  0.00  0.00    -0.153 OA
ATOM     13  O   UNL     1       5.571  -6.671  26.264  0.00  0.00    -0.153 OA
BRANCH  11  14
ATOM     14  N   UNL     1       7.326  -6.168  27.985  0.00  0.00    -0.204 NA
ATOM     15  H   UNL     1       6.922  -6.908  28.560  0.00  0.00    +0.144 HD
ATOM     16  H   UNL     1       8.147  -6.462  27.454  0.00  0.00    +0.144 HD
ENDBRANCH  11  14
ENDBRANCH   5  11
ENDBRANCH   1   8
BRANCH   2  17
ATOM     17  C   UNL     1       9.281  -0.310  21.517  0.00  0.00    +0.142 C 
BRANCH  17  18
ATOM     18  C   UNL     1       9.409   1.004  22.235  0.00  0.00    +0.008 A 
ATOM     19  C   UNL     1      10.466   1.239  23.129  0.00  0.00    +0.011 A 
ATOM     20  C   UNL     1      10.583   2.470  23.779  0.00  0.00    +0.042 A 
ATOM     21  C   UNL     1       9.654   3.476  23.529  0.00  0.00    +0.161 A 
ATOM     22  F   UNL     1       9.779   4.654  24.153  0.00  0.00    -0.202 F 
ATOM     23  C   UNL     1       8.612   3.264  22.640  0.00  0.00    +0.194 A 
ATOM     24  F   UNL     1       7.724   4.240  22.394  0.00  0.00    -0.199 F 
ATOM     25  C   UNL     1       8.492   2.036  21.996  0.00  0.00    +0.166 A 
ATOM     26  F   UNL     1       7.492   1.843  21.126  0.00  0.00    -0.202 F 
ENDBRANCH  17  18
ENDBRANCH   2  17
TORSDOF 5
ENDMDL
MODEL 7
REMARK VINA RESULT:      -7.3      1.649      2.234
REMARK  Name = 
REMARK  5 active torsions:
REMARK  status: ('A' for Active; 'I' for Inactive)
REMARK    1  A    between atoms: N_1  and  S_2
REMARK    2  A    between atoms: S_2  and  C_5
REMARK    3  A    between atoms: C_8  and  C_11
REMARK    4  A    between atoms: N_13  and  C_14
REMARK    5  A    between atoms: C_14  and  C_15
REMARK                            x       y       z     vdW  Elec       q    Type
REMARK                         _______ _______ _______ _____ _____    ______ ____
ROOT
ATOM      1  C   UNL     1       9.005  -4.215  24.460  0.00  0.00    +0.244 C 
ATOM      2  N   UNL     1       9.010  -3.026  23.756  0.00  0.00    -0.307 N 
ATOM      3  H   UNL     1       8.149  -2.498  23.705  0.00  0.00    +0.149 HD
ATOM      4  O   UNL     1      10.021  -4.764  24.868  0.00  0.00    -0.270 OA
ENDROOT
BRANCH   1   8
ATOM      5  C   UNL     1       5.172  -5.955  25.233  0.00  0.00    +0.105 A 
ATOM      6  C   UNL     1       6.087  -5.820  26.281  0.00  0.00    +0.029 A 
ATOM      7  C   UNL     1       7.332  -5.237  26.041  0.00  0.00    +0.015 A 
ATOM      8  C   UNL     1       7.661  -4.791  24.754  0.00  0.00    +0.037 A 
ATOM      9  C   UNL     1       6.716  -4.882  23.721  0.00  0.00    +0.015 A 
ATOM     10  C   UNL     1       5.468  -5.468  23.957  0.00  0.00    +0.029 A 
BRANCH   5  11
ATOM     11  S   UNL     1       3.642  -6.795  25.528  0.00  0.00    +0.056 S 
ATOM     12  O   UNL     1       2.563  -5.836  25.516  0.00  0.00    -0.153 OA
ATOM     13  O   UNL     1       3.616  -8.011  24.751  0.00  0.00    -0.153 OA
BRANCH  11  14
ATOM     14  N   UNL     1       3.809  -7.252  27.135  0.00  0.00    -0.204 NA
ATOM     15  H   UNL     1       4.408  -8.074  27.209  0.00  0.00    +0.144 HD
ATOM     16  H   UNL     1       4.133  -6.457  27.687  0.00  0.00    +0.144 HD
ENDBRANCH  11  14
ENDBRANCH   5  11
ENDBRANCH   1   8
BRANCH   2  17
ATOM     17  C   UNL     1      10.250  -2.309  23.553  0.00  0.00    +0.142 C 
BRANCH  17  18
ATOM     18  C   UNL     1      10.016  -0.829  23.447  0.00  0.00    +0.008 A 
ATOM     19  C   UNL     1      10.316   0.029  24.516  0.00  0.00    +0.011 A 
ATOM     20  C   UNL     1      10.109   1.406  24.399  0.00  0.00    +0.042 A 
ATOM     21  C   UNL     1       9.613   1.932  23.209  0.00  0.00    +0.161 A 
ATOM     22  F   UNL     1       9.424   3.254  23.105  0.00  0.00    -0.202 F 
ATOM     23  C   UNL     1       9.323   1.100  22.140  0.00  0.00    +0.194 A 
ATOM     24  F   UNL     1       8.856   1.612  20.991  0.00  0.00    -0.199 F 
ATOM     25  C   UNL     1       9.526  -0.272  22.258  0.00  0.00    +0.166 A 
ATOM     26  F   UNL     1       9.259  -1.069  21.215  0.00  0.00    -0.202 F 
ENDBRANCH  17  18
ENDBRANCH   2  17
TORSDOF 5
ENDMDL
MODEL 8
REMARK VINA RESULT:      -7.2      1.079      1.566
REMARK  Name = 
REMARK  5 active torsions:
REMARK  status: ('A' for Active; 'I' for Inactive)
REMARK    1  A    between atoms: N_1  and  S_2
REMARK    2  A    between atoms: S_2  and  C_5
REMARK    3  A    between atoms: C_8  and  C_11
REMARK    4  A    between atoms: N_13  and  C_14
REMARK    5  A    between atoms: C_14  and  C_15
REMARK                            x       y       z     vdW  Elec       q    Type
REMARK                         _______ _______ _______ _____ _____    ______ ____
ROOT
ATOM      1  C   UNL     1       8.968  -3.931  24.076  0.00  0.00    +0.244 C 
ATOM      2  N   UNL     1       9.006  -2.770  23.327  0.00  0.00    -0.307 N 
ATOM      3  H   UNL     1       8.128  -2.343  23.064  0.00  0.00    +0.149 HD
ATOM      4  O   UNL     1       9.920  -4.351  24.722  0.00  0.00    -0.270 OA
ENDROOT
BRANCH   1   8
ATOM      5  C   UNL     1       5.161  -5.882  24.218  0.00  0.00    +0.105 A 
ATOM      6  C   UNL     1       5.733  -5.583  22.977  0.00  0.00    +0.029 A 
ATOM      7  C   UNL     1       6.982  -4.964  22.922  0.00  0.00    +0.015 A 
ATOM      8  C   UNL     1       7.658  -4.643  24.107  0.00  0.00    +0.037 A 
ATOM      9  C   UNL     1       7.101  -4.995  25.346  0.00  0.00    +0.015 A 
ATOM     10  C   UNL     1       5.848  -5.613  25.405  0.00  0.00    +0.029 A 
BRANCH   5  11
ATOM     11  S   UNL     1       3.530  -6.566  24.273  0.00  0.00    +0.056 S 
ATOM     12  O   UNL     1       3.618  -7.985  24.527  0.00  0.00    -0.153 OA
ATOM     13  O   UNL     1       2.677  -5.687  25.035  0.00  0.00    -0.153 OA
BRANCH  11  14
ATOM     14  N   UNL     1       3.051  -6.434  22.669  0.00  0.00    -0.204 NA
ATOM     15  H   UNL     1       3.098  -5.462  22.364  0.00  0.00    +0.144 HD
ATOM     16  H   UNL     1       3.601  -7.072  22.092  0.00  0.00    +0.144 HD
ENDBRANCH  11  14
ENDBRANCH   5  11
ENDBRANCH   1   8
BRANCH   2  17
ATOM     17  C   UNL     1      10.181  -1.927  23.356  0.00  0.00    +0.142 C 
BRANCH  17  18
ATOM     18  C   UNL     1       9.823  -0.482  23.160  0.00  0.00    +0.008 A 
ATOM     19  C   UNL     1       9.698   0.064  21.873  0.00  0.00    +0.011 A 
ATOM     20  C   UNL     1       9.349   1.406  21.703  0.00  0.00    +0.042 A 
ATOM     21  C   UNL     1       9.109   2.205  22.818  0.00  0.00    +0.161 A 
ATOM     22  F   UNL     1       8.770   3.489  22.644  0.00  0.00    -0.202 F 
ATOM     23  C   UNL     1       9.216   1.679  24.095  0.00  0.00    +0.194 A 
ATOM     24  F   UNL     1       8.974   2.449  25.167  0.00  0.00    -0.199 F 
ATOM     25  C   UNL     1       9.569   0.343  24.264  0.00  0.00    +0.166 A 
ATOM     26  F   UNL     1       9.654  -0.164  25.501  0.00  0.00    -0.202 F 
ENDBRANCH  17  18
ENDBRANCH   2  17
TORSDOF 5
ENDMDL
MODEL 9
REMARK VINA RESULT:      -7.1      5.352      8.550
REMARK  Name = 
REMARK  5 active torsions:
REMARK  status: ('A' for Active; 'I' for Inactive)
REMARK    1  A    between atoms: N_1  and  S_2
REMARK    2  A    between atoms: S_2  and  C_5
REMARK    3  A    between atoms: C_8  and  C_11
REMARK    4  A    between atoms: N_13  and  C_14
REMARK    5  A    between atoms: C_14  and  C_15
REMARK                            x       y       z     vdW  Elec       q    Type
REMARK                         _______ _______ _______ _____ _____    ______ ____
ROOT
ATOM      1  C   UNL     1      10.017  -1.545  23.448  0.00  0.00    +0.244 C 
ATOM      2  N   UNL     1       9.473  -2.295  24.473  0.00  0.00    -0.307 N 
ATOM      3  H   UNL     1       8.761  -1.869  25.050  0.00  0.00    +0.149 HD
ATOM      4  O   UNL     1      10.622  -2.032  22.501  0.00  0.00    -0.270 OA
ENDROOT
BRANCH   1   8
ATOM      5  C   UNL     1       9.417   2.683  23.740  0.00  0.00    +0.105 A 
ATOM      6  C   UNL     1       9.865   2.135  22.534  0.00  0.00    +0.029 A 
ATOM      7  C   UNL     1      10.045   0.756  22.424  0.00  0.00    +0.015 A 
ATOM      8  C   UNL     1       9.779  -0.075  23.521  0.00  0.00    +0.037 A 
ATOM      9  C   UNL     1       9.279   0.477  24.710  0.00  0.00    +0.015 A 
ATOM     10  C   UNL     1       9.099   1.860  24.825  0.00  0.00    +0.029 A 
BRANCH   5  11
ATOM     11  S   UNL     1       9.298   4.441  23.898  0.00  0.00    +0.056 S 
ATOM     12  O   UNL     1       8.542   4.762  25.085  0.00  0.00    -0.153 OA
ATOM     13  O   UNL     1      10.585   5.027  23.607  0.00  0.00    -0.153 OA
BRANCH  11  14
ATOM     14  N   UNL     1       8.289   4.831  22.613  0.00  0.00    -0.204 NA
ATOM     15  H   UNL     1       8.313   5.835  22.436  0.00  0.00    +0.144 HD
ATOM     16  H   UNL     1       8.533   4.263  21.800  0.00  0.00    +0.144 HD
ENDBRANCH  11  14
ENDBRANCH   5  11
ENDBRANCH   1   8
BRANCH   2  17
ATOM     17  C   UNL     1       9.515  -3.740  24.415  0.00  0.00    +0.142 C 
BRANCH  17  18
ATOM     18  C   UNL     1       8.134  -4.329  24.431  0.00  0.00    +0.008 A 
ATOM     19  C   UNL     1       7.608  -4.911  25.596  0.00  0.00    +0.011 A 
ATOM     20  C   UNL     1       6.316  -5.441  25.603  0.00  0.00    +0.042 A 
ATOM     21  C   UNL     1       5.538  -5.381  24.450  0.00  0.00    +0.161 A 
ATOM     22  F   UNL     1       4.298  -5.888  24.468  0.00  0.00    -0.202 F 
ATOM     23  C   UNL     1       6.037  -4.800  23.295  0.00  0.00    +0.194 A 
ATOM     24  F   UNL     1       5.280  -4.735  22.189  0.00  0.00    -0.199 F 
ATOM     25  C   UNL     1       7.326  -4.275  23.287  0.00  0.00    +0.166 A 
ATOM     26  F   UNL     1       7.796  -3.700  22.172  0.00  0.00    -0.202 F 
ENDBRANCH  17  18
ENDBRANCH   2  17
TORSDOF 5
ENDMDL
