MODEL 1
REMARK VINA RESULT:      -5.7      0.000      0.000
REMARK  Name = 
REMARK  5 active torsions:
REMARK  status: ('A' for Active; 'I' for Inactive)
REMARK    1  A    between atoms: C_2  and  O_3
REMARK    2  A    between atoms: C_2  and  C_4
REMARK    3  A    between atoms: C_2  and  C_8
REMARK    4  A    between atoms: C_4  and  N_5
REMARK    5  A    between atoms: C_11  and  N_14
REMARK                            x       y       z     vdW  Elec       q    Type
REMARK                         _______ _______ _______ _____ _____    ______ ____
ROOT
ATOM      1  C   UNL     1       9.801  -0.471  22.936  0.00  0.00    -0.017 A 
ATOM      2  C   UNL     1       9.697   0.436  21.867  0.00  0.00    +0.013 A 
ATOM      3  C   UNL     1       9.999   1.788  22.044  0.00  0.00    +0.084 A 
ATOM      4  C   UNL     1      10.421   2.244  23.296  0.00  0.00    +0.273 A 
ATOM      5  C   UNL     1      10.568   1.351  24.363  0.00  0.00    +0.084 A 
ATOM      6  C   UNL     1      10.269  -0.000  24.175  0.00  0.00    +0.013 A 
ENDROOT
BRANCH   4   7
ATOM      7  N   UNL     1      10.711   3.668  23.500  0.00  0.00    +0.080 N 
ATOM      8  O   UNL     1       9.792   4.394  23.899  0.00  0.00    +0.041 OA
ATOM      9  O   UNL     1      11.868   4.057  23.274  0.00  0.00    -0.576 OA
ENDBRANCH   4   7
BRANCH   1  10
ATOM     10  C   UNL     1       9.457  -1.930  22.709  0.00  0.00    +0.173 C 
BRANCH  10  11
ATOM     11  O   UNL     1      10.552  -2.691  23.215  0.00  0.00    -0.385 OA
ATOM     12  H   UNL     1      10.721  -2.406  24.128  0.00  0.00    +0.210 HD
ENDBRANCH  10  11
BRANCH  10  13
ATOM     13  C   UNL     1       8.110  -2.371  23.328  0.00  0.00    +0.270 C 
BRANCH  13  14
ATOM     14  N   UNL     1       7.897  -3.816  23.134  0.00  0.00    +0.079 NA
ATOM     15  N   UNL     1       8.570  -4.564  23.866  0.00  0.00    -0.015 NA
ATOM     16  N   UNL     1       9.192  -5.238  24.541  0.00  0.00    -0.328 NA
ENDBRANCH  13  14
ENDBRANCH  10  13
ENDBRANCH   1  10
TORSDOF 5
ENDMDL
MODEL 2
REMARK VINA RESULT:      -5.3      2.832      3.431
REMARK  Name = 
REMARK  5 active torsions:
REMARK  status: ('A' for Active; 'I' for Inactive)
REMARK    1  A    between atoms: C_2  and  O_3
REMARK    2  A    between atoms: C_2  and  C_4
REMARK    3  A    between atoms: C_2  and  C_8
REMARK    4  A    between atoms: C_4  and  N_5
REMARK    5  A    between atoms: C_11  and  N_14
REMARK                            x       y       z     vdW  Elec       q    Type
REMARK                         _______ _______ _______ _____ _____    ______ ____
ROOT
ATOM      1  C   UNL     1       9.256  -2.916  24.808  0.00  0.00    -0.017 A 
ATOM      2  C   UNL     1       9.991  -2.597  23.653  0.00  0.00    +0.013 A 
ATOM      3  C   UNL     1      10.197  -1.267  23.281  0.00  0.00    +0.084 A 
ATOM      4  C   UNL     1       9.677  -0.239  24.071  0.00  0.00    +0.273 A 
ATOM      5  C   UNL     1       8.975  -0.534  25.245  0.00  0.00    +0.084 A 
ATOM      6  C   UNL     1       8.778  -1.867  25.613  0.00  0.00    +0.013 A 
ENDROOT
BRANCH   4   7
ATOM      7  N   UNL     1       9.862   1.161  23.673  0.00  0.00    +0.080 N 
ATOM      8  O   UNL     1       9.742   2.031  24.545  0.00  0.00    +0.041 OA
ATOM      9  O   UNL     1      10.144   1.389  22.486  0.00  0.00    -0.576 OA
ENDBRANCH   4   7
BRANCH   1  10
ATOM     10  C   UNL     1       9.045  -4.371  25.177  0.00  0.00    +0.173 C 
BRANCH  10  11
ATOM     11  O   UNL     1      10.287  -5.035  24.946  0.00  0.00    -0.385 OA
ATOM     12  H   UNL     1      10.127  -5.992  24.976  0.00  0.00    +0.210 HD
ENDBRANCH  10  11
BRANCH  10  13
ATOM     13  C   UNL     1       8.527  -4.595  26.616  0.00  0.00    +0.270 C 
BRANCH  13  14
ATOM     14  N   UNL     1       7.576  -5.720  26.658  0.00  0.00    +0.079 NA
ATOM     15  N   UNL     1       7.159  -6.033  27.787  0.00  0.00    -0.015 NA
ATOM     16  N   UNL     1       6.785  -6.311  28.827  0.00  0.00    -0.328 NA
ENDBRANCH  13  14
ENDBRANCH  10  13
ENDBRANCH   1  10
TORSDOF 5
ENDMDL
MODEL 3
REMARK VINA RESULT:      -5.2      2.203      5.910
REMARK  Name = 
REMARK  5 active torsions:
REMARK  status: ('A' for Active; 'I' for Inactive)
REMARK    1  A    between atoms: C_2  and  O_3
REMARK    2  A    between atoms: C_2  and  C_4
REMARK    3  A    between atoms: C_2  and  C_8
REMARK    4  A    between atoms: C_4  and  N_5
REMARK    5  A    between atoms: C_11  and  N_14
REMARK                            x       y       z     vdW  Elec       q    Type
REMARK                         _______ _______ _______ _____ _____    ______ ____
ROOT
ATOM      1  C   UNL     1      10.001   0.700  23.285  0.00  0.00    -0.017 A 
ATOM      2  C   UNL     1       9.681   0.401  24.621  0.00  0.00    +0.013 A 
ATOM      3  C   UNL     1       9.442  -0.916  25.023  0.00  0.00    +0.084 A 
ATOM      4  C   UNL     1       9.532  -1.950  24.088  0.00  0.00    +0.273 A 
ATOM      5  C   UNL     1       9.887  -1.678  22.762  0.00  0.00    +0.084 A 
ATOM      6  C   UNL     1      10.130  -0.360  22.371  0.00  0.00    +0.013 A 
ENDROOT
BRANCH   4   7
ATOM      7  N   UNL     1       9.253  -3.333  24.493  0.00  0.00    +0.080 N 
ATOM      8  O   UNL     1      10.193  -4.138  24.485  0.00  0.00    +0.041 OA
ATOM      9  O   UNL     1       8.093  -3.609  24.834  0.00  0.00    -0.576 OA
ENDBRANCH   4   7
BRANCH   1  10
ATOM     10  C   UNL     1      10.245   2.141  22.885  0.00  0.00    +0.173 C 
BRANCH  10  11
ATOM     11  O   UNL     1       9.950   2.233  21.492  0.00  0.00    -0.385 OA
ATOM     12  H   UNL     1       9.739   1.342  21.169  0.00  0.00    +0.210 HD
ENDBRANCH  10  11
BRANCH  10  13
ATOM     13  C   UNL     1       9.451   3.177  23.714  0.00  0.00    +0.270 C 
BRANCH  13  14
ATOM     14  N   UNL     1       8.365   3.764  22.910  0.00  0.00    +0.079 NA
ATOM     15  N   UNL     1       7.469   2.978  22.555  0.00  0.00    -0.015 NA
ATOM     16  N   UNL     1       6.656   2.248  22.235  0.00  0.00    -0.328 NA
ENDBRANCH  13  14
ENDBRANCH  10  13
ENDBRANCH   1  10
TORSDOF 5
ENDMDL
MODEL 4
REMARK VINA RESULT:      -5.2      2.319      2.885
REMARK  Name = 
REMARK  5 active torsions:
REMARK  status: ('A' for Active; 'I' for Inactive)
REMARK    1  A    between atoms: C_2  and  O_3
REMARK    2  A    between atoms: C_2  and  C_4
REMARK    3  A    between atoms: C_2  and  C_8
REMARK    4  A    between atoms: C_4  and  N_5
REMARK    5  A    between atoms: C_11  and  N_14
REMARK                            x       y       z     vdW  Elec       q    Type
REMARK                         _______ _______ _______ _____ _____    ______ ____
ROOT
ATOM      1  C   UNL     1       8.563  -2.863  23.534  0.00  0.00    -0.017 A 
ATOM      2  C   UNL     1       8.553  -2.243  22.272  0.00  0.00    +0.013 A 
ATOM      3  C   UNL     1       9.105  -0.973  22.094  0.00  0.00    +0.084 A 
ATOM      4  C   UNL     1       9.686  -0.313  23.181  0.00  0.00    +0.273 A 
ATOM      5  C   UNL     1       9.740  -0.928  24.436  0.00  0.00    +0.084 A 
ATOM      6  C   UNL     1       9.191  -2.201  24.604  0.00  0.00    +0.013 A 
ENDROOT
BRANCH   4   7
ATOM      7  N   UNL     1      10.241   1.035  23.011  0.00  0.00    +0.080 N 
ATOM      8  O   UNL     1      10.128   1.571  21.901  0.00  0.00    +0.041 OA
ATOM      9  O   UNL     1      10.780   1.563  23.996  0.00  0.00    -0.576 OA
ENDBRANCH   4   7
BRANCH   1  10
ATOM     10  C   UNL     1       7.947  -4.239  23.691  0.00  0.00    +0.173 C 
BRANCH  10  11
ATOM     11  O   UNL     1       8.955  -5.075  24.258  0.00  0.00    -0.385 OA
ATOM     12  H   UNL     1       8.954  -4.939  25.220  0.00  0.00    +0.210 HD
ENDBRANCH  10  11
BRANCH  10  13
ATOM     13  C   UNL     1       6.643  -4.262  24.521  0.00  0.00    +0.270 C 
BRANCH  13  14
ATOM     14  N   UNL     1       6.517  -5.532  25.258  0.00  0.00    +0.079 NA
ATOM     15  N   UNL     1       7.144  -5.597  26.331  0.00  0.00    -0.015 NA
ATOM     16  N   UNL     1       7.722  -5.645  27.310  0.00  0.00    -0.328 NA
ENDBRANCH  13  14
ENDBRANCH  10  13
ENDBRANCH   1  10
TORSDOF 5
ENDMDL
MODEL 5
REMARK VINA RESULT:      -5.0      1.707      6.363
REMARK  Name = 
REMARK  5 active torsions:
REMARK  status: ('A' for Active; 'I' for Inactive)
REMARK    1  A    between atoms: C_2  and  O_3
REMARK    2  A    between atoms: C_2  and  C_4
REMARK    3  A    between atoms: C_2  and  C_8
REMARK    4  A    between atoms: C_4  and  N_5
REMARK    5  A    between atoms: C_11  and  N_14
REMARK                            x       y       z     vdW  Elec       q    Type
REMARK                         _______ _______ _______ _____ _____    ______ ____
ROOT
ATOM      1  C   UNL     1       9.673   0.488  22.925  0.00  0.00    -0.017 A 
ATOM      2  C   UNL     1       9.750  -0.363  21.808  0.00  0.00    +0.013 A 
ATOM      3  C   UNL     1       9.226  -1.656  21.856  0.00  0.00    +0.084 A 
ATOM      4  C   UNL     1       8.607  -2.108  23.025  0.00  0.00    +0.273 A 
ATOM      5  C   UNL     1       8.486  -1.264  24.135  0.00  0.00    +0.084 A 
ATOM      6  C   UNL     1       9.008   0.030  24.075  0.00  0.00    +0.013 A 
ENDROOT
BRANCH   4   7
ATOM      7  N   UNL     1       8.079  -3.476  23.096  0.00  0.00    +0.080 N 
ATOM      8  O   UNL     1       7.062  -3.737  22.442  0.00  0.00    +0.041 OA
ATOM      9  O   UNL     1       8.695  -4.293  23.798  0.00  0.00    -0.576 OA
ENDBRANCH   4   7
BRANCH   1  10
ATOM     10  C   UNL     1      10.261   1.883  22.839  0.00  0.00    +0.173 C 
BRANCH  10  11
ATOM     11  O   UNL     1       9.943   2.380  21.539  0.00  0.00    -0.385 OA
ATOM     12  H   UNL     1      10.776   2.580  21.081  0.00  0.00    +0.210 HD
ENDBRANCH  10  11
BRANCH  10  13
ATOM     13  C   UNL     1       9.791   2.843  23.956  0.00  0.00    +0.270 C 
BRANCH  13  14
ATOM     14  N   UNL     1      10.143   4.236  23.628  0.00  0.00    +0.079 NA
ATOM     15  N   UNL     1      11.355   4.463  23.466  0.00  0.00    -0.015 NA
ATOM     16  N   UNL     1      12.468   4.658  23.320  0.00  0.00    -0.328 NA
ENDBRANCH  13  14
ENDBRANCH  10  13
ENDBRANCH   1  10
TORSDOF 5
ENDMDL
MODEL 6
REMARK VINA RESULT:      -5.0      3.401      4.281
REMARK  Name = 
REMARK  5 active torsions:
REMARK  status: ('A' for Active; 'I' for Inactive)
REMARK    1  A    between atoms: C_2  and  O_3
REMARK    2  A    between atoms: C_2  and  C_4
REMARK    3  A    between atoms: C_2  and  C_8
REMARK    4  A    between atoms: C_4  and  N_5
REMARK    5  A    between atoms: C_11  and  N_14
REMARK                            x       y       z     vdW  Elec       q    Type
REMARK                         _______ _______ _______ _____ _____    ______ ____
ROOT
ATOM      1  C   UNL     1       8.232  -2.611  25.925  0.00  0.00    -0.017 A 
ATOM      2  C   UNL     1       8.436  -1.332  26.470  0.00  0.00    +0.013 A 
ATOM      3  C   UNL     1       9.180  -0.370  25.783  0.00  0.00    +0.084 A 
ATOM      4  C   UNL     1       9.721  -0.680  24.532  0.00  0.00    +0.273 A 
ATOM      5  C   UNL     1       9.498  -1.935  23.954  0.00  0.00    +0.084 A 
ATOM      6  C   UNL     1       8.747  -2.888  24.647  0.00  0.00    +0.013 A 
ENDROOT
BRANCH   4   7
ATOM      7  N   UNL     1      10.530   0.312  23.815  0.00  0.00    +0.080 N 
ATOM      8  O   UNL     1      11.414   0.903  24.448  0.00  0.00    +0.041 OA
ATOM      9  O   UNL     1      10.289   0.489  22.611  0.00  0.00    -0.576 OA
ENDBRANCH   4   7
BRANCH   1  10
ATOM     10  C   UNL     1       7.426  -3.632  26.704  0.00  0.00    +0.173 C 
BRANCH  10  11
ATOM     11  O   UNL     1       6.170  -3.755  26.037  0.00  0.00    -0.385 OA
ATOM     12  H   UNL     1       5.581  -3.058  26.371  0.00  0.00    +0.210 HD
ENDBRANCH  10  11
BRANCH  10  13
ATOM     13  C   UNL     1       8.126  -4.999  26.878  0.00  0.00    +0.270 C 
BRANCH  13  14
ATOM     14  N   UNL     1       7.318  -5.893  27.727  0.00  0.00    +0.079 NA
ATOM     15  N   UNL     1       6.284  -6.344  27.206  0.00  0.00    -0.015 NA
ATOM     16  N   UNL     1       5.338  -6.750  26.718  0.00  0.00    -0.328 NA
ENDBRANCH  13  14
ENDBRANCH  10  13
ENDBRANCH   1  10
TORSDOF 5
ENDMDL
MODEL 7
REMARK VINA RESULT:      -4.9      1.657      1.964
REMARK  Name = 
REMARK  5 active torsions:
REMARK  status: ('A' for Active; 'I' for Inactive)
REMARK    1  A    between atoms: C_2  and  O_3
REMARK    2  A    between atoms: C_2  and  C_4
REMARK    3  A    between atoms: C_2  and  C_8
REMARK    4  A    between atoms: C_4  and  N_5
REMARK    5  A    between atoms: C_11  and  N_14
REMARK                            x       y       z     vdW  Elec       q    Type
REMARK                         _______ _______ _______ _____ _____    ______ ____
ROOT
ATOM      1  C   UNL     1       8.774  -0.846  22.791  0.00  0.00    -0.017 A 
ATOM      2  C   UNL     1       9.257  -0.076  21.718  0.00  0.00    +0.013 A 
ATOM      3  C   UNL     1       9.036   1.302  21.669  0.00  0.00    +0.084 A 
ATOM      4  C   UNL     1       8.337   1.927  22.705  0.00  0.00    +0.273 A 
ATOM      5  C   UNL     1       7.882   1.185  23.801  0.00  0.00    +0.084 A 
ATOM      6  C   UNL     1       8.112  -0.191  23.844  0.00  0.00    +0.013 A 
ENDROOT
BRANCH   4   7
ATOM      7  N   UNL     1       8.073   3.370  22.649  0.00  0.00    +0.080 N 
ATOM      8  O   UNL     1       8.799   4.116  23.319  0.00  0.00    +0.041 OA
ATOM      9  O   UNL     1       7.147   3.757  21.921  0.00  0.00    -0.576 OA
ENDBRANCH   4   7
BRANCH   1  10
ATOM     10  C   UNL     1       9.026  -2.341  22.805  0.00  0.00    +0.173 C 
BRANCH  10  11
ATOM     11  O   UNL     1      10.336  -2.529  23.338  0.00  0.00    -0.385 OA
ATOM     12  H   UNL     1      10.731  -1.653  23.483  0.00  0.00    +0.210 HD
ENDBRANCH  10  11
BRANCH  10  13
ATOM     13  C   UNL     1       7.964  -3.158  23.578  0.00  0.00    +0.270 C 
BRANCH  13  14
ATOM     14  N   UNL     1       8.352  -4.578  23.649  0.00  0.00    +0.079 NA
ATOM     15  N   UNL     1       9.249  -4.852  24.465  0.00  0.00    -0.015 NA
ATOM     16  N   UNL     1      10.073  -5.091  25.215  0.00  0.00    -0.328 NA
ENDBRANCH  13  14
ENDBRANCH  10  13
ENDBRANCH   1  10
TORSDOF 5
ENDMDL
MODEL 8
REMARK VINA RESULT:      -4.9      3.281      6.701
REMARK  Name = 
REMARK  5 active torsions:
REMARK  status: ('A' for Active; 'I' for Inactive)
REMARK    1  A    between atoms: C_2  and  O_3
REMARK    2  A    between atoms: C_2  and  C_4
REMARK    3  A    between atoms: C_2  and  C_8
REMARK    4  A    between atoms: C_4  and  N_5
REMARK    5  A    between atoms: C_11  and  N_14
REMARK                            x       y       z     vdW  Elec       q    Type
REMARK                         _______ _______ _______ _____ _____    ______ ____
ROOT
ATOM      1  C   UNL     1       8.735  -2.637  23.249  0.00  0.00    -0.017 A 
ATOM      2  C   UNL     1       8.643  -3.800  24.033  0.00  0.00    +0.013 A 
ATOM      3  C   UNL     1       7.449  -4.522  24.106  0.00  0.00    +0.084 A 
ATOM      4  C   UNL     1       6.335  -4.090  23.382  0.00  0.00    +0.273 A 
ATOM      5  C   UNL     1       6.417  -2.957  22.566  0.00  0.00    +0.084 A 
ATOM      6  C   UNL     1       7.616  -2.245  22.494  0.00  0.00    +0.013 A 
ENDROOT
BRANCH   4   7
ATOM      7  N   UNL     1       5.068  -4.824  23.476  0.00  0.00    +0.080 N 
ATOM      8  O   UNL     1       4.204  -4.598  22.619  0.00  0.00    +0.041 OA
ATOM      9  O   UNL     1       4.943  -5.640  24.402  0.00  0.00    -0.576 OA
ENDBRANCH   4   7
BRANCH   1  10
ATOM     10  C   UNL     1      10.044  -1.875  23.200  0.00  0.00    +0.173 C 
BRANCH  10  11
ATOM     11  O   UNL     1      10.381  -1.730  21.821  0.00  0.00    -0.385 OA
ATOM     12  H   UNL     1       9.778  -2.288  21.303  0.00  0.00    +0.210 HD
ENDBRANCH  10  11
BRANCH  10  13
ATOM     13  C   UNL     1      10.018  -0.516  23.936  0.00  0.00    +0.270 C 
BRANCH  13  14
ATOM     14  N   UNL     1      10.412   0.576  23.027  0.00  0.00    +0.079 NA
ATOM     15  N   UNL     1       9.566   0.902  22.176  0.00  0.00    -0.015 NA
ATOM     16  N   UNL     1       8.784   1.190  21.400  0.00  0.00    -0.328 NA
ENDBRANCH  13  14
ENDBRANCH  10  13
ENDBRANCH   1  10
TORSDOF 5
ENDMDL
MODEL 9
REMARK VINA RESULT:      -4.6      2.799      3.543
REMARK  Name = 
REMARK  5 active torsions:
REMARK  status: ('A' for Active; 'I' for Inactive)
REMARK    1  A    between atoms: C_2  and  O_3
REMARK    2  A    between atoms: C_2  and  C_4
REMARK    3  A    between atoms: C_2  and  C_8
REMARK    4  A    between atoms: C_4  and  N_5
REMARK    5  A    between atoms: C_11  and  N_14
REMARK                            x       y       z     vdW  Elec       q    Type
REMARK                         _______ _______ _______ _____ _____    ______ ____
ROOT
ATOM      1  C   UNL     1       8.095  -2.617  23.210  0.00  0.00    -0.017 A 
ATOM      2  C   UNL     1       9.174  -2.686  24.109  0.00  0.00    +0.013 A 
ATOM      3  C   UNL     1       9.847  -1.529  24.510  0.00  0.00    +0.084 A 
ATOM      4  C   UNL     1       9.436  -0.286  24.021  0.00  0.00    +0.273 A 
ATOM      5  C   UNL     1       8.341  -0.192  23.155  0.00  0.00    +0.084 A 
ATOM      6  C   UNL     1       7.670  -1.353  22.764  0.00  0.00    +0.013 A 
ENDROOT
BRANCH   4   7
ATOM      7  N   UNL     1      10.155   0.932  24.412  0.00  0.00    +0.080 N 
ATOM      8  O   UNL     1       9.496   1.968  24.565  0.00  0.00    +0.041 OA
ATOM      9  O   UNL     1      11.382   0.846  24.581  0.00  0.00    -0.576 OA
ENDBRANCH   4   7
BRANCH   1  10
ATOM     10  C   UNL     1       7.394  -3.894  22.790  0.00  0.00    +0.173 C 
BRANCH  10  11
ATOM     11  O   UNL     1       6.835  -4.460  23.975  0.00  0.00    -0.385 OA
ATOM     12  H   UNL     1       5.926  -4.130  24.067  0.00  0.00    +0.210 HD
ENDBRANCH  10  11
BRANCH  10  13
ATOM     13  C   UNL     1       6.332  -3.704  21.683  0.00  0.00    +0.270 C 
BRANCH  13  14
ATOM     14  N   UNL     1       5.475  -4.897  21.574  0.00  0.00    +0.079 NA
ATOM     15  N   UNL     1       4.531  -4.959  22.381  0.00  0.00    -0.015 NA
ATOM     16  N   UNL     1       3.671  -5.005  23.127  0.00  0.00    -0.328 NA
ENDBRANCH  13  14
ENDBRANCH  10  13
ENDBRANCH   1  10
TORSDOF 5
ENDMDL
