MODEL 1
REMARK VINA RESULT:      -6.7      0.000      0.000
REMARK  Name = 
REMARK  11 active torsions:
REMARK  status: ('A' for Active; 'I' for Inactive)
REMARK    1  A    between atoms: C_1  and  C_2
REMARK    2  A    between atoms: C_2  and  O_3
REMARK    3  A    between atoms: O_3  and  C_4
REMARK    4  A    between atoms: C_6  and  C_12
REMARK    5  A    between atoms: C_9  and  C_10
REMARK    6  A    between atoms: N_14  and  C_15
REMARK    7  A    between atoms: C_15  and  C_16
REMARK    8  A    between atoms: C_18  and  O_19
REMARK    9  A    between atoms: O_19  and  C_20
REMARK   10  A    between atoms: C_23  and  O_24
REMARK   11  A    between atoms: O_24  and  C_25
REMARK                            x       y       z     vdW  Elec       q    Type
REMARK                         _______ _______ _______ _____ _____    ______ ____
ROOT
ATOM      1  C   UNL     1       9.777  -1.845  23.721  0.00  0.00    +0.263 C 
ATOM      2  N   UNL     1       9.982  -0.694  24.456  0.00  0.00    -0.306 N 
ATOM      3  H   UNL     1       9.341  -0.519  25.223  0.00  0.00    +0.149 HD
ATOM      4  O   UNL     1      10.293  -2.059  22.628  0.00  0.00    -0.269 OA
ENDROOT
BRANCH   1   9
ATOM      5  C   UNL     1       7.462  -4.668  24.126  0.00  0.00    +0.233 A 
ATOM      6  C   UNL     1       7.261  -4.738  25.505  0.00  0.00    +0.113 A 
ATOM      7  C   UNL     1       7.960  -3.837  26.316  0.00  0.00    +0.026 A 
ATOM      8  C   UNL     1       8.810  -2.905  25.730  0.00  0.00    +0.034 A 
ATOM      9  C   UNL     1       8.905  -2.881  24.345  0.00  0.00    +0.129 A 
ATOM     10  N   UNL     1       8.239  -3.730  23.522  0.00  0.00    -0.207 NA
BRANCH   6  11
ATOM     11  C   UNL     1       6.393  -5.699  26.106  0.00  0.00    +0.104 C 
ATOM     12  N   UNL     1       5.700  -6.450  26.654  0.00  0.00    -0.191 NA
ENDBRANCH   6  11
BRANCH   5  13
ATOM     13  O   UNL     1       6.802  -5.578  23.326  0.00  0.00    -0.476 OA
BRANCH  13  15
ATOM     14  C   UNL     1       6.135  -5.809  21.032  0.00  0.00    +0.048 C 
ATOM     15  C   UNL     1       7.298  -5.578  21.981  0.00  0.00    +0.227 C 
ENDBRANCH  13  15
ENDBRANCH   5  13
ENDBRANCH   1   9
BRANCH   2  16
ATOM     16  C   UNL     1      10.789   0.377  23.905  0.00  0.00    +0.143 C 
BRANCH  16  17
ATOM     17  C   UNL     1      10.159   1.747  23.812  0.00  0.00    +0.015 A 
ATOM     18  C   UNL     1       8.766   1.957  23.887  0.00  0.00    +0.125 A 
ATOM     19  C   UNL     1       8.263   3.270  23.838  0.00  0.00    +0.049 A 
ATOM     20  C   UNL     1       9.107   4.373  23.729  0.00  0.00    +0.049 A 
ATOM     21  C   UNL     1      10.478   4.188  23.642  0.00  0.00    +0.121 A 
ATOM     22  C   UNL     1      10.989   2.887  23.660  0.00  0.00    +0.054 A 
BRANCH  18  23
ATOM     23  O   UNL     1       7.736   1.068  24.024  0.00  0.00    -0.495 OA
ATOM     24  C   UNL     1       6.986   0.590  22.925  0.00  0.00    +0.277 C 
ENDBRANCH  18  23
BRANCH  21  25
ATOM     25  O   UNL     1      11.211   5.339  23.561  0.00  0.00    -0.495 OA
ATOM     26  C   UNL     1      12.594   5.202  23.258  0.00  0.00    +0.277 C 
ENDBRANCH  21  25
ENDBRANCH  16  17
ENDBRANCH   2  16
TORSDOF 8
ENDMDL
MODEL 2
REMARK VINA RESULT:      -6.5      1.372      2.260
REMARK  Name = 
REMARK  11 active torsions:
REMARK  status: ('A' for Active; 'I' for Inactive)
REMARK    1  A    between atoms: C_1  and  C_2
REMARK    2  A    between atoms: C_2  and  O_3
REMARK    3  A    between atoms: O_3  and  C_4
REMARK    4  A    between atoms: C_6  and  C_12
REMARK    5  A    between atoms: C_9  and  C_10
REMARK    6  A    between atoms: N_14  and  C_15
REMARK    7  A    between atoms: C_15  and  C_16
REMARK    8  A    between atoms: C_18  and  O_19
REMARK    9  A    between atoms: O_19  and  C_20
REMARK   10  A    between atoms: C_23  and  O_24
REMARK   11  A    between atoms: O_24  and  C_25
REMARK                            x       y       z     vdW  Elec       q    Type
REMARK                         _______ _______ _______ _____ _____    ______ ____
ROOT
ATOM      1  C   UNL     1       9.861  -1.621  23.147  0.00  0.00    +0.263 C 
ATOM      2  N   UNL     1       9.768  -0.529  23.987  0.00  0.00    -0.306 N 
ATOM      3  H   UNL     1       8.881  -0.389  24.461  0.00  0.00    +0.149 HD
ATOM      4  O   UNL     1      10.757  -1.775  22.322  0.00  0.00    -0.269 OA
ENDROOT
BRANCH   1   9
ATOM      5  C   UNL     1       8.036  -4.556  24.393  0.00  0.00    +0.233 A 
ATOM      6  C   UNL     1       6.918  -4.630  23.560  0.00  0.00    +0.113 A 
ATOM      7  C   UNL     1       6.759  -3.638  22.586  0.00  0.00    +0.026 A 
ATOM      8  C   UNL     1       7.712  -2.633  22.470  0.00  0.00    +0.034 A 
ATOM      9  C   UNL     1       8.816  -2.672  23.312  0.00  0.00    +0.129 A 
ATOM     10  N   UNL     1       9.014  -3.620  24.264  0.00  0.00    -0.207 NA
BRANCH   6  11
ATOM     11  C   UNL     1       5.937  -5.660  23.684  0.00  0.00    +0.104 C 
ATOM     12  N   UNL     1       5.094  -6.452  23.762  0.00  0.00    -0.191 NA
ENDBRANCH   6  11
BRANCH   5  13
ATOM     13  O   UNL     1       8.178  -5.511  25.378  0.00  0.00    -0.476 OA
BRANCH  13  15
ATOM     14  C   UNL     1       6.851  -5.346  27.370  0.00  0.00    +0.048 C 
ATOM     15  C   UNL     1       8.149  -4.943  26.693  0.00  0.00    +0.227 C 
ENDBRANCH  13  15
ENDBRANCH   5  13
ENDBRANCH   1   9
BRANCH   2  16
ATOM     16  C   UNL     1      10.725   0.553  23.868  0.00  0.00    +0.143 C 
BRANCH  16  17
ATOM     17  C   UNL     1      10.202   1.964  24.009  0.00  0.00    +0.015 A 
ATOM     18  C   UNL     1       8.964   2.266  24.616  0.00  0.00    +0.125 A 
ATOM     19  C   UNL     1       8.572   3.610  24.749  0.00  0.00    +0.049 A 
ATOM     20  C   UNL     1       9.381   4.656  24.308  0.00  0.00    +0.049 A 
ATOM     21  C   UNL     1      10.596   4.380  23.700  0.00  0.00    +0.121 A 
ATOM     22  C   UNL     1      10.984   3.048  23.534  0.00  0.00    +0.054 A 
BRANCH  18  23
ATOM     23  O   UNL     1       8.011   1.446  25.152  0.00  0.00    -0.495 OA
ATOM     24  C   UNL     1       6.707   1.337  24.616  0.00  0.00    +0.277 C 
ENDBRANCH  18  23
BRANCH  21  25
ATOM     25  O   UNL     1      11.316   5.481  23.327  0.00  0.00    -0.495 OA
ATOM     26  C   UNL     1      12.701   5.287  23.070  0.00  0.00    +0.277 C 
ENDBRANCH  21  25
ENDBRANCH  16  17
ENDBRANCH   2  16
TORSDOF 8
ENDMDL
MODEL 3
REMARK VINA RESULT:      -6.4      2.249      8.138
REMARK  Name = 
REMARK  11 active torsions:
REMARK  status: ('A' for Active; 'I' for Inactive)
REMARK    1  A    between atoms: C_1  and  C_2
REMARK    2  A    between atoms: C_2  and  O_3
REMARK    3  A    between atoms: O_3  and  C_4
REMARK    4  A    between atoms: C_6  and  C_12
REMARK    5  A    between atoms: C_9  and  C_10
REMARK    6  A    between atoms: N_14  and  C_15
REMARK    7  A    between atoms: C_15  and  C_16
REMARK    8  A    between atoms: C_18  and  O_19
REMARK    9  A    between atoms: O_19  and  C_20
REMARK   10  A    between atoms: C_23  and  O_24
REMARK   11  A    between atoms: O_24  and  C_25
REMARK                            x       y       z     vdW  Elec       q    Type
REMARK                         _______ _______ _______ _____ _____    ______ ____
ROOT
ATOM      1  C   UNL     1       8.704  -2.569  23.407  0.00  0.00    +0.263 C 
ATOM      2  N   UNL     1       9.007  -3.348  24.506  0.00  0.00    -0.306 N 
ATOM      3  H   UNL     1       9.736  -3.006  25.124  0.00  0.00    +0.149 HD
ATOM      4  O   UNL     1       8.045  -2.963  22.450  0.00  0.00    -0.269 OA
ENDROOT
BRANCH   1   9
ATOM      5  C   UNL     1       9.225   0.961  22.533  0.00  0.00    +0.233 A 
ATOM      6  C   UNL     1      10.135   1.410  23.491  0.00  0.00    +0.113 A 
ATOM      7  C   UNL     1      10.547   0.508  24.478  0.00  0.00    +0.026 A 
ATOM      8  C   UNL     1      10.052  -0.791  24.467  0.00  0.00    +0.034 A 
ATOM      9  C   UNL     1       9.188  -1.159  23.444  0.00  0.00    +0.129 A 
ATOM     10  N   UNL     1       8.772  -0.318  22.462  0.00  0.00    -0.207 NA
BRANCH   6  11
ATOM     11  C   UNL     1      10.638   2.747  23.504  0.00  0.00    +0.104 C 
ATOM     12  N   UNL     1      10.981   3.854  23.516  0.00  0.00    -0.191 NA
ENDBRANCH   6  11
BRANCH   5  13
ATOM     13  O   UNL     1       8.790   1.858  21.579  0.00  0.00    -0.476 OA
BRANCH  13  15
ATOM     14  C   UNL     1       7.254   3.582  22.230  0.00  0.00    +0.048 C 
ATOM     15  C   UNL     1       7.396   2.161  21.715  0.00  0.00    +0.227 C 
ENDBRANCH  13  15
ENDBRANCH   5  13
ENDBRANCH   1   9
BRANCH   2  16
ATOM     16  C   UNL     1       8.602  -4.740  24.534  0.00  0.00    +0.143 C 
BRANCH  16  17
ATOM     17  C   UNL     1       7.414  -5.102  25.395  0.00  0.00    +0.015 A 
ATOM     18  C   UNL     1       6.136  -5.373  24.862  0.00  0.00    +0.125 A 
ATOM     19  C   UNL     1       5.094  -5.748  25.729  0.00  0.00    +0.049 A 
ATOM     20  C   UNL     1       5.293  -5.873  27.103  0.00  0.00    +0.049 A 
ATOM     21  C   UNL     1       6.539  -5.601  27.647  0.00  0.00    +0.121 A 
ATOM     22  C   UNL     1       7.575  -5.197  26.801  0.00  0.00    +0.054 A 
BRANCH  18  23
ATOM     23  O   UNL     1       5.685  -5.355  23.571  0.00  0.00    -0.495 OA
ATOM     24  C   UNL     1       4.867  -4.321  23.061  0.00  0.00    +0.277 C 
ENDBRANCH  18  23
BRANCH  21  25
ATOM     25  O   UNL     1       6.627  -5.776  29.000  0.00  0.00    -0.495 OA
ATOM     26  C   UNL     1       5.461  -5.493  29.764  0.00  0.00    +0.277 C 
ENDBRANCH  21  25
ENDBRANCH  16  17
ENDBRANCH   2  16
TORSDOF 8
ENDMDL
MODEL 4
REMARK VINA RESULT:      -6.4      2.364      8.254
REMARK  Name = 
REMARK  11 active torsions:
REMARK  status: ('A' for Active; 'I' for Inactive)
REMARK    1  A    between atoms: C_1  and  C_2
REMARK    2  A    between atoms: C_2  and  O_3
REMARK    3  A    between atoms: O_3  and  C_4
REMARK    4  A    between atoms: C_6  and  C_12
REMARK    5  A    between atoms: C_9  and  C_10
REMARK    6  A    between atoms: N_14  and  C_15
REMARK    7  A    between atoms: C_15  and  C_16
REMARK    8  A    between atoms: C_18  and  O_19
REMARK    9  A    between atoms: O_19  and  C_20
REMARK   10  A    between atoms: C_23  and  O_24
REMARK   11  A    between atoms: O_24  and  C_25
REMARK                            x       y       z     vdW  Elec       q    Type
REMARK                         _______ _______ _______ _____ _____    ______ ____
ROOT
ATOM      1  C   UNL     1       9.167  -2.387  23.421  0.00  0.00    +0.263 C 
ATOM      2  N   UNL     1       8.017  -2.712  22.730  0.00  0.00    -0.306 N 
ATOM      3  H   UNL     1       7.382  -1.951  22.511  0.00  0.00    +0.149 HD
ATOM      4  O   UNL     1       9.889  -3.211  23.975  0.00  0.00    -0.269 OA
ENDROOT
BRANCH   1   9
ATOM      5  C   UNL     1       9.375   1.170  22.525  0.00  0.00    +0.233 A 
ATOM      6  C   UNL     1      10.288   1.691  23.444  0.00  0.00    +0.113 A 
ATOM      7  C   UNL     1      10.809   0.827  24.413  0.00  0.00    +0.026 A 
ATOM      8  C   UNL     1      10.417  -0.507  24.423  0.00  0.00    +0.034 A 
ATOM      9  C   UNL     1       9.542  -0.944  23.437  0.00  0.00    +0.129 A 
ATOM     10  N   UNL     1       9.020  -0.141  22.474  0.00  0.00    -0.207 NA
BRANCH   6  11
ATOM     11  C   UNL     1      10.685   3.063  23.436  0.00  0.00    +0.104 C 
ATOM     12  N   UNL     1      11.047   4.163  23.483  0.00  0.00    -0.191 NA
ENDBRANCH   6  11
BRANCH   5  13
ATOM     13  O   UNL     1       8.832   2.027  21.591  0.00  0.00    -0.476 OA
BRANCH  13  15
ATOM     14  C   UNL     1       7.215   3.695  22.190  0.00  0.00    +0.048 C 
ATOM     15  C   UNL     1       7.431   2.243  21.802  0.00  0.00    +0.227 C 
ENDBRANCH  13  15
ENDBRANCH   5  13
ENDBRANCH   1   9
BRANCH   2  16
ATOM     16  C   UNL     1       7.565  -4.090  22.695  0.00  0.00    +0.143 C 
BRANCH  16  17
ATOM     17  C   UNL     1       6.319  -4.434  23.478  0.00  0.00    +0.015 A 
ATOM     18  C   UNL     1       6.279  -4.450  24.888  0.00  0.00    +0.125 A 
ATOM     19  C   UNL     1       5.066  -4.737  25.540  0.00  0.00    +0.049 A 
ATOM     20  C   UNL     1       3.896  -4.992  24.828  0.00  0.00    +0.049 A 
ATOM     21  C   UNL     1       3.916  -4.991  23.443  0.00  0.00    +0.121 A 
ATOM     22  C   UNL     1       5.121  -4.738  22.782  0.00  0.00    +0.054 A 
BRANCH  18  23
ATOM     23  O   UNL     1       7.260  -4.210  25.811  0.00  0.00    -0.495 OA
ATOM     24  C   UNL     1       7.975  -5.246  26.455  0.00  0.00    +0.277 C 
ENDBRANCH  18  23
BRANCH  21  25
ATOM     25  O   UNL     1       2.708  -5.232  22.849  0.00  0.00    -0.495 OA
ATOM     26  C   UNL     1       2.125  -6.511  23.070  0.00  0.00    +0.277 C 
ENDBRANCH  21  25
ENDBRANCH  16  17
ENDBRANCH   2  16
TORSDOF 8
ENDMDL
MODEL 5
REMARK VINA RESULT:      -6.3      1.273      1.297
REMARK  Name = 
REMARK  11 active torsions:
REMARK  status: ('A' for Active; 'I' for Inactive)
REMARK    1  A    between atoms: C_1  and  C_2
REMARK    2  A    between atoms: C_2  and  O_3
REMARK    3  A    between atoms: O_3  and  C_4
REMARK    4  A    between atoms: C_6  and  C_12
REMARK    5  A    between atoms: C_9  and  C_10
REMARK    6  A    between atoms: N_14  and  C_15
REMARK    7  A    between atoms: C_15  and  C_16
REMARK    8  A    between atoms: C_18  and  O_19
REMARK    9  A    between atoms: O_19  and  C_20
REMARK   10  A    between atoms: C_23  and  O_24
REMARK   11  A    between atoms: O_24  and  C_25
REMARK                            x       y       z     vdW  Elec       q    Type
REMARK                         _______ _______ _______ _____ _____    ______ ____
ROOT
ATOM      1  C   UNL     1       9.769  -1.814  23.606  0.00  0.00    +0.263 C 
ATOM      2  N   UNL     1       9.926  -0.656  24.342  0.00  0.00    -0.306 N 
ATOM      3  H   UNL     1       9.251  -0.486  25.080  0.00  0.00    +0.149 HD
ATOM      4  O   UNL     1      10.334  -2.027  22.537  0.00  0.00    -0.269 OA
ENDROOT
BRANCH   1   9
ATOM      5  C   UNL     1       6.766  -3.647  24.666  0.00  0.00    +0.233 A 
ATOM      6  C   UNL     1       7.276  -4.754  25.346  0.00  0.00    +0.113 A 
ATOM      7  C   UNL     1       8.666  -4.903  25.408  0.00  0.00    +0.026 A 
ATOM      8  C   UNL     1       9.484  -3.951  24.810  0.00  0.00    +0.034 A 
ATOM      9  C   UNL     1       8.884  -2.858  24.199  0.00  0.00    +0.129 A 
ATOM     10  N   UNL     1       7.542  -2.670  24.124  0.00  0.00    -0.207 NA
BRANCH   6  11
ATOM     11  C   UNL     1       6.434  -5.734  25.955  0.00  0.00    +0.104 C 
ATOM     12  N   UNL     1       5.724  -6.480  26.486  0.00  0.00    -0.191 NA
ENDBRANCH   6  11
BRANCH   5  13
ATOM     13  O   UNL     1       5.396  -3.515  24.572  0.00  0.00    -0.476 OA
BRANCH  13  15
ATOM     14  C   UNL     1       3.827  -4.836  23.326  0.00  0.00    +0.048 C 
ATOM     15  C   UNL     1       4.915  -3.780  23.248  0.00  0.00    +0.227 C 
ENDBRANCH  13  15
ENDBRANCH   5  13
ENDBRANCH   1   9
BRANCH   2  16
ATOM     16  C   UNL     1      10.743   0.422  23.820  0.00  0.00    +0.143 C 
BRANCH  16  17
ATOM     17  C   UNL     1      10.196   1.827  23.932  0.00  0.00    +0.015 A 
ATOM     18  C   UNL     1       8.900   2.109  24.412  0.00  0.00    +0.125 A 
ATOM     19  C   UNL     1       8.485   3.448  24.528  0.00  0.00    +0.049 A 
ATOM     20  C   UNL     1       9.327   4.507  24.193  0.00  0.00    +0.049 A 
ATOM     21  C   UNL     1      10.600   4.250  23.710  0.00  0.00    +0.121 A 
ATOM     22  C   UNL     1      11.014   2.924  23.560  0.00  0.00    +0.054 A 
BRANCH  18  23
ATOM     23  O   UNL     1       7.903   1.273  24.831  0.00  0.00    -0.495 OA
ATOM     24  C   UNL     1       6.779   0.962  24.031  0.00  0.00    +0.277 C 
ENDBRANCH  18  23
BRANCH  21  25
ATOM     25  O   UNL     1      11.346   5.362  23.433  0.00  0.00    -0.495 OA
ATOM     26  C   UNL     1      12.699   5.152  23.051  0.00  0.00    +0.277 C 
ENDBRANCH  21  25
ENDBRANCH  16  17
ENDBRANCH   2  16
TORSDOF 8
ENDMDL
MODEL 6
REMARK VINA RESULT:      -6.2      1.923      2.707
REMARK  Name = 
REMARK  11 active torsions:
REMARK  status: ('A' for Active; 'I' for Inactive)
REMARK    1  A    between atoms: C_1  and  C_2
REMARK    2  A    between atoms: C_2  and  O_3
REMARK    3  A    between atoms: O_3  and  C_4
REMARK    4  A    between atoms: C_6  and  C_12
REMARK    5  A    between atoms: C_9  and  C_10
REMARK    6  A    between atoms: N_14  and  C_15
REMARK    7  A    between atoms: C_15  and  C_16
REMARK    8  A    between atoms: C_18  and  O_19
REMARK    9  A    between atoms: O_19  and  C_20
REMARK   10  A    between atoms: C_23  and  O_24
REMARK   11  A    between atoms: O_24  and  C_25
REMARK                            x       y       z     vdW  Elec       q    Type
REMARK                         _______ _______ _______ _____ _____    ______ ____
ROOT
ATOM      1  C   UNL     1       8.120  -3.018  26.102  0.00  0.00    +0.263 C 
ATOM      2  N   UNL     1       7.970  -1.803  25.464  0.00  0.00    -0.306 N 
ATOM      3  H   UNL     1       7.384  -1.788  24.636  0.00  0.00    +0.149 HD
ATOM      4  O   UNL     1       8.983  -3.247  26.944  0.00  0.00    -0.269 OA
ENDROOT
BRANCH   1   9
ATOM      5  C   UNL     1       5.608  -4.965  24.260  0.00  0.00    +0.233 A 
ATOM      6  C   UNL     1       5.268  -5.990  25.144  0.00  0.00    +0.113 A 
ATOM      7  C   UNL     1       5.937  -6.046  26.371  0.00  0.00    +0.026 A 
ATOM      8  C   UNL     1       6.896  -5.086  26.673  0.00  0.00    +0.034 A 
ATOM      9  C   UNL     1       7.129  -4.075  25.749  0.00  0.00    +0.129 A 
ATOM     10  N   UNL     1       6.496  -3.979  24.552  0.00  0.00    -0.207 NA
BRANCH   6  11
ATOM     11  C   UNL     1       4.287  -6.980  24.830  0.00  0.00    +0.104 C 
ATOM     12  N   UNL     1       3.445  -7.743  24.604  0.00  0.00    -0.191 NA
ENDBRANCH   6  11
BRANCH   5  13
ATOM     13  O   UNL     1       4.976  -4.927  23.034  0.00  0.00    -0.476 OA
BRANCH  13  15
ATOM     14  C   UNL     1       6.315  -5.968  21.336  0.00  0.00    +0.048 C 
ATOM     15  C   UNL     1       5.886  -4.652  21.962  0.00  0.00    +0.227 C 
ENDBRANCH  13  15
ENDBRANCH   5  13
ENDBRANCH   1   9
BRANCH   2  16
ATOM     16  C   UNL     1       8.913  -0.733  25.726  0.00  0.00    +0.143 C 
BRANCH  16  17
ATOM     17  C   UNL     1       9.393   0.077  24.544  0.00  0.00    +0.015 A 
ATOM     18  C   UNL     1       9.610  -0.484  23.268  0.00  0.00    +0.125 A 
ATOM     19  C   UNL     1      10.014   0.349  22.209  0.00  0.00    +0.049 A 
ATOM     20  C   UNL     1      10.194   1.720  22.383  0.00  0.00    +0.049 A 
ATOM     21  C   UNL     1       9.997   2.288  23.632  0.00  0.00    +0.121 A 
ATOM     22  C   UNL     1       9.625   1.468  24.700  0.00  0.00    +0.054 A 
BRANCH  18  23
ATOM     23  O   UNL     1       9.478  -1.771  22.825  0.00  0.00    -0.495 OA
ATOM     24  C   UNL     1       8.410  -2.191  22.000  0.00  0.00    +0.277 C 
ENDBRANCH  18  23
BRANCH  21  25
ATOM     25  O   UNL     1      10.181   3.642  23.684  0.00  0.00    -0.495 OA
ATOM     26  C   UNL     1      11.479   4.129  23.367  0.00  0.00    +0.277 C 
ENDBRANCH  21  25
ENDBRANCH  16  17
ENDBRANCH   2  16
TORSDOF 8
ENDMDL
MODEL 7
REMARK VINA RESULT:      -6.1      1.990      3.952
REMARK  Name = 
REMARK  11 active torsions:
REMARK  status: ('A' for Active; 'I' for Inactive)
REMARK    1  A    between atoms: C_1  and  C_2
REMARK    2  A    between atoms: C_2  and  O_3
REMARK    3  A    between atoms: O_3  and  C_4
REMARK    4  A    between atoms: C_6  and  C_12
REMARK    5  A    between atoms: C_9  and  C_10
REMARK    6  A    between atoms: N_14  and  C_15
REMARK    7  A    between atoms: C_15  and  C_16
REMARK    8  A    between atoms: C_18  and  O_19
REMARK    9  A    between atoms: O_19  and  C_20
REMARK   10  A    between atoms: C_23  and  O_24
REMARK   11  A    between atoms: O_24  and  C_25
REMARK                            x       y       z     vdW  Elec       q    Type
REMARK                         _______ _______ _______ _____ _____    ______ ____
ROOT
ATOM      1  C   UNL     1      10.078   0.247  24.171  0.00  0.00    +0.263 C 
ATOM      2  N   UNL     1       9.985   1.316  23.303  0.00  0.00    -0.306 N 
ATOM      3  H   UNL     1       9.645   1.120  22.367  0.00  0.00    +0.149 HD
ATOM      4  O   UNL     1      10.701   0.276  25.228  0.00  0.00    -0.269 OA
ENDROOT
BRANCH   1   9
ATOM      5  C   UNL     1       9.018  -3.264  23.951  0.00  0.00    +0.233 A 
ATOM      6  C   UNL     1       7.976  -3.238  23.022  0.00  0.00    +0.113 A 
ATOM      7  C   UNL     1       7.598  -1.999  22.493  0.00  0.00    +0.026 A 
ATOM      8  C   UNL     1       8.270  -0.850  22.894  0.00  0.00    +0.034 A 
ATOM      9  C   UNL     1       9.327  -0.983  23.786  0.00  0.00    +0.129 A 
ATOM     10  N   UNL     1       9.731  -2.166  24.315  0.00  0.00    -0.207 NA
BRANCH   6  11
ATOM     11  C   UNL     1       7.282  -4.419  22.615  0.00  0.00    +0.104 C 
ATOM     12  N   UNL     1       6.667  -5.337  22.267  0.00  0.00    -0.191 NA
ENDBRANCH   6  11
BRANCH   5  13
ATOM     13  O   UNL     1       9.369  -4.479  24.500  0.00  0.00    -0.476 OA
BRANCH  13  15
ATOM     14  C   UNL     1       7.940  -5.386  26.201  0.00  0.00    +0.048 C 
ATOM     15  C   UNL     1       9.152  -4.517  25.916  0.00  0.00    +0.227 C 
ENDBRANCH  13  15
ENDBRANCH   5  13
ENDBRANCH   1   9
BRANCH   2  16
ATOM     16  C   UNL     1      10.714   2.538  23.587  0.00  0.00    +0.143 C 
BRANCH  16  17
ATOM     17  C   UNL     1       9.943   3.837  23.533  0.00  0.00    +0.015 A 
ATOM     18  C   UNL     1      10.557   5.098  23.684  0.00  0.00    +0.125 A 
ATOM     19  C   UNL     1       9.774   6.262  23.574  0.00  0.00    +0.049 A 
ATOM     20  C   UNL     1       8.408   6.203  23.308  0.00  0.00    +0.049 A 
ATOM     21  C   UNL     1       7.785   4.973  23.167  0.00  0.00    +0.121 A 
ATOM     22  C   UNL     1       8.544   3.808  23.304  0.00  0.00    +0.054 A 
BRANCH  18  23
ATOM     23  O   UNL     1      11.862   5.433  23.917  0.00  0.00    -0.495 OA
ATOM     24  C   UNL     1      12.837   5.468  22.894  0.00  0.00    +0.277 C 
ENDBRANCH  18  23
BRANCH  21  25
ATOM     25  O   UNL     1       6.448   5.033  22.887  0.00  0.00    -0.495 OA
ATOM     26  C   UNL     1       5.633   5.775  23.786  0.00  0.00    +0.277 C 
ENDBRANCH  21  25
ENDBRANCH  16  17
ENDBRANCH   2  16
TORSDOF 8
ENDMDL
MODEL 8
REMARK VINA RESULT:      -6.1      1.830      3.398
REMARK  Name = 
REMARK  11 active torsions:
REMARK  status: ('A' for Active; 'I' for Inactive)
REMARK    1  A    between atoms: C_1  and  C_2
REMARK    2  A    between atoms: C_2  and  O_3
REMARK    3  A    between atoms: O_3  and  C_4
REMARK    4  A    between atoms: C_6  and  C_12
REMARK    5  A    between atoms: C_9  and  C_10
REMARK    6  A    between atoms: N_14  and  C_15
REMARK    7  A    between atoms: C_15  and  C_16
REMARK    8  A    between atoms: C_18  and  O_19
REMARK    9  A    between atoms: O_19  and  C_20
REMARK   10  A    between atoms: C_23  and  O_24
REMARK   11  A    between atoms: O_24  and  C_25
REMARK                            x       y       z     vdW  Elec       q    Type
REMARK                         _______ _______ _______ _____ _____    ______ ____
ROOT
ATOM      1  C   UNL     1      10.033   0.344  23.480  0.00  0.00    +0.263 C 
ATOM      2  N   UNL     1      10.443   1.464  24.176  0.00  0.00    -0.306 N 
ATOM      3  H   UNL     1      10.123   1.551  25.135  0.00  0.00    +0.149 HD
ATOM      4  O   UNL     1      10.119   0.228  22.261  0.00  0.00    -0.269 OA
ENDROOT
BRANCH   1   9
ATOM      5  C   UNL     1       8.866  -2.995  24.469  0.00  0.00    +0.233 A 
ATOM      6  C   UNL     1       8.464  -2.827  25.795  0.00  0.00    +0.113 A 
ATOM      7  C   UNL     1       8.633  -1.566  26.377  0.00  0.00    +0.026 A 
ATOM      8  C   UNL     1       9.176  -0.532  25.624  0.00  0.00    +0.034 A 
ATOM      9  C   UNL     1       9.501  -0.783  24.297  0.00  0.00    +0.129 A 
ATOM     10  N   UNL     1       9.344  -1.988  23.692  0.00  0.00    -0.207 NA
BRANCH   6  11
ATOM     11  C   UNL     1       7.911  -3.892  26.570  0.00  0.00    +0.104 C 
ATOM     12  N   UNL     1       7.519  -4.756  27.236  0.00  0.00    -0.191 NA
ENDBRANCH   6  11
BRANCH   5  13
ATOM     13  O   UNL     1       8.734  -4.246  23.904  0.00  0.00    -0.476 OA
BRANCH  13  15
ATOM     14  C   UNL     1       7.275  -5.706  22.679  0.00  0.00    +0.048 C 
ATOM     15  C   UNL     1       7.738  -4.273  22.873  0.00  0.00    +0.227 C 
ENDBRANCH  13  15
ENDBRANCH   5  13
ENDBRANCH   1   9
BRANCH   2  16
ATOM     16  C   UNL     1      10.941   2.618  23.453  0.00  0.00    +0.143 C 
BRANCH  16  17
ATOM     17  C   UNL     1      10.199   3.923  23.626  0.00  0.00    +0.015 A 
ATOM     18  C   UNL     1      10.854   5.165  23.759  0.00  0.00    +0.125 A 
ATOM     19  C   UNL     1      10.088   6.339  23.871  0.00  0.00    +0.049 A 
ATOM     20  C   UNL     1       8.695   6.310  23.841  0.00  0.00    +0.049 A 
ATOM     21  C   UNL     1       8.032   5.099  23.722  0.00  0.00    +0.121 A 
ATOM     22  C   UNL     1       8.781   3.921  23.641  0.00  0.00    +0.054 A 
BRANCH  18  23
ATOM     23  O   UNL     1      12.186   5.473  23.787  0.00  0.00    -0.495 OA
ATOM     24  C   UNL     1      12.988   5.503  22.623  0.00  0.00    +0.277 C 
ENDBRANCH  18  23
BRANCH  21  25
ATOM     25  O   UNL     1       6.669   5.189  23.681  0.00  0.00    -0.495 OA
ATOM     26  C   UNL     1       6.112   6.495  23.591  0.00  0.00    +0.277 C 
ENDBRANCH  21  25
ENDBRANCH  16  17
ENDBRANCH   2  16
TORSDOF 8
ENDMDL
MODEL 9
REMARK VINA RESULT:      -6.1      2.087      3.051
REMARK  Name = 
REMARK  11 active torsions:
REMARK  status: ('A' for Active; 'I' for Inactive)
REMARK    1  A    between atoms: C_1  and  C_2
REMARK    2  A    between atoms: C_2  and  O_3
REMARK    3  A    between atoms: O_3  and  C_4
REMARK    4  A    between atoms: C_6  and  C_12
REMARK    5  A    between atoms: C_9  and  C_10
REMARK    6  A    between atoms: N_14  and  C_15
REMARK    7  A    between atoms: C_15  and  C_16
REMARK    8  A    between atoms: C_18  and  O_19
REMARK    9  A    between atoms: O_19  and  C_20
REMARK   10  A    between atoms: C_23  and  O_24
REMARK   11  A    between atoms: O_24  and  C_25
REMARK                            x       y       z     vdW  Elec       q    Type
REMARK                         _______ _______ _______ _____ _____    ______ ____
ROOT
ATOM      1  C   UNL     1       5.670  -0.923  24.452  0.00  0.00    +0.263 C 
ATOM      2  N   UNL     1       6.410  -0.477  23.374  0.00  0.00    -0.306 N 
ATOM      3  H   UNL     1       6.892  -1.182  22.826  0.00  0.00    +0.149 HD
ATOM      4  O   UNL     1       5.252  -0.191  25.344  0.00  0.00    -0.269 OA
ENDROOT
BRANCH   1   9
ATOM      5  C   UNL     1       4.958  -4.352  23.340  0.00  0.00    +0.233 A 
ATOM      6  C   UNL     1       4.690  -5.036  24.526  0.00  0.00    +0.113 A 
ATOM      7  C   UNL     1       4.794  -4.330  25.730  0.00  0.00    +0.026 A 
ATOM      8  C   UNL     1       5.146  -2.985  25.706  0.00  0.00    +0.034 A 
ATOM      9  C   UNL     1       5.346  -2.378  24.473  0.00  0.00    +0.129 A 
ATOM     10  N   UNL     1       5.245  -3.024  23.283  0.00  0.00    -0.207 NA
BRANCH   6  11
ATOM     11  C   UNL     1       4.334  -6.420  24.550  0.00  0.00    +0.104 C 
ATOM     12  N   UNL     1       4.084  -7.550  24.513  0.00  0.00    -0.191 NA
ENDBRANCH   6  11
BRANCH   5  13
ATOM     13  O   UNL     1       4.891  -5.054  22.155  0.00  0.00    -0.476 OA
BRANCH  13  15
ATOM     14  C   UNL     1       7.048  -6.073  21.902  0.00  0.00    +0.048 C 
ATOM     15  C   UNL     1       6.113  -4.982  21.411  0.00  0.00    +0.227 C 
ENDBRANCH  13  15
ENDBRANCH   5  13
ENDBRANCH   1   9
BRANCH   2  16
ATOM     16  C   UNL     1       6.796   0.918  23.296  0.00  0.00    +0.143 C 
BRANCH  16  17
ATOM     17  C   UNL     1       8.252   1.252  23.527  0.00  0.00    +0.015 A 
ATOM     18  C   UNL     1       9.243   0.266  23.722  0.00  0.00    +0.125 A 
ATOM     19  C   UNL     1      10.583   0.660  23.884  0.00  0.00    +0.049 A 
ATOM     20  C   UNL     1      10.963   2.000  23.844  0.00  0.00    +0.049 A 
ATOM     21  C   UNL     1      10.003   2.984  23.665  0.00  0.00    +0.121 A 
ATOM     22  C   UNL     1       8.664   2.609  23.533  0.00  0.00    +0.054 A 
BRANCH  18  23
ATOM     23  O   UNL     1       9.147  -1.097  23.771  0.00  0.00    -0.495 OA
ATOM     24  C   UNL     1      10.164  -1.953  23.290  0.00  0.00    +0.277 C 
ENDBRANCH  18  23
BRANCH  21  25
ATOM     25  O   UNL     1      10.489   4.261  23.621  0.00  0.00    -0.495 OA
ATOM     26  C   UNL     1      11.874   4.414  23.336  0.00  0.00    +0.277 C 
ENDBRANCH  21  25
ENDBRANCH  16  17
ENDBRANCH   2  16
TORSDOF 8
ENDMDL
