MODEL 1
REMARK VINA RESULT:      -6.6      0.000      0.000
REMARK  Name = 
REMARK  8 active torsions:
REMARK  status: ('A' for Active; 'I' for Inactive)
REMARK    1  A    between atoms: CA_2  and  CB_3
REMARK    2  A    between atoms: CA_2  and  N_7
REMARK    3  A    between atoms: CA_2  and  C_20
REMARK    4  A    between atoms: CB_3  and  CG_4
REMARK    5  A    between atoms: CG_4  and  OD1_5
REMARK    6  A    between atoms: C_8  and  C_10
REMARK    7  A    between atoms: C_10  and  C_11
REMARK    8  A    between atoms: C_20  and  O_21
REMARK                            x       y       z     vdW  Elec       q    Type
REMARK                         _______ _______ _______ _____ _____    ______ ____
ROOT
ATOM      1  N   ASP A   1       7.720  -4.244  24.689  0.00  0.00    -0.302 N 
ATOM      2  H   ASP A   1       8.031  -4.834  23.918  0.00  0.00    +0.150 HD
ATOM      3  C   UNK A   0       8.369  -3.048  24.909  0.00  0.00    +0.218 C 
ATOM      4  O   UNK A   0       7.978  -2.254  25.764  0.00  0.00    -0.275 OA
ENDROOT
BRANCH   1   5
ATOM      5  CA  ASP A   1       6.512  -4.593  25.425  0.00  0.00    +0.192 C 
BRANCH   5   6
ATOM      6  C   ASP A   1       6.779  -5.746  26.381  0.00  0.00    +0.326 C 
ATOM      7  OXT ASP A   1       5.875  -6.467  26.791  0.00  0.00    -0.249 OA
BRANCH   6   8
ATOM      8  O   ASP A   1       8.043  -5.848  26.834  0.00  0.00    -0.479 OA
ATOM      9  H   ASP A   1       8.285  -6.707  27.236  0.00  0.00    +0.295 HD
ENDBRANCH   6   8
ENDBRANCH   5   6
BRANCH   5  10
ATOM     10  CB  ASP A   1       5.319  -4.955  24.547  0.00  0.00    +0.154 C 
BRANCH  10  11
ATOM     11  CG  ASP A   1       5.452  -6.134  23.610  0.00  0.00    +0.307 C 
ATOM     12  OD2 ASP A   1       6.094  -6.043  22.569  0.00  0.00    -0.251 OA
BRANCH  11  13
ATOM     13  OD1 ASP A   1       4.744  -7.244  23.881  0.00  0.00    -0.481 OA
ATOM     14  HD1 ASP A   1       4.025  -7.231  24.551  0.00  0.00    +0.295 HD
ENDBRANCH  11  13
ENDBRANCH  10  11
ENDBRANCH   5  10
ENDBRANCH   1   5
BRANCH   3  15
ATOM     15  C   UNK A   0       9.652  -2.828  24.128  0.00  0.00    +0.133 C 
BRANCH  15  16
ATOM     16  C   UNK A   0       9.588  -1.720  23.126  0.00  0.00    -0.014 A 
ATOM     17  C   UNK A   0       9.884  -0.335  23.346  0.00  0.00    +0.003 A 
ATOM     18  C   UNK A   0       9.778   0.319  22.117  0.00  0.00    +0.047 A 
ATOM     19  C   UNK A   0      10.024   1.687  21.956  0.00  0.00    +0.026 A 
ATOM     20  C   UNK A   0      10.384   2.416  23.091  0.00  0.00    +0.002 A 
ATOM     21  C   UNK A   0      10.493   1.800  24.334  0.00  0.00    +0.001 A 
ATOM     22  N   UNK A   0       9.414  -0.628  21.188  0.00  0.00    -0.360 N 
ATOM     23  H   UNK A   0       9.279  -0.438  20.203  0.00  0.00    +0.165 HD
ATOM     24  C   UNK A   0      10.253   0.426  24.474  0.00  0.00    +0.010 A 
ATOM     25  C   UNK A   0       9.294  -1.856  21.782  0.00  0.00    +0.087 A 
ENDBRANCH  15  16
ENDBRANCH   3  15
TORSDOF 8
ENDMDL
MODEL 2
REMARK VINA RESULT:      -6.6      1.376      2.403
REMARK  Name = 
REMARK  8 active torsions:
REMARK  status: ('A' for Active; 'I' for Inactive)
REMARK    1  A    between atoms: CA_2  and  CB_3
REMARK    2  A    between atoms: CA_2  and  N_7
REMARK    3  A    between atoms: CA_2  and  C_20
REMARK    4  A    between atoms: CB_3  and  CG_4
REMARK    5  A    between atoms: CG_4  and  OD1_5
REMARK    6  A    between atoms: C_8  and  C_10
REMARK    7  A    between atoms: C_10  and  C_11
REMARK    8  A    between atoms: C_20  and  O_21
REMARK                            x       y       z     vdW  Elec       q    Type
REMARK                         _______ _______ _______ _____ _____    ______ ____
ROOT
ATOM      1  N   ASP A   1       7.031  -3.979  24.106  0.00  0.00    -0.302 N 
ATOM      2  H   ASP A   1       6.555  -3.108  24.337  0.00  0.00    +0.150 HD
ATOM      3  C   UNK A   0       8.392  -4.061  24.305  0.00  0.00    +0.218 C 
ATOM      4  O   UNK A   0       9.004  -5.115  24.133  0.00  0.00    -0.275 OA
ENDROOT
BRANCH   1   5
ATOM      5  CA  ASP A   1       6.251  -5.152  23.735  0.00  0.00    +0.192 C 
BRANCH   5   6
ATOM      6  C   ASP A   1       5.897  -5.117  22.256  0.00  0.00    +0.326 C 
ATOM      7  OXT ASP A   1       5.608  -4.069  21.685  0.00  0.00    -0.249 OA
BRANCH   6   8
ATOM      8  O   ASP A   1       5.809  -6.315  21.648  0.00  0.00    -0.479 OA
ATOM      9  H   ASP A   1       5.385  -6.317  20.766  0.00  0.00    +0.295 HD
ENDBRANCH   6   8
ENDBRANCH   5   6
BRANCH   5  10
ATOM     10  CB  ASP A   1       4.969  -5.340  24.538  0.00  0.00    +0.154 C 
BRANCH  10  11
ATOM     11  CG  ASP A   1       4.610  -6.734  24.997  0.00  0.00    +0.307 C 
ATOM     12  OD2 ASP A   1       4.705  -7.055  26.177  0.00  0.00    -0.251 OA
BRANCH  11  13
ATOM     13  OD1 ASP A   1       4.306  -7.652  24.063  0.00  0.00    -0.481 OA
ATOM     14  HD1 ASP A   1       4.740  -8.534  24.064  0.00  0.00    +0.295 HD
ENDBRANCH  11  13
ENDBRANCH  10  11
ENDBRANCH   5  10
ENDBRANCH   1   5
BRANCH   3  15
ATOM     15  C   UNK A   0       9.103  -2.758  24.625  0.00  0.00    +0.133 C 
BRANCH  15  16
ATOM     16  C   UNK A   0       9.229  -1.819  23.468  0.00  0.00    -0.014 A 
ATOM     17  C   UNK A   0       9.560  -0.424  23.516  0.00  0.00    +0.003 A 
ATOM     18  C   UNK A   0       9.653   0.032  22.200  0.00  0.00    +0.047 A 
ATOM     19  C   UNK A   0       9.984   1.350  21.871  0.00  0.00    +0.026 A 
ATOM     20  C   UNK A   0      10.222   2.238  22.922  0.00  0.00    +0.002 A 
ATOM     21  C   UNK A   0      10.131   1.821  24.246  0.00  0.00    +0.001 A 
ATOM     22  N   UNK A   0       9.373  -1.039  21.383  0.00  0.00    -0.360 N 
ATOM     23  H   UNK A   0       9.382  -1.001  20.371  0.00  0.00    +0.165 HD
ATOM     24  C   UNK A   0       9.808   0.493  24.557  0.00  0.00    +0.010 A 
ATOM     25  C   UNK A   0       9.114  -2.155  22.132  0.00  0.00    +0.087 A 
ENDBRANCH  15  16
ENDBRANCH   3  15
TORSDOF 8
ENDMDL
MODEL 3
REMARK VINA RESULT:      -6.5      1.600      3.060
REMARK  Name = 
REMARK  8 active torsions:
REMARK  status: ('A' for Active; 'I' for Inactive)
REMARK    1  A    between atoms: CA_2  and  CB_3
REMARK    2  A    between atoms: CA_2  and  N_7
REMARK    3  A    between atoms: CA_2  and  C_20
REMARK    4  A    between atoms: CB_3  and  CG_4
REMARK    5  A    between atoms: CG_4  and  OD1_5
REMARK    6  A    between atoms: C_8  and  C_10
REMARK    7  A    between atoms: C_10  and  C_11
REMARK    8  A    between atoms: C_20  and  O_21
REMARK                            x       y       z     vdW  Elec       q    Type
REMARK                         _______ _______ _______ _____ _____    ______ ____
ROOT
ATOM      1  N   ASP A   1       6.525  -4.344  23.688  0.00  0.00    -0.302 N 
ATOM      2  H   ASP A   1       5.836  -3.615  23.509  0.00  0.00    +0.150 HD
ATOM      3  C   UNK A   0       7.858  -4.057  23.483  0.00  0.00    +0.218 C 
ATOM      4  O   UNK A   0       8.740  -4.866  23.770  0.00  0.00    -0.275 OA
ENDROOT
BRANCH   1   5
ATOM      5  CA  ASP A   1       6.109  -5.596  24.304  0.00  0.00    +0.192 C 
BRANCH   5   6
ATOM      6  C   ASP A   1       4.928  -6.197  23.556  0.00  0.00    +0.326 C 
ATOM      7  OXT ASP A   1       4.322  -5.569  22.694  0.00  0.00    -0.249 OA
BRANCH   6   8
ATOM      8  O   ASP A   1       4.523  -7.409  23.981  0.00  0.00    -0.479 OA
ATOM      9  H   ASP A   1       3.565  -7.591  23.905  0.00  0.00    +0.295 HD
ENDBRANCH   6   8
ENDBRANCH   5   6
BRANCH   5  10
ATOM     10  CB  ASP A   1       5.745  -5.486  25.780  0.00  0.00    +0.154 C 
BRANCH  10  11
ATOM     11  CG  ASP A   1       6.865  -5.353  26.785  0.00  0.00    +0.307 C 
ATOM     12  OD2 ASP A   1       6.737  -4.652  27.785  0.00  0.00    -0.251 OA
BRANCH  11  13
ATOM     13  OD1 ASP A   1       8.050  -5.918  26.495  0.00  0.00    -0.481 OA
ATOM     14  HD1 ASP A   1       8.142  -6.530  25.731  0.00  0.00    +0.295 HD
ENDBRANCH  11  13
ENDBRANCH  10  11
ENDBRANCH   5  10
ENDBRANCH   1   5
BRANCH   3  15
ATOM     15  C   UNK A   0       8.161  -2.749  22.774  0.00  0.00    +0.133 C 
BRANCH  15  16
ATOM     16  C   UNK A   0       8.728  -1.682  23.654  0.00  0.00    -0.014 A 
ATOM     17  C   UNK A   0       9.254  -0.412  23.247  0.00  0.00    +0.003 A 
ATOM     18  C   UNK A   0       9.588   0.295  24.404  0.00  0.00    +0.047 A 
ATOM     19  C   UNK A   0      10.113   1.592  24.381  0.00  0.00    +0.026 A 
ATOM     20  C   UNK A   0      10.310   2.187  23.133  0.00  0.00    +0.002 A 
ATOM     21  C   UNK A   0       9.996   1.510  21.959  0.00  0.00    +0.001 A 
ATOM     22  N   UNK A   0       9.293  -0.519  25.473  0.00  0.00    -0.360 N 
ATOM     23  H   UNK A   0       9.422  -0.257  26.441  0.00  0.00    +0.165 HD
ATOM     24  C   UNK A   0       9.461   0.214  22.002  0.00  0.00    +0.010 A 
ATOM     25  C   UNK A   0       8.779  -1.711  25.035  0.00  0.00    +0.087 A 
ENDBRANCH  15  16
ENDBRANCH   3  15
TORSDOF 8
ENDMDL
MODEL 4
REMARK VINA RESULT:      -6.3      1.874      2.219
REMARK  Name = 
REMARK  8 active torsions:
REMARK  status: ('A' for Active; 'I' for Inactive)
REMARK    1  A    between atoms: CA_2  and  CB_3
REMARK    2  A    between atoms: CA_2  and  N_7
REMARK    3  A    between atoms: CA_2  and  C_20
REMARK    4  A    between atoms: CB_3  and  CG_4
REMARK    5  A    between atoms: CG_4  and  OD1_5
REMARK    6  A    between atoms: C_8  and  C_10
REMARK    7  A    between atoms: C_10  and  C_11
REMARK    8  A    between atoms: C_20  and  O_21
REMARK                            x       y       z     vdW  Elec       q    Type
REMARK                         _______ _______ _______ _____ _____    ______ ____
ROOT
ATOM      1  N   ASP A   1       8.834  -3.385  23.618  0.00  0.00    -0.302 N 
ATOM      2  H   ASP A   1       9.243  -3.510  22.693  0.00  0.00    +0.150 HD
ATOM      3  C   UNK A   0       9.057  -2.199  24.284  0.00  0.00    +0.218 C 
ATOM      4  O   UNK A   0       8.513  -1.956  25.361  0.00  0.00    -0.275 OA
ENDROOT
BRANCH   1   5
ATOM      5  CA  ASP A   1       7.903  -4.378  24.137  0.00  0.00    +0.192 C 
BRANCH   5   6
ATOM      6  C   ASP A   1       8.609  -5.334  25.086  0.00  0.00    +0.326 C 
ATOM      7  OXT ASP A   1       8.097  -5.693  26.141  0.00  0.00    -0.249 OA
BRANCH   6   8
ATOM      8  O   ASP A   1       9.871  -5.665  24.750  0.00  0.00    -0.479 OA
ATOM      9  H   ASP A   1      10.161  -6.563  25.009  0.00  0.00    +0.295 HD
ENDBRANCH   6   8
ENDBRANCH   5   6
BRANCH   5  10
ATOM     10  CB  ASP A   1       7.188  -5.195  23.067  0.00  0.00    +0.154 C 
BRANCH  10  11
ATOM     11  CG  ASP A   1       6.530  -4.457  21.923  0.00  0.00    +0.307 C 
ATOM     12  OD2 ASP A   1       6.408  -3.236  21.947  0.00  0.00    -0.251 OA
BRANCH  11  13
ATOM     13  OD1 ASP A   1       5.969  -5.181  20.940  0.00  0.00    -0.481 OA
ATOM     14  HD1 ASP A   1       6.491  -5.853  20.448  0.00  0.00    +0.295 HD
ENDBRANCH  11  13
ENDBRANCH  10  11
ENDBRANCH   5  10
ENDBRANCH   1   5
BRANCH   3  15
ATOM     15  C   UNK A   0      10.098  -1.275  23.678  0.00  0.00    +0.133 C 
BRANCH  15  16
ATOM     16  C   UNK A   0       9.533  -0.135  22.892  0.00  0.00    -0.014 A 
ATOM     17  C   UNK A   0       9.090   1.132  23.398  0.00  0.00    +0.003 A 
ATOM     18  C   UNK A   0       8.726   1.918  22.304  0.00  0.00    +0.047 A 
ATOM     19  C   UNK A   0       8.264   3.233  22.429  0.00  0.00    +0.026 A 
ATOM     20  C   UNK A   0       8.163   3.762  23.717  0.00  0.00    +0.002 A 
ATOM     21  C   UNK A   0       8.509   3.005  24.831  0.00  0.00    +0.001 A 
ATOM     22  N   UNK A   0       8.924   1.155  21.176  0.00  0.00    -0.360 N 
ATOM     23  H   UNK A   0       8.756   1.479  20.232  0.00  0.00    +0.165 HD
ATOM     24  C   UNK A   0       8.980   1.692  24.686  0.00  0.00    +0.010 A 
ATOM     25  C   UNK A   0       9.407  -0.080  21.516  0.00  0.00    +0.087 A 
ENDBRANCH  15  16
ENDBRANCH   3  15
TORSDOF 8
ENDMDL
MODEL 5
REMARK VINA RESULT:      -6.3      2.411      3.680
REMARK  Name = 
REMARK  8 active torsions:
REMARK  status: ('A' for Active; 'I' for Inactive)
REMARK    1  A    between atoms: CA_2  and  CB_3
REMARK    2  A    between atoms: CA_2  and  N_7
REMARK    3  A    between atoms: CA_2  and  C_20
REMARK    4  A    between atoms: CB_3  and  CG_4
REMARK    5  A    between atoms: CG_4  and  OD1_5
REMARK    6  A    between atoms: C_8  and  C_10
REMARK    7  A    between atoms: C_10  and  C_11
REMARK    8  A    between atoms: C_20  and  O_21
REMARK                            x       y       z     vdW  Elec       q    Type
REMARK                         _______ _______ _______ _____ _____    ______ ____
ROOT
ATOM      1  N   ASP A   1       8.258  -2.885  22.847  0.00  0.00    -0.302 N 
ATOM      2  H   ASP A   1       7.988  -2.129  22.219  0.00  0.00    +0.150 HD
ATOM      3  C   UNK A   0       9.475  -2.808  23.488  0.00  0.00    +0.218 C 
ATOM      4  O   UNK A   0       9.812  -3.643  24.328  0.00  0.00    -0.275 OA
ENDROOT
BRANCH   1   5
ATOM      5  CA  ASP A   1       7.297  -3.929  23.175  0.00  0.00    +0.192 C 
BRANCH   5   6
ATOM      6  C   ASP A   1       6.767  -4.590  21.911  0.00  0.00    +0.326 C 
ATOM      7  OXT ASP A   1       7.222  -5.651  21.497  0.00  0.00    -0.249 OA
BRANCH   6   8
ATOM      8  O   ASP A   1       5.855  -3.880  21.219  0.00  0.00    -0.479 OA
ATOM      9  H   ASP A   1       5.641  -4.215  20.325  0.00  0.00    +0.295 HD
ENDBRANCH   6   8
ENDBRANCH   5   6
BRANCH   5  10
ATOM     10  CB  ASP A   1       6.112  -3.459  24.011  0.00  0.00    +0.154 C 
BRANCH  10  11
ATOM     11  CG  ASP A   1       5.778  -1.985  24.013  0.00  0.00    +0.307 C 
ATOM     12  OD2 ASP A   1       5.196  -1.471  24.964  0.00  0.00    -0.251 OA
BRANCH  11  13
ATOM     13  OD1 ASP A   1       6.019  -1.277  22.897  0.00  0.00    -0.481 OA
ATOM     14  HD1 ASP A   1       5.362  -0.628  22.561  0.00  0.00    +0.295 HD
ENDBRANCH  11  13
ENDBRANCH  10  11
ENDBRANCH   5  10
ENDBRANCH   1   5
BRANCH   3  15
ATOM     15  C   UNK A   0      10.416  -1.715  23.013  0.00  0.00    +0.133 C 
BRANCH  15  16
ATOM     16  C   UNK A   0      10.121  -0.358  23.566  0.00  0.00    -0.014 A 
ATOM     17  C   UNK A   0       9.341   0.678  22.952  0.00  0.00    +0.003 A 
ATOM     18  C   UNK A   0       9.256   1.735  23.859  0.00  0.00    +0.047 A 
ATOM     19  C   UNK A   0       8.546   2.911  23.597  0.00  0.00    +0.026 A 
ATOM     20  C   UNK A   0       7.905   3.016  22.361  0.00  0.00    +0.002 A 
ATOM     21  C   UNK A   0       7.974   1.985  21.429  0.00  0.00    +0.001 A 
ATOM     22  N   UNK A   0       9.970   1.365  24.976  0.00  0.00    -0.360 N 
ATOM     23  H   UNK A   0      10.067   1.937  25.805  0.00  0.00    +0.165 HD
ATOM     24  C   UNK A   0       8.682   0.810  21.713  0.00  0.00    +0.010 A 
ATOM     25  C   UNK A   0      10.496   0.111  24.811  0.00  0.00    +0.087 A 
ENDBRANCH  15  16
ENDBRANCH   3  15
TORSDOF 8
ENDMDL
MODEL 6
REMARK VINA RESULT:      -6.3      1.632      3.043
REMARK  Name = 
REMARK  8 active torsions:
REMARK  status: ('A' for Active; 'I' for Inactive)
REMARK    1  A    between atoms: CA_2  and  CB_3
REMARK    2  A    between atoms: CA_2  and  N_7
REMARK    3  A    between atoms: CA_2  and  C_20
REMARK    4  A    between atoms: CB_3  and  CG_4
REMARK    5  A    between atoms: CG_4  and  OD1_5
REMARK    6  A    between atoms: C_8  and  C_10
REMARK    7  A    between atoms: C_10  and  C_11
REMARK    8  A    between atoms: C_20  and  O_21
REMARK                            x       y       z     vdW  Elec       q    Type
REMARK                         _______ _______ _______ _____ _____    ______ ____
ROOT
ATOM      1  N   ASP A   1       8.006  -3.703  23.716  0.00  0.00    -0.302 N 
ATOM      2  H   ASP A   1       7.572  -2.929  23.216  0.00  0.00    +0.150 HD
ATOM      3  C   UNK A   0       9.299  -3.555  24.170  0.00  0.00    +0.218 C 
ATOM      4  O   UNK A   0       9.841  -4.418  24.860  0.00  0.00    -0.275 OA
ENDROOT
BRANCH   1   5
ATOM      5  CA  ASP A   1       7.209  -4.866  24.080  0.00  0.00    +0.192 C 
BRANCH   5   6
ATOM      6  C   ASP A   1       6.189  -5.180  22.995  0.00  0.00    +0.326 C 
ATOM      7  OXT ASP A   1       5.559  -6.232  22.986  0.00  0.00    -0.249 OA
BRANCH   6   8
ATOM      8  O   ASP A   1       6.111  -4.285  21.991  0.00  0.00    -0.479 OA
ATOM      9  H   ASP A   1       5.497  -4.512  21.264  0.00  0.00    +0.295 HD
ENDBRANCH   6   8
ENDBRANCH   5   6
BRANCH   5  10
ATOM     10  CB  ASP A   1       6.478  -4.742  25.412  0.00  0.00    +0.154 C 
BRANCH  10  11
ATOM     11  CG  ASP A   1       6.831  -5.712  26.515  0.00  0.00    +0.307 C 
ATOM     12  OD2 ASP A   1       5.962  -6.362  27.087  0.00  0.00    -0.251 OA
BRANCH  11  13
ATOM     13  OD1 ASP A   1       8.105  -5.752  26.942  0.00  0.00    -0.481 OA
ATOM     14  HD1 ASP A   1       8.784  -6.269  26.454  0.00  0.00    +0.295 HD
ENDBRANCH  11  13
ENDBRANCH  10  11
ENDBRANCH   5  10
ENDBRANCH   1   5
BRANCH   3  15
ATOM     15  C   UNK A   0      10.049  -2.333  23.670  0.00  0.00    +0.133 C 
BRANCH  15  16
ATOM     16  C   UNK A   0       9.679  -1.055  24.351  0.00  0.00    -0.014 A 
ATOM     17  C   UNK A   0       9.719   0.267  23.796  0.00  0.00    +0.003 A 
ATOM     18  C   UNK A   0       9.205   1.142  24.754  0.00  0.00    +0.047 A 
ATOM     19  C   UNK A   0       9.074   2.518  24.539  0.00  0.00    +0.026 A 
ATOM     20  C   UNK A   0       9.489   3.021  23.304  0.00  0.00    +0.002 A 
ATOM     21  C   UNK A   0      10.014   2.180  22.328  0.00  0.00    +0.001 A 
ATOM     22  N   UNK A   0       8.880   0.386  25.856  0.00  0.00    -0.360 N 
ATOM     23  H   UNK A   0       8.470   0.759  26.703  0.00  0.00    +0.165 HD
ATOM     24  C   UNK A   0      10.128   0.802  22.558  0.00  0.00    +0.010 A 
ATOM     25  C   UNK A   0       9.163  -0.935  25.628  0.00  0.00    +0.087 A 
ENDBRANCH  15  16
ENDBRANCH   3  15
TORSDOF 8
ENDMDL
MODEL 7
REMARK VINA RESULT:      -6.2      2.319      3.089
REMARK  Name = 
REMARK  8 active torsions:
REMARK  status: ('A' for Active; 'I' for Inactive)
REMARK    1  A    between atoms: CA_2  and  CB_3
REMARK    2  A    between atoms: CA_2  and  N_7
REMARK    3  A    between atoms: CA_2  and  C_20
REMARK    4  A    between atoms: CB_3  and  CG_4
REMARK    5  A    between atoms: CG_4  and  OD1_5
REMARK    6  A    between atoms: C_8  and  C_10
REMARK    7  A    between atoms: C_10  and  C_11
REMARK    8  A    between atoms: C_20  and  O_21
REMARK                            x       y       z     vdW  Elec       q    Type
REMARK                         _______ _______ _______ _____ _____    ______ ____
ROOT
ATOM      1  N   ASP A   1       8.669  -2.642  25.285  0.00  0.00    -0.302 N 
ATOM      2  H   ASP A   1       9.456  -2.294  24.738  0.00  0.00    +0.150 HD
ATOM      3  C   UNK A   0       8.034  -1.778  26.151  0.00  0.00    +0.218 C 
ATOM      4  O   UNK A   0       7.023  -2.114  26.766  0.00  0.00    -0.275 OA
ENDROOT
BRANCH   1   5
ATOM      5  CA  ASP A   1       8.137  -3.971  25.022  0.00  0.00    +0.192 C 
BRANCH   5   6
ATOM      6  C   ASP A   1       9.118  -5.043  25.474  0.00  0.00    +0.326 C 
ATOM      7  OXT ASP A   1      10.248  -5.125  25.003  0.00  0.00    -0.249 OA
BRANCH   6   8
ATOM      8  O   ASP A   1       8.628  -5.957  26.333  0.00  0.00    -0.479 OA
ATOM      9  H   ASP A   1       9.054  -5.988  27.213  0.00  0.00    +0.295 HD
ENDBRANCH   6   8
ENDBRANCH   5   6
BRANCH   5  10
ATOM     10  CB  ASP A   1       7.772  -4.230  23.564  0.00  0.00    +0.154 C 
BRANCH  10  11
ATOM     11  CG  ASP A   1       7.630  -3.043  22.640  0.00  0.00    +0.307 C 
ATOM     12  OD2 ASP A   1       8.613  -2.406  22.274  0.00  0.00    -0.251 OA
BRANCH  11  13
ATOM     13  OD1 ASP A   1       6.391  -2.623  22.332  0.00  0.00    -0.481 OA
ATOM     14  HD1 ASP A   1       5.609  -3.194  22.501  0.00  0.00    +0.295 HD
ENDBRANCH  11  13
ENDBRANCH  10  11
ENDBRANCH   5  10
ENDBRANCH   1   5
BRANCH   3  15
ATOM     15  C   UNK A   0       8.721  -0.445  26.393  0.00  0.00    +0.133 C 
BRANCH  15  16
ATOM     16  C   UNK A   0       9.350   0.158  25.178  0.00  0.00    -0.014 A 
ATOM     17  C   UNK A   0       8.681   0.659  24.013  0.00  0.00    +0.003 A 
ATOM     18  C   UNK A   0       9.651   1.209  23.173  0.00  0.00    +0.047 A 
ATOM     19  C   UNK A   0       9.347   1.813  21.949  0.00  0.00    +0.026 A 
ATOM     20  C   UNK A   0       8.005   1.851  21.563  0.00  0.00    +0.002 A 
ATOM     21  C   UNK A   0       7.012   1.306  22.370  0.00  0.00    +0.001 A 
ATOM     22  N   UNK A   0      10.866   1.035  23.795  0.00  0.00    -0.360 N 
ATOM     23  H   UNK A   0      11.749   1.354  23.417  0.00  0.00    +0.165 HD
ATOM     24  C   UNK A   0       7.334   0.714  23.599  0.00  0.00    +0.010 A 
ATOM     25  C   UNK A   0      10.699   0.403  24.998  0.00  0.00    +0.087 A 
ENDBRANCH  15  16
ENDBRANCH   3  15
TORSDOF 8
ENDMDL
MODEL 8
REMARK VINA RESULT:      -6.1      2.364      4.084
REMARK  Name = 
REMARK  8 active torsions:
REMARK  status: ('A' for Active; 'I' for Inactive)
REMARK    1  A    between atoms: CA_2  and  CB_3
REMARK    2  A    between atoms: CA_2  and  N_7
REMARK    3  A    between atoms: CA_2  and  C_20
REMARK    4  A    between atoms: CB_3  and  CG_4
REMARK    5  A    between atoms: CG_4  and  OD1_5
REMARK    6  A    between atoms: C_8  and  C_10
REMARK    7  A    between atoms: C_10  and  C_11
REMARK    8  A    between atoms: C_20  and  O_21
REMARK                            x       y       z     vdW  Elec       q    Type
REMARK                         _______ _______ _______ _____ _____    ______ ____
ROOT
ATOM      1  N   ASP A   1       8.016  -2.166  22.174  0.00  0.00    -0.302 N 
ATOM      2  H   ASP A   1       7.227  -1.550  21.982  0.00  0.00    +0.150 HD
ATOM      3  C   UNK A   0       9.292  -1.653  22.085  0.00  0.00    +0.218 C 
ATOM      4  O   UNK A   0      10.276  -2.323  22.396  0.00  0.00    -0.275 OA
ENDROOT
BRANCH   1   5
ATOM      5  CA  ASP A   1       7.776  -3.506  22.691  0.00  0.00    +0.192 C 
BRANCH   5   6
ATOM      6  C   ASP A   1       6.612  -4.163  21.965  0.00  0.00    +0.326 C 
ATOM      7  OXT ASP A   1       6.636  -5.348  21.646  0.00  0.00    -0.249 OA
BRANCH   6   8
ATOM      8  O   ASP A   1       5.614  -3.339  21.596  0.00  0.00    -0.479 OA
ATOM      9  H   ASP A   1       5.886  -2.462  21.258  0.00  0.00    +0.295 HD
ENDBRANCH   6   8
ENDBRANCH   5   6
BRANCH   5  10
ATOM     10  CB  ASP A   1       7.511  -3.568  24.192  0.00  0.00    +0.154 C 
BRANCH  10  11
ATOM     11  CG  ASP A   1       8.682  -3.807  25.116  0.00  0.00    +0.307 C 
ATOM     12  OD2 ASP A   1       8.635  -3.471  26.295  0.00  0.00    -0.251 OA
BRANCH  11  13
ATOM     13  OD1 ASP A   1       9.824  -4.280  24.586  0.00  0.00    -0.481 OA
ATOM     14  HD1 ASP A   1      10.517  -3.666  24.255  0.00  0.00    +0.295 HD
ENDBRANCH  11  13
ENDBRANCH  10  11
ENDBRANCH   5  10
ENDBRANCH   1   5
BRANCH   3  15
ATOM     15  C   UNK A   0       9.417  -0.271  21.469  0.00  0.00    +0.133 C 
BRANCH  15  16
ATOM     16  C   UNK A   0       9.610   0.834  22.457  0.00  0.00    -0.014 A 
ATOM     17  C   UNK A   0       8.852   2.047  22.560  0.00  0.00    +0.003 A 
ATOM     18  C   UNK A   0       9.319   2.743  23.676  0.00  0.00    +0.047 A 
ATOM     19  C   UNK A   0       8.786   3.968  24.091  0.00  0.00    +0.026 A 
ATOM     20  C   UNK A   0       7.743   4.507  23.335  0.00  0.00    +0.002 A 
ATOM     21  C   UNK A   0       7.257   3.846  22.212  0.00  0.00    +0.001 A 
ATOM     22  N   UNK A   0      10.333   1.991  24.223  0.00  0.00    -0.360 N 
ATOM     23  H   UNK A   0      10.847   2.248  25.056  0.00  0.00    +0.165 HD
ATOM     24  C   UNK A   0       7.797   2.614  21.817  0.00  0.00    +0.010 A 
ATOM     25  C   UNK A   0      10.519   0.844  23.498  0.00  0.00    +0.087 A 
ENDBRANCH  15  16
ENDBRANCH   3  15
TORSDOF 8
ENDMDL
MODEL 9
REMARK VINA RESULT:      -6.1      3.296      7.014
REMARK  Name = 
REMARK  8 active torsions:
REMARK  status: ('A' for Active; 'I' for Inactive)
REMARK    1  A    between atoms: CA_2  and  CB_3
REMARK    2  A    between atoms: CA_2  and  N_7
REMARK    3  A    between atoms: CA_2  and  C_20
REMARK    4  A    between atoms: CB_3  and  CG_4
REMARK    5  A    between atoms: CG_4  and  OD1_5
REMARK    6  A    between atoms: C_8  and  C_10
REMARK    7  A    between atoms: C_10  and  C_11
REMARK    8  A    between atoms: C_20  and  O_21
REMARK                            x       y       z     vdW  Elec       q    Type
REMARK                         _______ _______ _______ _____ _____    ______ ____
ROOT
ATOM      1  N   ASP A   1       9.191  -1.248  24.222  0.00  0.00    -0.302 N 
ATOM      2  H   ASP A   1       8.509  -1.292  24.978  0.00  0.00    +0.150 HD
ATOM      3  C   UNK A   0       9.766  -2.421  23.782  0.00  0.00    +0.218 C 
ATOM      4  O   UNK A   0      10.524  -2.439  22.813  0.00  0.00    -0.275 OA
ENDROOT
BRANCH   1   5
ATOM      5  CA  ASP A   1       9.414   0.010  23.524  0.00  0.00    +0.192 C 
BRANCH   5   6
ATOM      6  C   ASP A   1       9.626   1.145  24.515  0.00  0.00    +0.326 C 
ATOM      7  OXT ASP A   1      10.460   2.024  24.321  0.00  0.00    -0.249 OA
BRANCH   6   8
ATOM      8  O   ASP A   1       8.926   1.057  25.662  0.00  0.00    -0.479 OA
ATOM      9  H   ASP A   1       8.139   0.477  25.639  0.00  0.00    +0.295 HD
ENDBRANCH   6   8
ENDBRANCH   5   6
BRANCH   5  10
ATOM     10  CB  ASP A   1       8.301   0.406  22.561  0.00  0.00    +0.154 C 
BRANCH  10  11
ATOM     11  CG  ASP A   1       8.427   1.719  21.822  0.00  0.00    +0.307 C 
ATOM     12  OD2 ASP A   1       7.440   2.407  21.584  0.00  0.00    -0.251 OA
BRANCH  11  13
ATOM     13  OD1 ASP A   1       9.629   2.052  21.320  0.00  0.00    -0.481 OA
ATOM     14  HD1 ASP A   1       9.701   2.623  20.524  0.00  0.00    +0.295 HD
ENDBRANCH  11  13
ENDBRANCH  10  11
ENDBRANCH   5  10
ENDBRANCH   1   5
BRANCH   3  15
ATOM     15  C   UNK A   0       9.511  -3.653  24.632  0.00  0.00    +0.133 C 
BRANCH  15  16
ATOM     16  C   UNK A   0       8.069  -4.020  24.776  0.00  0.00    -0.014 A 
ATOM     17  C   UNK A   0       7.235  -4.659  23.800  0.00  0.00    +0.003 A 
ATOM     18  C   UNK A   0       5.992  -4.888  24.393  0.00  0.00    +0.047 A 
ATOM     19  C   UNK A   0       4.935  -5.520  23.730  0.00  0.00    +0.026 A 
ATOM     20  C   UNK A   0       5.150  -5.928  22.412  0.00  0.00    +0.002 A 
ATOM     21  C   UNK A   0       6.373  -5.710  21.786  0.00  0.00    +0.001 A 
ATOM     22  N   UNK A   0       6.060  -4.392  25.675  0.00  0.00    -0.360 N 
ATOM     23  H   UNK A   0       5.302  -4.435  26.343  0.00  0.00    +0.165 HD
ATOM     24  C   UNK A   0       7.425  -5.084  22.470  0.00  0.00    +0.010 A 
ATOM     25  C   UNK A   0       7.302  -3.866  25.916  0.00  0.00    +0.087 A 
ENDBRANCH  15  16
ENDBRANCH   3  15
TORSDOF 8
ENDMDL
