MODEL 1
REMARK VINA RESULT:      -6.0      0.000      0.000
REMARK  Name = 
REMARK  5 active torsions:
REMARK  status: ('A' for Active; 'I' for Inactive)
REMARK    1  A    between atoms: O_1  and  C_2
REMARK    2  A    between atoms: C_6  and  C_7
REMARK    3  A    between atoms: N_8  and  N_9
REMARK    4  A    between atoms: C_10  and  C_12
REMARK    5  A    between atoms: C_18  and  O_19
REMARK                            x       y       z     vdW  Elec       q    Type
REMARK                         _______ _______ _______ _____ _____    ______ ____
ROOT
ATOM      1  C   UNL     1       6.905  -4.765  24.146  0.00  0.00    +0.148 A 
ATOM      2  C   UNL     1       7.430  -4.140  25.284  0.00  0.00    +0.102 A 
ATOM      3 BR   UNL     1       7.105  -4.880  27.011  0.00  0.00    -0.043 Br
ATOM      4  C   UNL     1       8.193  -2.969  25.148  0.00  0.00    +0.143 A 
ATOM      5  C   UNL     1       8.428  -2.430  23.871  0.00  0.00    +0.038 A 
ATOM      6  C   UNL     1       7.904  -3.059  22.735  0.00  0.00    +0.032 A 
ATOM      7  C   UNL     1       7.146  -4.222  22.880  0.00  0.00    +0.061 A 
ATOM      8 BR   UNL     1       6.446  -5.051  21.322  0.00  0.00    -0.046 Br
ENDROOT
BRANCH   1   9
ATOM      9  O   UNL     1       6.159  -5.907  24.285  0.00  0.00    -0.504 OA
ATOM     10  H   UNL     1       5.876  -5.983  25.213  0.00  0.00    +0.292 HD
ENDBRANCH   1   9
BRANCH   4  11
ATOM     11  O   UNL     1       8.695  -2.383  26.283  0.00  0.00    -0.505 OA
ATOM     12  H   UNL     1       9.673  -2.300  26.216  0.00  0.00    +0.292 HD
ENDBRANCH   4  11
BRANCH   5  13
ATOM     13  C   UNL     1       9.225  -1.197  23.667  0.00  0.00    +0.142 C 
ATOM     14  N   UNL     1       9.003  -0.159  24.406  0.00  0.00    -0.187 NA
BRANCH  14  15
ATOM     15  N   UNL     1       9.771   0.945  24.191  0.00  0.00    -0.203 N 
ATOM     16  H   UNL     1      10.772   0.891  24.333  0.00  0.00    +0.178 HD
ATOM     17  C   UNL     1       9.115   2.149  23.960  0.00  0.00    +0.265 C 
ATOM     18  O   UNL     1       7.893   2.272  23.927  0.00  0.00    -0.268 OA
BRANCH  17  19
ATOM     19  C   UNL     1       9.955   3.355  23.783  0.00  0.00    +0.056 A 
ATOM     20  C   UNL     1       9.394   4.615  24.009  0.00  0.00    +0.016 A 
ATOM     21  C   UNL     1      10.169   5.760  23.834  0.00  0.00    +0.020 A 
ATOM     22  C   UNL     1      11.486   5.602  23.433  0.00  0.00    +0.111 A 
ATOM     23  N   UNL     1      12.058   4.399  23.193  0.00  0.00    -0.263 NA
ATOM     24  C   UNL     1      11.275   3.305  23.360  0.00  0.00    +0.123 A 
ENDBRANCH  17  19
ENDBRANCH  14  15
ENDBRANCH   5  13
TORSDOF 5
ENDMDL
MODEL 2
REMARK VINA RESULT:      -5.9      4.041      8.318
REMARK  Name = 
REMARK  5 active torsions:
REMARK  status: ('A' for Active; 'I' for Inactive)
REMARK    1  A    between atoms: O_1  and  C_2
REMARK    2  A    between atoms: C_6  and  C_7
REMARK    3  A    between atoms: N_8  and  N_9
REMARK    4  A    between atoms: C_10  and  C_12
REMARK    5  A    between atoms: C_18  and  O_19
REMARK                            x       y       z     vdW  Elec       q    Type
REMARK                         _______ _______ _______ _____ _____    ______ ____
ROOT
ATOM      1  C   UNL     1      10.173   5.213  24.094  0.00  0.00    +0.148 A 
ATOM      2  C   UNL     1       8.974   4.605  24.489  0.00  0.00    +0.102 A 
ATOM      3 BR   UNL     1       7.583   5.657  25.256  0.00  0.00    -0.043 Br
ATOM      4  C   UNL     1       8.804   3.222  24.319  0.00  0.00    +0.143 A 
ATOM      5  C   UNL     1       9.836   2.453  23.751  0.00  0.00    +0.038 A 
ATOM      6  C   UNL     1      11.031   3.064  23.355  0.00  0.00    +0.032 A 
ATOM      7  C   UNL     1      11.193   4.440  23.529  0.00  0.00    +0.061 A 
ATOM      8 BR   UNL     1      12.826   5.240  22.986  0.00  0.00    -0.046 Br
ENDROOT
BRANCH   1   9
ATOM      9  O   UNL     1      10.335   6.564  24.265  0.00  0.00    -0.504 OA
ATOM     10  H   UNL     1       9.828   7.028  23.576  0.00  0.00    +0.292 HD
ENDBRANCH   1   9
BRANCH   4  11
ATOM     11  O   UNL     1       7.617   2.658  24.714  0.00  0.00    -0.505 OA
ATOM     12  H   UNL     1       7.300   3.084  25.543  0.00  0.00    +0.292 HD
ENDBRANCH   4  11
BRANCH   5  13
ATOM     13  C   UNL     1       9.713   0.990  23.548  0.00  0.00    +0.142 C 
ATOM     14  N   UNL     1       9.054   0.276  24.402  0.00  0.00    -0.187 NA
BRANCH  14  15
ATOM     15  N   UNL     1       8.955  -1.061  24.164  0.00  0.00    -0.203 N 
ATOM     16  H   UNL     1       9.767  -1.652  24.296  0.00  0.00    +0.178 HD
ATOM     17  C   UNL     1       7.784  -1.526  23.575  0.00  0.00    +0.265 C 
ATOM     18  O   UNL     1       6.836  -0.806  23.269  0.00  0.00    -0.268 OA
BRANCH  17  19
ATOM     19  C   UNL     1       7.707  -2.971  23.269  0.00  0.00    +0.056 A 
ATOM     20  C   UNL     1       6.891  -3.403  22.220  0.00  0.00    +0.016 A 
ATOM     21  C   UNL     1       6.798  -4.762  21.928  0.00  0.00    +0.020 A 
ATOM     22  C   UNL     1       7.528  -5.648  22.705  0.00  0.00    +0.111 A 
ATOM     23  N   UNL     1       8.318  -5.267  23.735  0.00  0.00    -0.263 NA
ATOM     24  C   UNL     1       8.378  -3.939  24.002  0.00  0.00    +0.123 A 
ENDBRANCH  17  19
ENDBRANCH  14  15
ENDBRANCH   5  13
TORSDOF 5
ENDMDL
MODEL 3
REMARK VINA RESULT:      -5.7      3.984      8.455
REMARK  Name = 
REMARK  5 active torsions:
REMARK  status: ('A' for Active; 'I' for Inactive)
REMARK    1  A    between atoms: O_1  and  C_2
REMARK    2  A    between atoms: C_6  and  C_7
REMARK    3  A    between atoms: N_8  and  N_9
REMARK    4  A    between atoms: C_10  and  C_12
REMARK    5  A    between atoms: C_18  and  O_19
REMARK                            x       y       z     vdW  Elec       q    Type
REMARK                         _______ _______ _______ _____ _____    ______ ____
ROOT
ATOM      1  C   UNL     1       9.097   4.848  24.840  0.00  0.00    +0.148 A 
ATOM      2  C   UNL     1       9.954   4.300  23.877  0.00  0.00    +0.102 A 
ATOM      3 BR   UNL     1      11.573   5.196  23.424  0.00  0.00    -0.043 Br
ATOM      4  C   UNL     1       9.615   3.091  23.248  0.00  0.00    +0.143 A 
ATOM      5  C   UNL     1       8.417   2.436  23.588  0.00  0.00    +0.038 A 
ATOM      6  C   UNL     1       7.565   2.985  24.553  0.00  0.00    +0.032 A 
ATOM      7  C   UNL     1       7.910   4.188  25.172  0.00  0.00    +0.061 A 
ATOM      8 BR   UNL     1       6.733   4.910  26.474  0.00  0.00    -0.046 Br
ENDROOT
BRANCH   1   9
ATOM      9  O   UNL     1       9.432   6.030  25.449  0.00  0.00    -0.504 OA
ATOM     10  H   UNL     1       8.667   6.344  25.961  0.00  0.00    +0.292 HD
ENDBRANCH   1   9
BRANCH   4  11
ATOM     11  O   UNL     1      10.476   2.580  22.310  0.00  0.00    -0.505 OA
ATOM     12  H   UNL     1      10.030   2.525  21.435  0.00  0.00    +0.292 HD
ENDBRANCH   4  11
BRANCH   5  13
ATOM     13  C   UNL     1       8.008   1.159  22.957  0.00  0.00    +0.142 C 
ATOM     14  N   UNL     1       8.686   0.082  23.187  0.00  0.00    -0.187 NA
BRANCH  14  15
ATOM     15  N   UNL     1       8.262  -1.070  22.597  0.00  0.00    -0.203 N 
ATOM     16  H   UNL     1       8.279  -1.148  21.587  0.00  0.00    +0.178 HD
ATOM     17  C   UNL     1       7.654  -2.023  23.407  0.00  0.00    +0.265 C 
ATOM     18  O   UNL     1       7.489  -1.891  24.618  0.00  0.00    -0.268 OA
BRANCH  17  19
ATOM     19  C   UNL     1       7.146  -3.246  22.749  0.00  0.00    +0.056 A 
ATOM     20  C   UNL     1       7.723  -4.480  23.064  0.00  0.00    +0.016 A 
ATOM     21  C   UNL     1       7.264  -5.639  22.443  0.00  0.00    +0.020 A 
ATOM     22  C   UNL     1       6.238  -5.522  21.518  0.00  0.00    +0.111 A 
ATOM     23  N   UNL     1       5.664  -4.344  21.180  0.00  0.00    -0.263 NA
ATOM     24  C   UNL     1       6.141  -3.232  21.792  0.00  0.00    +0.123 A 
ENDBRANCH  17  19
ENDBRANCH  14  15
ENDBRANCH   5  13
TORSDOF 5
ENDMDL
MODEL 4
REMARK VINA RESULT:      -5.5      2.578      3.517
REMARK  Name = 
REMARK  5 active torsions:
REMARK  status: ('A' for Active; 'I' for Inactive)
REMARK    1  A    between atoms: O_1  and  C_2
REMARK    2  A    between atoms: C_6  and  C_7
REMARK    3  A    between atoms: N_8  and  N_9
REMARK    4  A    between atoms: C_10  and  C_12
REMARK    5  A    between atoms: C_18  and  O_19
REMARK                            x       y       z     vdW  Elec       q    Type
REMARK                         _______ _______ _______ _____ _____    ______ ____
ROOT
ATOM      1  C   UNL     1       4.353  -6.612  26.036  0.00  0.00    +0.148 A 
ATOM      2  C   UNL     1       5.331  -6.187  26.944  0.00  0.00    +0.102 A 
ATOM      3 BR   UNL     1       5.383  -6.923  28.701  0.00  0.00    -0.043 Br
ATOM      4  C   UNL     1       6.270  -5.217  26.555  0.00  0.00    +0.143 A 
ATOM      5  C   UNL     1       6.224  -4.679  25.256  0.00  0.00    +0.038 A 
ATOM      6  C   UNL     1       5.247  -5.109  24.351  0.00  0.00    +0.032 A 
ATOM      7  C   UNL     1       4.316  -6.072  24.747  0.00  0.00    +0.061 A 
ATOM      8 BR   UNL     1       3.001  -6.631  23.499  0.00  0.00    -0.046 Br
ENDROOT
BRANCH   1   9
ATOM      9  O   UNL     1       3.437  -7.556  26.423  0.00  0.00    -0.504 OA
ATOM     10  H   UNL     1       2.861  -7.170  27.107  0.00  0.00    +0.292 HD
ENDBRANCH   1   9
BRANCH   4  11
ATOM     11  O   UNL     1       7.217  -4.824  27.467  0.00  0.00    -0.505 OA
ATOM     12  H   UNL     1       7.918  -5.510  27.543  0.00  0.00    +0.292 HD
ENDBRANCH   4  11
BRANCH   5  13
ATOM     13  C   UNL     1       7.188  -3.654  24.791  0.00  0.00    +0.142 C 
ATOM     14  N   UNL     1       7.192  -2.481  25.336  0.00  0.00    -0.187 NA
BRANCH  14  15
ATOM     15  N   UNL     1       8.106  -1.578  24.885  0.00  0.00    -0.203 N 
ATOM     16  H   UNL     1       9.047  -1.590  25.260  0.00  0.00    +0.178 HD
ATOM     17  C   UNL     1       7.649  -0.558  24.057  0.00  0.00    +0.265 C 
ATOM     18  O   UNL     1       6.479  -0.433  23.702  0.00  0.00    -0.268 OA
BRANCH  17  19
ATOM     19  C   UNL     1       8.636   0.451  23.617  0.00  0.00    +0.056 A 
ATOM     20  C   UNL     1       8.781   0.714  22.252  0.00  0.00    +0.016 A 
ATOM     21  C   UNL     1       9.716   1.652  21.821  0.00  0.00    +0.020 A 
ATOM     22  C   UNL     1      10.482   2.297  22.780  0.00  0.00    +0.111 A 
ATOM     23  N   UNL     1      10.378   2.060  24.108  0.00  0.00    -0.263 NA
ATOM     24  C   UNL     1       9.468   1.132  24.494  0.00  0.00    +0.123 A 
ENDBRANCH  17  19
ENDBRANCH  14  15
ENDBRANCH   5  13
TORSDOF 5
ENDMDL
MODEL 5
REMARK VINA RESULT:      -5.5      1.661      2.143
REMARK  Name = 
REMARK  5 active torsions:
REMARK  status: ('A' for Active; 'I' for Inactive)
REMARK    1  A    between atoms: O_1  and  C_2
REMARK    2  A    between atoms: C_6  and  C_7
REMARK    3  A    between atoms: N_8  and  N_9
REMARK    4  A    between atoms: C_10  and  C_12
REMARK    5  A    between atoms: C_18  and  O_19
REMARK                            x       y       z     vdW  Elec       q    Type
REMARK                         _______ _______ _______ _____ _____    ______ ____
ROOT
ATOM      1  C   UNL     1       5.734  -5.931  23.627  0.00  0.00    +0.148 A 
ATOM      2  C   UNL     1       5.842  -5.366  24.904  0.00  0.00    +0.102 A 
ATOM      3 BR   UNL     1       5.047  -6.238  26.400  0.00  0.00    -0.043 Br
ATOM      4  C   UNL     1       6.534  -4.157  25.076  0.00  0.00    +0.143 A 
ATOM      5  C   UNL     1       7.118  -3.519  23.966  0.00  0.00    +0.038 A 
ATOM      6  C   UNL     1       7.011  -4.088  22.692  0.00  0.00    +0.032 A 
ATOM      7  C   UNL     1       6.319  -5.290  22.529  0.00  0.00    +0.061 A 
ATOM      8 BR   UNL     1       6.187  -6.035  20.790  0.00  0.00    -0.046 Br
ENDROOT
BRANCH   1   9
ATOM      9  O   UNL     1       5.053  -7.110  23.464  0.00  0.00    -0.504 OA
ATOM     10  H   UNL     1       4.683  -7.377  24.324  0.00  0.00    +0.292 HD
ENDBRANCH   1   9
BRANCH   4  11
ATOM     11  O   UNL     1       6.624  -3.631  26.340  0.00  0.00    -0.505 OA
ATOM     12  H   UNL     1       7.557  -3.389  26.540  0.00  0.00    +0.292 HD
ENDBRANCH   4  11
BRANCH   5  13
ATOM     13  C   UNL     1       7.860  -2.242  24.087  0.00  0.00    +0.142 C 
ATOM     14  N   UNL     1       8.128  -1.551  23.027  0.00  0.00    -0.187 NA
BRANCH  14  15
ATOM     15  N   UNL     1       8.800  -0.378  23.191  0.00  0.00    -0.203 N 
ATOM     16  H   UNL     1       9.740  -0.389  23.567  0.00  0.00    +0.178 HD
ATOM     17  C   UNL     1       8.089   0.802  23.000  0.00  0.00    +0.265 C 
ATOM     18  O   UNL     1       6.902   0.847  22.684  0.00  0.00    -0.268 OA
BRANCH  17  19
ATOM     19  C   UNL     1       8.809   2.073  23.235  0.00  0.00    +0.056 A 
ATOM     20  C   UNL     1      10.206   2.081  23.193  0.00  0.00    +0.016 A 
ATOM     21  C   UNL     1      10.899   3.268  23.426  0.00  0.00    +0.020 A 
ATOM     22  C   UNL     1      10.164   4.411  23.697  0.00  0.00    +0.111 A 
ATOM     23  N   UNL     1       8.813   4.437  23.757  0.00  0.00    -0.263 NA
ATOM     24  C   UNL     1       8.167   3.265  23.539  0.00  0.00    +0.123 A 
ENDBRANCH  17  19
ENDBRANCH  14  15
ENDBRANCH   5  13
TORSDOF 5
ENDMDL
MODEL 6
REMARK VINA RESULT:      -5.4      2.713      4.309
REMARK  Name = 
REMARK  5 active torsions:
REMARK  status: ('A' for Active; 'I' for Inactive)
REMARK    1  A    between atoms: O_1  and  C_2
REMARK    2  A    between atoms: C_6  and  C_7
REMARK    3  A    between atoms: N_8  and  N_9
REMARK    4  A    between atoms: C_10  and  C_12
REMARK    5  A    between atoms: C_18  and  O_19
REMARK                            x       y       z     vdW  Elec       q    Type
REMARK                         _______ _______ _______ _____ _____    ______ ____
ROOT
ATOM      1  C   UNL     1       3.994  -6.616  25.646  0.00  0.00    +0.148 A 
ATOM      2  C   UNL     1       3.802  -6.103  24.357  0.00  0.00    +0.102 A 
ATOM      3 BR   UNL     1       2.349  -6.727  23.292  0.00  0.00    -0.043 Br
ATOM      4  C   UNL     1       4.681  -5.131  23.854  0.00  0.00    +0.143 A 
ATOM      5  C   UNL     1       5.751  -4.676  24.647  0.00  0.00    +0.038 A 
ATOM      6  C   UNL     1       5.938  -5.189  25.936  0.00  0.00    +0.032 A 
ATOM      7  C   UNL     1       5.060  -6.157  26.427  0.00  0.00    +0.061 A 
ATOM      8 BR   UNL     1       5.341  -6.835  28.176  0.00  0.00    -0.046 Br
ENDROOT
BRANCH   1   9
ATOM      9  O   UNL     1       3.134  -7.568  26.131  0.00  0.00    -0.504 OA
ATOM     10  H   UNL     1       3.365  -7.753  27.058  0.00  0.00    +0.292 HD
ENDBRANCH   1   9
BRANCH   4  11
ATOM     11  O   UNL     1       4.464  -4.647  22.589  0.00  0.00    -0.505 OA
ATOM     12  H   UNL     1       4.787  -3.720  22.522  0.00  0.00    +0.292 HD
ENDBRANCH   4  11
BRANCH   5  13
ATOM     13  C   UNL     1       6.710  -3.653  24.169  0.00  0.00    +0.142 C 
ATOM     14  N   UNL     1       6.272  -2.528  23.706  0.00  0.00    -0.187 NA
BRANCH  14  15
ATOM     15  N   UNL     1       7.192  -1.613  23.292  0.00  0.00    -0.203 N 
ATOM     16  H   UNL     1       7.866  -1.870  22.580  0.00  0.00    +0.178 HD
ATOM     17  C   UNL     1       7.278  -0.420  24.001  0.00  0.00    +0.265 C 
ATOM     18  O   UNL     1       6.568  -0.140  24.965  0.00  0.00    -0.268 OA
BRANCH  17  19
ATOM     19  C   UNL     1       8.318   0.545  23.581  0.00  0.00    +0.056 A 
ATOM     20  C   UNL     1       8.648   0.644  22.227  0.00  0.00    +0.016 A 
ATOM     21  C   UNL     1       9.635   1.539  21.818  0.00  0.00    +0.020 A 
ATOM     22  C   UNL     1      10.264   2.304  22.787  0.00  0.00    +0.111 A 
ATOM     23  N   UNL     1       9.980   2.225  24.107  0.00  0.00    -0.263 NA
ATOM     24  C   UNL     1       9.024   1.337  24.475  0.00  0.00    +0.123 A 
ENDBRANCH  17  19
ENDBRANCH  14  15
ENDBRANCH   5  13
TORSDOF 5
ENDMDL
MODEL 7
REMARK VINA RESULT:      -5.4      1.874      2.110
REMARK  Name = 
REMARK  5 active torsions:
REMARK  status: ('A' for Active; 'I' for Inactive)
REMARK    1  A    between atoms: O_1  and  C_2
REMARK    2  A    between atoms: C_6  and  C_7
REMARK    3  A    between atoms: N_8  and  N_9
REMARK    4  A    between atoms: C_10  and  C_12
REMARK    5  A    between atoms: C_18  and  O_19
REMARK                            x       y       z     vdW  Elec       q    Type
REMARK                         _______ _______ _______ _____ _____    ______ ____
ROOT
ATOM      1  C   UNL     1       7.750  -4.674  23.699  0.00  0.00    +0.148 A 
ATOM      2  C   UNL     1       8.295  -3.773  24.622  0.00  0.00    +0.102 A 
ATOM      3 BR   UNL     1       9.075  -4.420  26.236  0.00  0.00    -0.043 Br
ATOM      4  C   UNL     1       8.263  -2.395  24.355  0.00  0.00    +0.143 A 
ATOM      5  C   UNL     1       7.685  -1.925  23.161  0.00  0.00    +0.038 A 
ATOM      6  C   UNL     1       7.144  -2.829  22.240  0.00  0.00    +0.032 A 
ATOM      7  C   UNL     1       7.179  -4.198  22.514  0.00  0.00    +0.061 A 
ATOM      8 BR   UNL     1       6.435  -5.398  21.247  0.00  0.00    -0.046 Br
ENDROOT
BRANCH   1   9
ATOM      9  O   UNL     1       7.782  -6.018  23.966  0.00  0.00    -0.504 OA
ATOM     10  H   UNL     1       7.605  -6.504  23.142  0.00  0.00    +0.292 HD
ENDBRANCH   1   9
BRANCH   4  11
ATOM     11  O   UNL     1       8.807  -1.538  25.279  0.00  0.00    -0.505 OA
ATOM     12  H   UNL     1       8.092  -1.086  25.782  0.00  0.00    +0.292 HD
ENDBRANCH   4  11
BRANCH   5  13
ATOM     13  C   UNL     1       7.622  -0.483  22.826  0.00  0.00    +0.142 C 
ATOM     14  N   UNL     1       7.230   0.367  23.719  0.00  0.00    -0.187 NA
BRANCH  14  15
ATOM     15  N   UNL     1       7.203   1.683  23.369  0.00  0.00    -0.203 N 
ATOM     16  H   UNL     1       6.518   2.007  22.696  0.00  0.00    +0.178 HD
ATOM     17  C   UNL     1       8.242   2.491  23.820  0.00  0.00    +0.265 C 
ATOM     18  O   UNL     1       9.170   2.091  24.519  0.00  0.00    -0.268 OA
BRANCH  17  19
ATOM     19  C   UNL     1       8.236   3.906  23.389  0.00  0.00    +0.056 A 
ATOM     20  C   UNL     1       9.169   4.790  23.939  0.00  0.00    +0.016 A 
ATOM     21  C   UNL     1       9.167   6.128  23.552  0.00  0.00    +0.020 A 
ATOM     22  C   UNL     1       8.222   6.539  22.625  0.00  0.00    +0.111 A 
ATOM     23  N   UNL     1       7.297   5.714  22.082  0.00  0.00    -0.263 NA
ATOM     24  C   UNL     1       7.316   4.421  22.487  0.00  0.00    +0.123 A 
ENDBRANCH  17  19
ENDBRANCH  14  15
ENDBRANCH   5  13
TORSDOF 5
ENDMDL
MODEL 8
REMARK VINA RESULT:      -5.2      4.693      9.414
REMARK  Name = 
REMARK  5 active torsions:
REMARK  status: ('A' for Active; 'I' for Inactive)
REMARK    1  A    between atoms: O_1  and  C_2
REMARK    2  A    between atoms: C_6  and  C_7
REMARK    3  A    between atoms: N_8  and  N_9
REMARK    4  A    between atoms: C_10  and  C_12
REMARK    5  A    between atoms: C_18  and  O_19
REMARK                            x       y       z     vdW  Elec       q    Type
REMARK                         _______ _______ _______ _____ _____    ______ ____
ROOT
ATOM      1  C   UNL     1       8.214   0.809  23.725  0.00  0.00    +0.148 A 
ATOM      2  C   UNL     1       8.266  -0.302  22.874  0.00  0.00    +0.102 A 
ATOM      3 BR   UNL     1       9.571  -0.378  21.487  0.00  0.00    -0.043 Br
ATOM      4  C   UNL     1       7.355  -1.356  23.047  0.00  0.00    +0.143 A 
ATOM      5  C   UNL     1       6.396  -1.293  24.073  0.00  0.00    +0.038 A 
ATOM      6  C   UNL     1       6.349  -0.182  24.923  0.00  0.00    +0.032 A 
ATOM      7  C   UNL     1       7.257   0.863  24.744  0.00  0.00    +0.061 A 
ATOM      8 BR   UNL     1       7.167   2.357  25.909  0.00  0.00    -0.046 Br
ENDROOT
BRANCH   1   9
ATOM      9  O   UNL     1       9.104   1.837  23.550  0.00  0.00    -0.504 OA
ATOM     10  H   UNL     1       9.168   2.035  22.599  0.00  0.00    +0.292 HD
ENDBRANCH   1   9
BRANCH   4  11
ATOM     11  O   UNL     1       7.434  -2.432  22.198  0.00  0.00    -0.505 OA
ATOM     12  H   UNL     1       8.204  -2.330  21.594  0.00  0.00    +0.292 HD
ENDBRANCH   4  11
BRANCH   5  13
ATOM     13  C   UNL     1       5.409  -2.375  24.303  0.00  0.00    +0.142 C 
ATOM     14  N   UNL     1       5.767  -3.610  24.163  0.00  0.00    -0.187 NA
BRANCH  14  15
ATOM     15  N   UNL     1       4.829  -4.570  24.399  0.00  0.00    -0.203 N 
ATOM     16  H   UNL     1       4.549  -4.769  25.352  0.00  0.00    +0.178 HD
ATOM     17  C   UNL     1       4.431  -5.359  23.325  0.00  0.00    +0.265 C 
ATOM     18  O   UNL     1       4.865  -5.234  22.182  0.00  0.00    -0.268 OA
BRANCH  17  19
ATOM     19  C   UNL     1       3.455  -6.435  23.601  0.00  0.00    +0.056 A 
ATOM     20  C   UNL     1       2.225  -6.426  22.937  0.00  0.00    +0.016 A 
ATOM     21  C   UNL     1       1.290  -7.426  23.197  0.00  0.00    +0.020 A 
ATOM     22  C   UNL     1       1.621  -8.405  24.120  0.00  0.00    +0.111 A 
ATOM     23  N   UNL     1       2.796  -8.439  24.790  0.00  0.00    -0.263 NA
ATOM     24  C   UNL     1       3.680  -7.445  24.525  0.00  0.00    +0.123 A 
ENDBRANCH  17  19
ENDBRANCH  14  15
ENDBRANCH   5  13
TORSDOF 5
ENDMDL
MODEL 9
REMARK VINA RESULT:      -5.2      4.379      8.944
REMARK  Name = 
REMARK  5 active torsions:
REMARK  status: ('A' for Active; 'I' for Inactive)
REMARK    1  A    between atoms: O_1  and  C_2
REMARK    2  A    between atoms: C_6  and  C_7
REMARK    3  A    between atoms: N_8  and  N_9
REMARK    4  A    between atoms: C_10  and  C_12
REMARK    5  A    between atoms: C_18  and  O_19
REMARK                            x       y       z     vdW  Elec       q    Type
REMARK                         _______ _______ _______ _____ _____    ______ ____
ROOT
ATOM      1  C   UNL     1       8.420   2.493  23.551  0.00  0.00    +0.148 A 
ATOM      2  C   UNL     1       7.028   2.625  23.466  0.00  0.00    +0.102 A 
ATOM      3 BR   UNL     1       6.261   4.298  22.970  0.00  0.00    -0.043 Br
ATOM      4  C   UNL     1       6.204   1.525  23.749  0.00  0.00    +0.143 A 
ATOM      5  C   UNL     1       6.779   0.294  24.114  0.00  0.00    +0.038 A 
ATOM      6  C   UNL     1       8.170   0.164  24.195  0.00  0.00    +0.032 A 
ATOM      7  C   UNL     1       8.983   1.264  23.913  0.00  0.00    +0.061 A 
ATOM      8 BR   UNL     1      10.865   1.059  24.035  0.00  0.00    -0.046 Br
ENDROOT
BRANCH   1   9
ATOM      9  O   UNL     1       9.220   3.572  23.277  0.00  0.00    -0.504 OA
ATOM     10  H   UNL     1       8.713   4.209  22.743  0.00  0.00    +0.292 HD
ENDBRANCH   1   9
BRANCH   4  11
ATOM     11  O   UNL     1       4.845   1.687  23.654  0.00  0.00    -0.505 OA
ATOM     12  H   UNL     1       4.624   2.641  23.555  0.00  0.00    +0.292 HD
ENDBRANCH   4  11
BRANCH   5  13
ATOM     13  C   UNL     1       5.959  -0.901  24.424  0.00  0.00    +0.142 C 
ATOM     14  N   UNL     1       6.269  -2.045  23.905  0.00  0.00    -0.187 NA
BRANCH  14  15
ATOM     15  N   UNL     1       5.495  -3.117  24.231  0.00  0.00    -0.203 N 
ATOM     16  H   UNL     1       5.395  -3.384  25.203  0.00  0.00    +0.178 HD
ATOM     17  C   UNL     1       5.020  -3.908  23.190  0.00  0.00    +0.265 C 
ATOM     18  O   UNL     1       5.248  -3.691  22.003  0.00  0.00    -0.268 OA
BRANCH  17  19
ATOM     19  C   UNL     1       4.227  -5.103  23.555  0.00  0.00    +0.056 A 
ATOM     20  C   UNL     1       2.834  -5.049  23.466  0.00  0.00    +0.016 A 
ATOM     21  C   UNL     1       2.073  -6.162  23.819  0.00  0.00    +0.020 A 
ATOM     22  C   UNL     1       2.739  -7.296  24.255  0.00  0.00    +0.111 A 
ATOM     23  N   UNL     1       4.085  -7.380  24.366  0.00  0.00    -0.263 NA
ATOM     24  C   UNL     1       4.797  -6.277  24.027  0.00  0.00    +0.123 A 
ENDBRANCH  17  19
ENDBRANCH  14  15
ENDBRANCH   5  13
TORSDOF 5
ENDMDL
