MODEL 1
REMARK VINA RESULT:      -7.1      0.000      0.000
REMARK  Name = 
REMARK  5 active torsions:
REMARK  status: ('A' for Active; 'I' for Inactive)
REMARK    1  A    between atoms: CA_2  and  C_3
REMARK    2  A    between atoms: C_3  and  O_4
REMARK    3  A    between atoms: C_9  and  S_14
REMARK    4  A    between atoms: S_14  and  N_17
REMARK    5  A    between atoms: N_17  and  C_18
REMARK                            x       y       z     vdW  Elec       q    Type
REMARK                         _______ _______ _______ _____ _____    ______ ____
ROOT
ATOM      1  CA  UNL     1       4.337  -6.375  24.581  0.00  0.00    +0.084 C 
ATOM      2  N   UNL     1       4.972  -6.743  23.292  0.00  0.00    -0.307 NA
ATOM      3  H   UNL     1       5.713  -7.424  23.475  0.00  0.00    +0.123 HD
ATOM      4  C   UNL     1       5.597  -5.552  22.695  0.00  0.00    +0.117 C 
ATOM      5  C   UNL     1       6.506  -4.798  23.643  0.00  0.00    -0.028 A 
ATOM      6  C   UNL     1       6.379  -4.949  25.038  0.00  0.00    -0.041 A 
ATOM      7  C   UNL     1       7.199  -4.208  25.901  0.00  0.00    +0.006 A 
ATOM      8  C   UNL     1       8.117  -3.293  25.389  0.00  0.00    +0.029 A 
ATOM      9  C   UNL     1       8.237  -3.132  24.005  0.00  0.00    +0.109 A 
ATOM     10  C   UNL     1       7.427  -3.868  23.133  0.00  0.00    +0.034 A 
ATOM     11  C   UNL     1       5.390  -5.939  25.612  0.00  0.00    +0.056 C 
ENDROOT
BRANCH   9  12
ATOM     12  S   UNL     1       9.341  -1.887  23.365  0.00  0.00    +0.072 S 
ATOM     13  O   UNL     1       8.595  -1.116  22.392  0.00  0.00    -0.150 OA
ATOM     14  O   UNL     1      10.589  -2.531  23.016  0.00  0.00    -0.150 OA
BRANCH  12  15
ATOM     15  N   UNL     1       9.595  -0.856  24.674  0.00  0.00    -0.216 N 
ATOM     16  H   UNL     1      10.223  -1.243  25.376  0.00  0.00    +0.174 HD
BRANCH  15  17
ATOM     17  C   UNL     1       9.576   0.547  24.483  0.00  0.00    +0.048 A 
ATOM     18  C   UNL     1      10.633   1.173  23.826  0.00  0.00    +0.026 A 
ATOM     19  C   UNL     1      10.607   2.556  23.634  0.00  0.00    +0.022 A 
ATOM     20  C   UNL     1       9.530   3.304  24.112  0.00  0.00    +0.041 A 
ATOM     21 CL   UNL     1       9.509   5.010  23.883  0.00  0.00    -0.084 Cl
ATOM     22  C   UNL     1       8.474   2.679  24.772  0.00  0.00    +0.022 A 
ATOM     23  C   UNL     1       8.491   1.293  24.948  0.00  0.00    +0.026 A 
ENDBRANCH  15  17
ENDBRANCH  12  15
ENDBRANCH   9  12
BRANCH   1  24
ATOM     24  C   UNL     1       3.522  -7.571  25.105  0.00  0.00    +0.174 C 
BRANCH  24  25
ATOM     25  O   UNL     1       2.975  -8.299  24.008  0.00  0.00    -0.393 OA
ATOM     26  H   UNL     1       2.322  -8.908  24.410  0.00  0.00    +0.209 HD
ENDBRANCH  24  25
ENDBRANCH   1  24
TORSDOF 5
ENDMDL
MODEL 2
REMARK VINA RESULT:      -7.1      2.174      2.470
REMARK  Name = 
REMARK  5 active torsions:
REMARK  status: ('A' for Active; 'I' for Inactive)
REMARK    1  A    between atoms: CA_2  and  C_3
REMARK    2  A    between atoms: C_3  and  O_4
REMARK    3  A    between atoms: C_9  and  S_14
REMARK    4  A    between atoms: S_14  and  N_17
REMARK    5  A    between atoms: N_17  and  C_18
REMARK                            x       y       z     vdW  Elec       q    Type
REMARK                         _______ _______ _______ _____ _____    ______ ____
ROOT
ATOM      1  CA  UNL     1       3.157  -6.999  25.105  0.00  0.00    +0.084 C 
ATOM      2  N   UNL     1       3.788  -7.343  23.807  0.00  0.00    -0.307 NA
ATOM      3  H   UNL     1       4.373  -8.171  23.936  0.00  0.00    +0.123 HD
ATOM      4  C   UNL     1       4.663  -6.239  23.380  0.00  0.00    +0.117 C 
ATOM      5  C   UNL     1       5.640  -5.786  24.445  0.00  0.00    -0.028 A 
ATOM      6  C   UNL     1       5.402  -6.060  25.807  0.00  0.00    -0.041 A 
ATOM      7  C   UNL     1       6.293  -5.592  26.783  0.00  0.00    +0.006 A 
ATOM      8  C   UNL     1       7.399  -4.825  26.418  0.00  0.00    +0.029 A 
ATOM      9  C   UNL     1       7.631  -4.541  25.069  0.00  0.00    +0.109 A 
ATOM     10  C   UNL     1       6.751  -5.005  24.085  0.00  0.00    +0.034 A 
ATOM     11  C   UNL     1       4.209  -6.893  26.220  0.00  0.00    +0.056 C 
ENDROOT
BRANCH   9  12
ATOM     12  S   UNL     1       8.989  -3.475  24.624  0.00  0.00    +0.072 S 
ATOM     13  O   UNL     1      10.168  -4.310  24.516  0.00  0.00    -0.150 OA
ATOM     14  O   UNL     1       8.962  -2.325  25.501  0.00  0.00    -0.150 OA
BRANCH  12  15
ATOM     15  N   UNL     1       8.625  -2.985  23.053  0.00  0.00    -0.216 N 
ATOM     16  H   UNL     1       8.060  -3.660  22.541  0.00  0.00    +0.174 HD
BRANCH  15  17
ATOM     17  C   UNL     1       8.464  -1.609  22.761  0.00  0.00    +0.048 A 
ATOM     18  C   UNL     1       9.500  -0.903  22.151  0.00  0.00    +0.026 A 
ATOM     19  C   UNL     1       9.335   0.452  21.859  0.00  0.00    +0.022 A 
ATOM     20  C   UNL     1       8.141   1.095  22.190  0.00  0.00    +0.041 A 
ATOM     21 CL   UNL     1       7.949   2.768  21.838  0.00  0.00    -0.084 Cl
ATOM     22  C   UNL     1       7.106   0.390  22.802  0.00  0.00    +0.022 A 
ATOM     23  C   UNL     1       7.264  -0.970  23.078  0.00  0.00    +0.026 A 
ENDBRANCH  15  17
ENDBRANCH  12  15
ENDBRANCH   9  12
BRANCH   1  24
ATOM     24  C   UNL     1       2.099  -8.062  25.452  0.00  0.00    +0.174 C 
BRANCH  24  25
ATOM     25  O   UNL     1       2.595  -9.359  25.127  0.00  0.00    -0.393 OA
ATOM     26  H   UNL     1       2.549  -9.409  24.150  0.00  0.00    +0.209 HD
ENDBRANCH  24  25
ENDBRANCH   1  24
TORSDOF 5
ENDMDL
MODEL 3
REMARK VINA RESULT:      -7.0      1.979      2.482
REMARK  Name = 
REMARK  5 active torsions:
REMARK  status: ('A' for Active; 'I' for Inactive)
REMARK    1  A    between atoms: CA_2  and  C_3
REMARK    2  A    between atoms: C_3  and  O_4
REMARK    3  A    between atoms: C_9  and  S_14
REMARK    4  A    between atoms: S_14  and  N_17
REMARK    5  A    between atoms: N_17  and  C_18
REMARK                            x       y       z     vdW  Elec       q    Type
REMARK                         _______ _______ _______ _____ _____    ______ ____
ROOT
ATOM      1  CA  UNL     1       5.982  -6.058  26.692  0.00  0.00    +0.084 C 
ATOM      2  N   UNL     1       7.161  -5.692  27.513  0.00  0.00    -0.307 NA
ATOM      3  H   UNL     1       6.900  -4.928  28.140  0.00  0.00    +0.123 HD
ATOM      4  C   UNL     1       8.237  -5.202  26.636  0.00  0.00    +0.117 C 
ATOM      5  C   UNL     1       7.794  -4.124  25.669  0.00  0.00    -0.028 A 
ATOM      6  C   UNL     1       6.434  -3.969  25.334  0.00  0.00    -0.041 A 
ATOM      7  C   UNL     1       6.048  -2.995  24.401  0.00  0.00    +0.006 A 
ATOM      8  C   UNL     1       7.006  -2.200  23.775  0.00  0.00    +0.029 A 
ATOM      9  C   UNL     1       8.358  -2.359  24.096  0.00  0.00    +0.109 A 
ATOM     10  C   UNL     1       8.755  -3.325  25.028  0.00  0.00    +0.034 A 
ATOM     11  C   UNL     1       5.380  -4.821  26.005  0.00  0.00    +0.056 C 
ENDROOT
BRANCH   9  12
ATOM     12  S   UNL     1       9.581  -1.408  23.215  0.00  0.00    +0.072 S 
ATOM     13  O   UNL     1       8.872  -0.584  22.259  0.00  0.00    -0.150 OA
ATOM     14  O   UNL     1      10.633  -2.309  22.796  0.00  0.00    -0.150 OA
BRANCH  12  15
ATOM     15  N   UNL     1      10.188  -0.349  24.377  0.00  0.00    -0.216 N 
ATOM     16  H   UNL     1      11.093  -0.631  24.747  0.00  0.00    +0.174 HD
BRANCH  15  17
ATOM     17  C   UNL     1       9.890   1.033  24.298  0.00  0.00    +0.048 A 
ATOM     18  C   UNL     1       8.746   1.535  24.916  0.00  0.00    +0.026 A 
ATOM     19  C   UNL     1       8.460   2.899  24.840  0.00  0.00    +0.022 A 
ATOM     20  C   UNL     1       9.313   3.751  24.136  0.00  0.00    +0.041 A 
ATOM     21 CL   UNL     1       8.949   5.430  24.037  0.00  0.00    -0.084 Cl
ATOM     22  C   UNL     1      10.456   3.250  23.516  0.00  0.00    +0.022 A 
ATOM     23  C   UNL     1      10.752   1.888  23.607  0.00  0.00    +0.026 A 
ENDBRANCH  15  17
ENDBRANCH  12  15
ENDBRANCH   9  12
BRANCH   1  24
ATOM     24  C   UNL     1       4.936  -6.748  27.585  0.00  0.00    +0.174 C 
BRANCH  24  25
ATOM     25  O   UNL     1       5.590  -7.620  28.506  0.00  0.00    -0.393 OA
ATOM     26  H   UNL     1       5.805  -7.056  29.277  0.00  0.00    +0.209 HD
ENDBRANCH  24  25
ENDBRANCH   1  24
TORSDOF 5
ENDMDL
MODEL 4
REMARK VINA RESULT:      -6.9      4.054      8.795
REMARK  Name = 
REMARK  5 active torsions:
REMARK  status: ('A' for Active; 'I' for Inactive)
REMARK    1  A    between atoms: CA_2  and  C_3
REMARK    2  A    between atoms: C_3  and  O_4
REMARK    3  A    between atoms: C_9  and  S_14
REMARK    4  A    between atoms: S_14  and  N_17
REMARK    5  A    between atoms: N_17  and  C_18
REMARK                            x       y       z     vdW  Elec       q    Type
REMARK                         _______ _______ _______ _____ _____    ______ ____
ROOT
ATOM      1  CA  UNL     1       7.553   5.767  23.086  0.00  0.00    +0.084 C 
ATOM      2  N   UNL     1       9.019   5.832  23.302  0.00  0.00    -0.307 NA
ATOM      3  H   UNL     1       9.484   5.838  22.392  0.00  0.00    +0.123 HD
ATOM      4  C   UNL     1       9.462   4.628  24.023  0.00  0.00    +0.117 C 
ATOM      5  C   UNL     1       8.982   3.332  23.403  0.00  0.00    -0.028 A 
ATOM      6  C   UNL     1       7.866   3.314  22.543  0.00  0.00    -0.041 A 
ATOM      7  C   UNL     1       7.408   2.098  22.015  0.00  0.00    +0.006 A 
ATOM      8  C   UNL     1       8.028   0.899  22.363  0.00  0.00    +0.029 A 
ATOM      9  C   UNL     1       9.128   0.913  23.226  0.00  0.00    +0.109 A 
ATOM     10  C   UNL     1       9.597   2.120  23.757  0.00  0.00    +0.034 A 
ATOM     11  C   UNL     1       7.182   4.605  22.152  0.00  0.00    +0.056 C 
ENDROOT
BRANCH   9  12
ATOM     12  S   UNL     1       9.849  -0.633  23.745  0.00  0.00    +0.072 S 
ATOM     13  O   UNL     1      10.744  -0.338  24.844  0.00  0.00    -0.150 OA
ATOM     14  O   UNL     1      10.313  -1.329  22.564  0.00  0.00    -0.150 OA
BRANCH  12  15
ATOM     15  N   UNL     1       8.556  -1.479  24.417  0.00  0.00    -0.216 N 
ATOM     16  H   UNL     1       7.887  -0.880  24.897  0.00  0.00    +0.174 HD
BRANCH  15  17
ATOM     17  C   UNL     1       8.081  -2.658  23.792  0.00  0.00    +0.048 A 
ATOM     18  C   UNL     1       8.463  -3.906  24.280  0.00  0.00    +0.026 A 
ATOM     19  C   UNL     1       7.988  -5.065  23.664  0.00  0.00    +0.022 A 
ATOM     20  C   UNL     1       7.143  -4.969  22.557  0.00  0.00    +0.041 A 
ATOM     21 CL   UNL     1       6.569  -6.401  21.796  0.00  0.00    -0.084 Cl
ATOM     22  C   UNL     1       6.762  -3.721  22.067  0.00  0.00    +0.022 A 
ATOM     23  C   UNL     1       7.223  -2.561  22.694  0.00  0.00    +0.026 A 
ENDBRANCH  15  17
ENDBRANCH  12  15
ENDBRANCH   9  12
BRANCH   1  24
ATOM     24  C   UNL     1       7.065   7.108  22.510  0.00  0.00    +0.174 C 
BRANCH  24  25
ATOM     25  O   UNL     1       6.798   6.964  21.116  0.00  0.00    -0.393 OA
ATOM     26  H   UNL     1       6.955   6.016  20.926  0.00  0.00    +0.209 HD
ENDBRANCH  24  25
ENDBRANCH   1  24
TORSDOF 5
ENDMDL
MODEL 5
REMARK VINA RESULT:      -6.9      3.808      8.284
REMARK  Name = 
REMARK  5 active torsions:
REMARK  status: ('A' for Active; 'I' for Inactive)
REMARK    1  A    between atoms: CA_2  and  C_3
REMARK    2  A    between atoms: C_3  and  O_4
REMARK    3  A    between atoms: C_9  and  S_14
REMARK    4  A    between atoms: S_14  and  N_17
REMARK    5  A    between atoms: N_17  and  C_18
REMARK                            x       y       z     vdW  Elec       q    Type
REMARK                         _______ _______ _______ _____ _____    ______ ____
ROOT
ATOM      1  CA  UNL     1       7.854   4.060  22.551  0.00  0.00    +0.084 C 
ATOM      2  N   UNL     1       6.542   3.367  22.540  0.00  0.00    -0.307 NA
ATOM      3  H   UNL     1       6.133   3.426  23.475  0.00  0.00    +0.123 HD
ATOM      4  C   UNL     1       6.743   1.943  22.228  0.00  0.00    +0.117 C 
ATOM      5  C   UNL     1       7.794   1.271  23.087  0.00  0.00    -0.028 A 
ATOM      6  C   UNL     1       8.777   2.031  23.752  0.00  0.00    -0.041 A 
ATOM      7  C   UNL     1       9.770   1.388  24.505  0.00  0.00    +0.006 A 
ATOM      8  C   UNL     1       9.813  -0.004  24.573  0.00  0.00    +0.029 A 
ATOM      9  C   UNL     1       8.846  -0.761  23.905  0.00  0.00    +0.109 A 
ATOM     10  C   UNL     1       7.848  -0.131  23.153  0.00  0.00    +0.034 A 
ATOM     11  C   UNL     1       8.744   3.542  23.691  0.00  0.00    +0.056 C 
ENDROOT
BRANCH   9  12
ATOM     12  S   UNL     1       8.971  -2.539  23.915  0.00  0.00    +0.072 S 
ATOM     13  O   UNL     1       8.216  -3.012  25.057  0.00  0.00    -0.150 OA
ATOM     14  O   UNL     1      10.362  -2.892  23.737  0.00  0.00    -0.150 OA
BRANCH  12  15
ATOM     15  N   UNL     1       8.098  -3.017  22.555  0.00  0.00    -0.216 N 
ATOM     16  H   UNL     1       8.677  -3.146  21.728  0.00  0.00    +0.174 HD
BRANCH  15  17
ATOM     17  C   UNL     1       6.942  -3.822  22.703  0.00  0.00    +0.048 A 
ATOM     18  C   UNL     1       5.708  -3.227  22.960  0.00  0.00    +0.026 A 
ATOM     19  C   UNL     1       4.571  -4.024  23.100  0.00  0.00    +0.022 A 
ATOM     20  C   UNL     1       4.677  -5.412  22.994  0.00  0.00    +0.041 A 
ATOM     21 CL   UNL     1       3.273  -6.390  23.178  0.00  0.00    -0.084 Cl
ATOM     22  C   UNL     1       5.911  -6.008  22.740  0.00  0.00    +0.022 A 
ATOM     23  C   UNL     1       7.046  -5.209  22.582  0.00  0.00    +0.026 A 
ENDBRANCH  15  17
ENDBRANCH  12  15
ENDBRANCH   9  12
BRANCH   1  24
ATOM     24  C   UNL     1       7.625   5.576  22.683  0.00  0.00    +0.174 C 
BRANCH  24  25
ATOM     25  O   UNL     1       7.534   6.164  21.387  0.00  0.00    -0.393 OA
ATOM     26  H   UNL     1       8.405   5.998  20.973  0.00  0.00    +0.209 HD
ENDBRANCH  24  25
ENDBRANCH   1  24
TORSDOF 5
ENDMDL
MODEL 6
REMARK VINA RESULT:      -6.9      3.579      7.916
REMARK  Name = 
REMARK  5 active torsions:
REMARK  status: ('A' for Active; 'I' for Inactive)
REMARK    1  A    between atoms: CA_2  and  C_3
REMARK    2  A    between atoms: C_3  and  O_4
REMARK    3  A    between atoms: C_9  and  S_14
REMARK    4  A    between atoms: S_14  and  N_17
REMARK    5  A    between atoms: N_17  and  C_18
REMARK                            x       y       z     vdW  Elec       q    Type
REMARK                         _______ _______ _______ _____ _____    ______ ____
ROOT
ATOM      1  CA  UNL     1      10.298   1.783  23.730  0.00  0.00    +0.084 C 
ATOM      2  N   UNL     1       9.951   1.146  22.436  0.00  0.00    -0.307 NA
ATOM      3  H   UNL     1       8.955   1.287  22.258  0.00  0.00    +0.123 HD
ATOM      4  C   UNL     1      10.189  -0.304  22.525  0.00  0.00    +0.117 C 
ATOM      5  C   UNL     1       9.546  -0.957  23.731  0.00  0.00    -0.028 A 
ATOM      6  C   UNL     1       9.189  -0.193  24.860  0.00  0.00    -0.041 A 
ATOM      7  C   UNL     1       8.637  -0.821  25.986  0.00  0.00    +0.006 A 
ATOM      8  C   UNL     1       8.473  -2.205  26.011  0.00  0.00    +0.029 A 
ATOM      9  C   UNL     1       8.838  -2.967  24.897  0.00  0.00    +0.109 A 
ATOM     10  C   UNL     1       9.385  -2.351  23.766  0.00  0.00    +0.034 A 
ATOM     11  C   UNL     1       9.358   1.310  24.850  0.00  0.00    +0.056 C 
ENDROOT
BRANCH   9  12
ATOM     12  S   UNL     1       8.718  -4.744  24.980  0.00  0.00    +0.072 S 
ATOM     13  O   UNL     1       7.814  -5.059  26.066  0.00  0.00    -0.150 OA
ATOM     14  O   UNL     1      10.058  -5.287  24.936  0.00  0.00    -0.150 OA
BRANCH  12  15
ATOM     15  N   UNL     1       7.902  -5.163  23.565  0.00  0.00    -0.216 N 
ATOM     16  H   UNL     1       8.385  -5.871  23.016  0.00  0.00    +0.174 HD
BRANCH  15  17
ATOM     17  C   UNL     1       6.487  -5.126  23.528  0.00  0.00    +0.048 A 
ATOM     18  C   UNL     1       5.760  -6.315  23.543  0.00  0.00    +0.026 A 
ATOM     19  C   UNL     1       4.365  -6.273  23.512  0.00  0.00    +0.022 A 
ATOM     20  C   UNL     1       3.706  -5.045  23.453  0.00  0.00    +0.041 A 
ATOM     21 CL   UNL     1       1.987  -5.001  23.404  0.00  0.00    -0.084 Cl
ATOM     22  C   UNL     1       4.433  -3.855  23.435  0.00  0.00    +0.022 A 
ATOM     23  C   UNL     1       5.828  -3.896  23.485  0.00  0.00    +0.026 A 
ENDBRANCH  15  17
ENDBRANCH  12  15
ENDBRANCH   9  12
BRANCH   1  24
ATOM     24  C   UNL     1      10.236   3.313  23.574  0.00  0.00    +0.174 C 
BRANCH  24  25
ATOM     25  O   UNL     1      11.348   3.764  22.804  0.00  0.00    -0.393 OA
ATOM     26  H   UNL     1      11.300   4.742  22.841  0.00  0.00    +0.209 HD
ENDBRANCH  24  25
ENDBRANCH   1  24
TORSDOF 5
ENDMDL
MODEL 7
REMARK VINA RESULT:      -6.8      1.938      2.690
REMARK  Name = 
REMARK  5 active torsions:
REMARK  status: ('A' for Active; 'I' for Inactive)
REMARK    1  A    between atoms: CA_2  and  C_3
REMARK    2  A    between atoms: C_3  and  O_4
REMARK    3  A    between atoms: C_9  and  S_14
REMARK    4  A    between atoms: S_14  and  N_17
REMARK    5  A    between atoms: N_17  and  C_18
REMARK                            x       y       z     vdW  Elec       q    Type
REMARK                         _______ _______ _______ _____ _____    ______ ____
ROOT
ATOM      1  CA  UNL     1       3.918  -7.212  25.025  0.00  0.00    +0.084 C 
ATOM      2  N   UNL     1       4.025  -6.387  26.253  0.00  0.00    -0.307 NA
ATOM      3  H   UNL     1       3.407  -5.579  26.159  0.00  0.00    +0.123 HD
ATOM      4  C   UNL     1       5.401  -5.885  26.388  0.00  0.00    +0.117 C 
ATOM      5  C   UNL     1       5.932  -5.212  25.139  0.00  0.00    -0.028 A 
ATOM      6  C   UNL     1       5.357  -5.471  23.879  0.00  0.00    -0.041 A 
ATOM      7  C   UNL     1       5.891  -4.874  22.728  0.00  0.00    +0.006 A 
ATOM      8  C   UNL     1       7.012  -4.051  22.816  0.00  0.00    +0.029 A 
ATOM      9  C   UNL     1       7.593  -3.801  24.064  0.00  0.00    +0.109 A 
ATOM     10  C   UNL     1       7.067  -4.388  25.220  0.00  0.00    +0.034 A 
ATOM     11  C   UNL     1       4.138  -6.360  23.765  0.00  0.00    +0.056 C 
ENDROOT
BRANCH   9  12
ATOM     12  S   UNL     1       9.085  -2.830  24.152  0.00  0.00    +0.072 S 
ATOM     13  O   UNL     1      10.195  -3.759  24.199  0.00  0.00    -0.150 OA
ATOM     14  O   UNL     1       8.905  -1.823  25.174  0.00  0.00    -0.150 OA
BRANCH  12  15
ATOM     15  N   UNL     1       9.174  -2.082  22.644  0.00  0.00    -0.216 N 
ATOM     16  H   UNL     1       9.009  -2.720  21.867  0.00  0.00    +0.174 HD
BRANCH  15  17
ATOM     17  C   UNL     1       8.783  -0.729  22.502  0.00  0.00    +0.048 A 
ATOM     18  C   UNL     1       7.470  -0.351  22.778  0.00  0.00    +0.026 A 
ATOM     19  C   UNL     1       7.092   0.986  22.643  0.00  0.00    +0.022 A 
ATOM     20  C   UNL     1       8.024   1.934  22.221  0.00  0.00    +0.041 A 
ATOM     21 CL   UNL     1       7.549   3.578  22.046  0.00  0.00    -0.084 Cl
ATOM     22  C   UNL     1       9.337   1.557  21.943  0.00  0.00    +0.022 A 
ATOM     23  C   UNL     1       9.721   0.222  22.095  0.00  0.00    +0.026 A 
ENDBRANCH  15  17
ENDBRANCH  12  15
ENDBRANCH   9  12
BRANCH   1  24
ATOM     24  C   UNL     1       2.538  -7.893  24.989  0.00  0.00    +0.174 C 
BRANCH  24  25
ATOM     25  O   UNL     1       2.686  -9.294  25.212  0.00  0.00    -0.393 OA
ATOM     26  H   UNL     1       2.991  -9.370  26.139  0.00  0.00    +0.209 HD
ENDBRANCH  24  25
ENDBRANCH   1  24
TORSDOF 5
ENDMDL
MODEL 8
REMARK VINA RESULT:      -6.8      1.793      1.916
REMARK  Name = 
REMARK  5 active torsions:
REMARK  status: ('A' for Active; 'I' for Inactive)
REMARK    1  A    between atoms: CA_2  and  C_3
REMARK    2  A    between atoms: C_3  and  O_4
REMARK    3  A    between atoms: C_9  and  S_14
REMARK    4  A    between atoms: S_14  and  N_17
REMARK    5  A    between atoms: N_17  and  C_18
REMARK                            x       y       z     vdW  Elec       q    Type
REMARK                         _______ _______ _______ _____ _____    ______ ____
ROOT
ATOM      1  CA  UNL     1       4.740  -6.052  24.608  0.00  0.00    +0.084 C 
ATOM      2  N   UNL     1       5.228  -6.317  23.232  0.00  0.00    -0.307 NA
ATOM      3  H   UNL     1       5.960  -7.028  23.275  0.00  0.00    +0.123 HD
ATOM      4  C   UNL     1       5.826  -5.091  22.680  0.00  0.00    +0.117 C 
ATOM      5  C   UNL     1       6.852  -4.447  23.590  0.00  0.00    -0.028 A 
ATOM      6  C   UNL     1       6.864  -4.722  24.972  0.00  0.00    -0.041 A 
ATOM      7  C   UNL     1       7.791  -4.081  25.807  0.00  0.00    +0.006 A 
ATOM      8  C   UNL     1       8.681  -3.145  25.283  0.00  0.00    +0.029 A 
ATOM      9  C   UNL     1       8.664  -2.861  23.914  0.00  0.00    +0.109 A 
ATOM     10  C   UNL     1       7.746  -3.497  23.071  0.00  0.00    +0.034 A 
ATOM     11  C   UNL     1       5.907  -5.737  25.557  0.00  0.00    +0.056 C 
ENDROOT
BRANCH   9  12
ATOM     12  S   UNL     1       9.737  -1.590  23.274  0.00  0.00    +0.072 S 
ATOM     13  O   UNL     1      10.832  -2.256  22.600  0.00  0.00    -0.150 OA
ATOM     14  O   UNL     1       9.977  -0.631  24.331  0.00  0.00    -0.150 OA
BRANCH  12  15
ATOM     15  N   UNL     1       8.824  -0.860  22.059  0.00  0.00    -0.216 N 
ATOM     16  H   UNL     1       8.390  -1.528  21.425  0.00  0.00    +0.174 HD
BRANCH  15  17
ATOM     17  C   UNL     1       8.157   0.362  22.314  0.00  0.00    +0.048 A 
ATOM     18  C   UNL     1       8.653   1.550  21.777  0.00  0.00    +0.026 A 
ATOM     19  C   UNL     1       7.988   2.752  22.026  0.00  0.00    +0.022 A 
ATOM     20  C   UNL     1       6.840   2.762  22.819  0.00  0.00    +0.041 A 
ATOM     21 CL   UNL     1       6.032   4.248  23.132  0.00  0.00    -0.084 Cl
ATOM     22  C   UNL     1       6.345   1.575  23.358  0.00  0.00    +0.022 A 
ATOM     23  C   UNL     1       6.999   0.369  23.095  0.00  0.00    +0.026 A 
ENDBRANCH  15  17
ENDBRANCH  12  15
ENDBRANCH   9  12
BRANCH   1  24
ATOM     24  C   UNL     1       3.945  -7.272  25.107  0.00  0.00    +0.174 C 
BRANCH  24  25
ATOM     25  O   UNL     1       3.488  -8.038  23.994  0.00  0.00    -0.393 OA
ATOM     26  H   UNL     1       3.436  -8.958  24.326  0.00  0.00    +0.209 HD
ENDBRANCH  24  25
ENDBRANCH   1  24
TORSDOF 5
ENDMDL
MODEL 9
REMARK VINA RESULT:      -6.8      3.833      8.664
REMARK  Name = 
REMARK  5 active torsions:
REMARK  status: ('A' for Active; 'I' for Inactive)
REMARK    1  A    between atoms: CA_2  and  C_3
REMARK    2  A    between atoms: C_3  and  O_4
REMARK    3  A    between atoms: C_9  and  S_14
REMARK    4  A    between atoms: S_14  and  N_17
REMARK    5  A    between atoms: N_17  and  C_18
REMARK                            x       y       z     vdW  Elec       q    Type
REMARK                         _______ _______ _______ _____ _____    ______ ____
ROOT
ATOM      1  CA  UNL     1       9.761   4.567  24.026  0.00  0.00    +0.084 C 
ATOM      2  N   UNL     1      10.837   4.093  23.122  0.00  0.00    -0.307 NA
ATOM      3  H   UNL     1      10.503   4.146  22.158  0.00  0.00    +0.123 HD
ATOM      4  C   UNL     1      11.138   2.683  23.415  0.00  0.00    +0.117 C 
ATOM      5  C   UNL     1       9.914   1.791  23.446  0.00  0.00    -0.028 A 
ATOM      6  C   UNL     1       8.630   2.334  23.647  0.00  0.00    -0.041 A 
ATOM      7  C   UNL     1       7.514   1.487  23.718  0.00  0.00    +0.006 A 
ATOM      8  C   UNL     1       7.670   0.105  23.626  0.00  0.00    +0.029 A 
ATOM      9  C   UNL     1       8.945  -0.438  23.438  0.00  0.00    +0.109 A 
ATOM     10  C   UNL     1      10.066   0.397  23.361  0.00  0.00    +0.034 A 
ATOM     11  C   UNL     1       8.441   3.831  23.748  0.00  0.00    +0.056 C 
ENDROOT
BRANCH   9  12
ATOM     12  S   UNL     1       9.145  -2.209  23.423  0.00  0.00    +0.072 S 
ATOM     13  O   UNL     1       8.570  -2.713  24.653  0.00  0.00    -0.150 OA
ATOM     14  O   UNL     1      10.514  -2.503  23.058  0.00  0.00    -0.150 OA
BRANCH  12  15
ATOM     15  N   UNL     1       8.118  -2.724  22.189  0.00  0.00    -0.216 N 
ATOM     16  H   UNL     1       8.584  -2.814  21.288  0.00  0.00    +0.174 HD
BRANCH  15  17
ATOM     17  C   UNL     1       7.040  -3.593  22.483  0.00  0.00    +0.048 A 
ATOM     18  C   UNL     1       7.235  -4.973  22.465  0.00  0.00    +0.026 A 
ATOM     19  C   UNL     1       6.171  -5.826  22.762  0.00  0.00    +0.022 A 
ATOM     20  C   UNL     1       4.916  -5.295  23.061  0.00  0.00    +0.041 A 
ATOM     21 CL   UNL     1       3.605  -6.352  23.415  0.00  0.00    -0.084 Cl
ATOM     22  C   UNL     1       4.719  -3.915  23.077  0.00  0.00    +0.022 A 
ATOM     23  C   UNL     1       5.789  -3.061  22.798  0.00  0.00    +0.026 A 
ENDBRANCH  15  17
ENDBRANCH  12  15
ENDBRANCH   9  12
BRANCH   1  24
ATOM     24  C   UNL     1       9.585   6.086  23.853  0.00  0.00    +0.174 C 
BRANCH  24  25
ATOM     25  O   UNL     1       8.895   6.355  22.634  0.00  0.00    -0.393 OA
ATOM     26  H   UNL     1       8.820   5.486  22.189  0.00  0.00    +0.209 HD
ENDBRANCH  24  25
ENDBRANCH   1  24
TORSDOF 5
ENDMDL
