MODEL 1
REMARK VINA RESULT:      -6.6      0.000      0.000
REMARK  Name = 
REMARK  7 active torsions:
REMARK  status: ('A' for Active; 'I' for Inactive)
REMARK    1  A    between atoms: C_1  and  C_2
REMARK    2  A    between atoms: C_2  and  C_4
REMARK    3  A    between atoms: C_2  and  C_11
REMARK    4  A    between atoms: C_11  and  O_12
REMARK    5  A    between atoms: C_11  and  C_13
REMARK    6  A    between atoms: C_11  and  C_19
REMARK    7  A    between atoms: C_13  and  N_14
REMARK                            x       y       z     vdW  Elec       q    Type
REMARK                         _______ _______ _______ _____ _____    ______ ____
ROOT
ATOM      1  C   UNL     1       7.704  -2.788  24.444  0.00  0.00    +0.121 C 
ENDROOT
BRANCH   1   2
ATOM      2  C   UNL     1       8.336  -1.600  23.684  0.00  0.00    +0.022 A 
ATOM      3  C   UNL     1       7.573  -0.489  23.263  0.00  0.00    +0.012 A 
ATOM      4  C   UNL     1       8.133   0.521  22.470  0.00  0.00    +0.039 A 
ATOM      5  C   UNL     1       9.476   0.462  22.124  0.00  0.00    +0.126 A 
ATOM      6  F   UNL     1      10.004   1.421  21.352  0.00  0.00    -0.205 F 
ATOM      7  C   UNL     1      10.270  -0.581  22.561  0.00  0.00    +0.077 A 
ATOM      8  C   UNL     1       9.698  -1.595  23.326  0.00  0.00    +0.132 A 
ATOM      9  F   UNL     1      10.496  -2.607  23.689  0.00  0.00    -0.205 F 
ENDBRANCH   1   2
BRANCH   1  11
ATOM     10  C   UNL     1       8.425  -1.574  26.672  0.00  0.00    +0.017 C 
ATOM     11  C   UNL     1       8.049  -2.886  25.973  0.00  0.00    +0.076 C 
BRANCH  11  12
ATOM     12  C   UNL     1       6.996  -3.632  26.781  0.00  0.00    +0.085 A 
ATOM     13  C   UNL     1       7.206  -4.954  27.136  0.00  0.00    +0.163 A 
ATOM     14  F   UNL     1       8.314  -5.622  26.788  0.00  0.00    -0.202 F 
ATOM     15  C   UNL     1       6.230  -5.564  27.887  0.00  0.00    +0.152 A 
ATOM     16  N   UNL     1       5.100  -4.941  28.280  0.00  0.00    -0.241 NA
ATOM     17  C   UNL     1       4.983  -3.661  27.888  0.00  0.00    +0.221 A 
ATOM     18  N   UNL     1       5.873  -2.967  27.151  0.00  0.00    -0.237 NA
ENDBRANCH  11  12
ENDBRANCH   1  11
BRANCH   1  19
ATOM     19  O   UNL     1       6.256  -2.660  24.358  0.00  0.00    -0.381 OA
ATOM     20  H   UNL     1       6.034  -2.191  23.536  0.00  0.00    +0.211 HD
ENDBRANCH   1  19
BRANCH   1  21
ATOM     21  C   UNL     1       8.026  -4.114  23.681  0.00  0.00    +0.185 C 
BRANCH  21  22
ATOM     22  N   UNL     1       6.896  -4.752  23.032  0.00  0.00    -0.249 N 
ATOM     23  N   UNL     1       5.991  -5.429  23.762  0.00  0.00    -0.158 NA
ATOM     24  C   UNL     1       5.187  -5.909  22.810  0.00  0.00    +0.244 A 
ATOM     25  N   UNL     1       5.535  -5.573  21.535  0.00  0.00    -0.223 NA
ATOM     26  C   UNL     1       6.615  -4.845  21.704  0.00  0.00    +0.219 A 
ENDBRANCH  21  22
ENDBRANCH   1  21
TORSDOF 6
ENDMDL
MODEL 2
REMARK VINA RESULT:      -6.5      1.717      3.873
REMARK  Name = 
REMARK  7 active torsions:
REMARK  status: ('A' for Active; 'I' for Inactive)
REMARK    1  A    between atoms: C_1  and  C_2
REMARK    2  A    between atoms: C_2  and  C_4
REMARK    3  A    between atoms: C_2  and  C_11
REMARK    4  A    between atoms: C_11  and  O_12
REMARK    5  A    between atoms: C_11  and  C_13
REMARK    6  A    between atoms: C_11  and  C_19
REMARK    7  A    between atoms: C_13  and  N_14
REMARK                            x       y       z     vdW  Elec       q    Type
REMARK                         _______ _______ _______ _____ _____    ______ ____
ROOT
ATOM      1  C   UNL     1       8.362  -2.664  24.615  0.00  0.00    +0.121 C 
ENDROOT
BRANCH   1   2
ATOM      2  C   UNL     1       9.096  -1.367  24.206  0.00  0.00    +0.022 A 
ATOM      3  C   UNL     1       9.331  -0.318  25.121  0.00  0.00    +0.012 A 
ATOM      4  C   UNL     1       9.888   0.899  24.706  0.00  0.00    +0.039 A 
ATOM      5  C   UNL     1      10.263   1.070  23.381  0.00  0.00    +0.126 A 
ATOM      6  F   UNL     1      10.780   2.241  22.985  0.00  0.00    -0.205 F 
ATOM      7  C   UNL     1      10.100   0.049  22.465  0.00  0.00    +0.077 A 
ATOM      8  C   UNL     1       9.520  -1.148  22.880  0.00  0.00    +0.132 A 
ATOM      9  F   UNL     1       9.341  -2.093  21.948  0.00  0.00    -0.205 F 
ENDBRANCH   1   2
BRANCH   1  11
ATOM     10  C   UNL     1       6.318  -1.621  23.313  0.00  0.00    +0.017 C 
ATOM     11  C   UNL     1       6.890  -2.815  24.088  0.00  0.00    +0.076 C 
BRANCH  11  12
ATOM     12  C   UNL     1       6.657  -4.107  23.316  0.00  0.00    +0.085 A 
ATOM     13  C   UNL     1       5.743  -5.036  23.784  0.00  0.00    +0.163 A 
ATOM     14  F   UNL     1       5.045  -4.849  24.912  0.00  0.00    -0.202 F 
ATOM     15  C   UNL     1       5.559  -6.170  23.029  0.00  0.00    +0.152 A 
ATOM     16  N   UNL     1       6.220  -6.409  21.878  0.00  0.00    -0.241 NA
ATOM     17  C   UNL     1       7.087  -5.452  21.504  0.00  0.00    +0.221 A 
ATOM     18  N   UNL     1       7.348  -4.307  22.166  0.00  0.00    -0.237 NA
ENDBRANCH  11  12
ENDBRANCH   1  11
BRANCH   1  19
ATOM     19  O   UNL     1       9.108  -3.794  24.077  0.00  0.00    -0.381 OA
ATOM     20  H   UNL     1       9.497  -3.532  23.225  0.00  0.00    +0.211 HD
ENDBRANCH   1  19
BRANCH   1  21
ATOM     21  C   UNL     1       8.453  -2.838  26.166  0.00  0.00    +0.185 C 
BRANCH  21  22
ATOM     22  N   UNL     1       7.723  -3.965  26.713  0.00  0.00    -0.249 N 
ATOM     23  N   UNL     1       6.566  -3.767  27.370  0.00  0.00    -0.158 NA
ATOM     24  C   UNL     1       6.268  -5.008  27.764  0.00  0.00    +0.244 A 
ATOM     25  N   UNL     1       7.166  -5.965  27.393  0.00  0.00    -0.223 NA
ATOM     26  C   UNL     1       8.072  -5.280  26.733  0.00  0.00    +0.219 A 
ENDBRANCH  21  22
ENDBRANCH   1  21
TORSDOF 6
ENDMDL
MODEL 3
REMARK VINA RESULT:      -6.5      1.552      2.020
REMARK  Name = 
REMARK  7 active torsions:
REMARK  status: ('A' for Active; 'I' for Inactive)
REMARK    1  A    between atoms: C_1  and  C_2
REMARK    2  A    between atoms: C_2  and  C_4
REMARK    3  A    between atoms: C_2  and  C_11
REMARK    4  A    between atoms: C_11  and  O_12
REMARK    5  A    between atoms: C_11  and  C_13
REMARK    6  A    between atoms: C_11  and  C_19
REMARK    7  A    between atoms: C_13  and  N_14
REMARK                            x       y       z     vdW  Elec       q    Type
REMARK                         _______ _______ _______ _____ _____    ______ ____
ROOT
ATOM      1  C   UNL     1       7.819  -1.714  23.747  0.00  0.00    +0.121 C 
ENDROOT
BRANCH   1   2
ATOM      2  C   UNL     1       7.779  -0.258  23.229  0.00  0.00    +0.022 A 
ATOM      3  C   UNL     1       6.639   0.560  23.381  0.00  0.00    +0.012 A 
ATOM      4  C   UNL     1       6.574   1.834  22.800  0.00  0.00    +0.039 A 
ATOM      5  C   UNL     1       7.665   2.329  22.100  0.00  0.00    +0.126 A 
ATOM      6  F   UNL     1       7.593   3.540  21.532  0.00  0.00    -0.205 F 
ATOM      7  C   UNL     1       8.820   1.581  21.975  0.00  0.00    +0.077 A 
ATOM      8  C   UNL     1       8.866   0.305  22.531  0.00  0.00    +0.132 A 
ATOM      9  F   UNL     1       9.989  -0.400  22.347  0.00  0.00    -0.205 F 
ENDBRANCH   1   2
BRANCH   1  11
ATOM     10  C   UNL     1       8.880  -0.782  25.975  0.00  0.00    +0.017 C 
ATOM     11  C   UNL     1       8.708  -1.968  25.018  0.00  0.00    +0.076 C 
BRANCH  11  12
ATOM     12  C   UNL     1       8.309  -3.217  25.790  0.00  0.00    +0.085 A 
ATOM     13  C   UNL     1       9.084  -4.362  25.699  0.00  0.00    +0.163 A 
ATOM     14  F   UNL     1      10.186  -4.422  24.940  0.00  0.00    -0.202 F 
ATOM     15  C   UNL     1       8.686  -5.449  26.441  0.00  0.00    +0.152 A 
ATOM     16  N   UNL     1       7.595  -5.445  27.233  0.00  0.00    -0.241 NA
ATOM     17  C   UNL     1       6.905  -4.291  27.257  0.00  0.00    +0.221 A 
ATOM     18  N   UNL     1       7.201  -3.170  26.572  0.00  0.00    -0.237 NA
ENDBRANCH  11  12
ENDBRANCH   1  11
BRANCH   1  19
ATOM     19  O   UNL     1       6.463  -2.101  24.112  0.00  0.00    -0.381 OA
ATOM     20  H   UNL     1       5.920  -2.128  23.305  0.00  0.00    +0.211 HD
ENDBRANCH   1  19
BRANCH   1  21
ATOM     21  C   UNL     1       8.194  -2.668  22.567  0.00  0.00    +0.185 C 
BRANCH  21  22
ATOM     22  N   UNL     1       7.232  -3.715  22.279  0.00  0.00    -0.249 N 
ATOM     23  N   UNL     1       7.401  -4.947  22.791  0.00  0.00    -0.158 NA
ATOM     24  C   UNL     1       6.376  -5.606  22.242  0.00  0.00    +0.244 A 
ATOM     25  N   UNL     1       5.582  -4.861  21.422  0.00  0.00    -0.223 NA
ATOM     26  C   UNL     1       6.144  -3.674  21.463  0.00  0.00    +0.219 A 
ENDBRANCH  21  22
ENDBRANCH   1  21
TORSDOF 6
ENDMDL
MODEL 4
REMARK VINA RESULT:      -6.4      2.901      5.852
REMARK  Name = 
REMARK  7 active torsions:
REMARK  status: ('A' for Active; 'I' for Inactive)
REMARK    1  A    between atoms: C_1  and  C_2
REMARK    2  A    between atoms: C_2  and  C_4
REMARK    3  A    between atoms: C_2  and  C_11
REMARK    4  A    between atoms: C_11  and  O_12
REMARK    5  A    between atoms: C_11  and  C_13
REMARK    6  A    between atoms: C_11  and  C_19
REMARK    7  A    between atoms: C_13  and  N_14
REMARK                            x       y       z     vdW  Elec       q    Type
REMARK                         _______ _______ _______ _____ _____    ______ ____
ROOT
ATOM      1  C   UNL     1       7.438  -1.439  23.544  0.00  0.00    +0.121 C 
ENDROOT
BRANCH   1   2
ATOM      2  C   UNL     1       7.235  -2.892  23.059  0.00  0.00    +0.022 A 
ATOM      3  C   UNL     1       6.200  -3.247  22.168  0.00  0.00    +0.012 A 
ATOM      4  C   UNL     1       5.954  -4.586  21.833  0.00  0.00    +0.039 A 
ATOM      5  C   UNL     1       6.767  -5.586  22.346  0.00  0.00    +0.126 A 
ATOM      6  F   UNL     1       6.519  -6.865  22.038  0.00  0.00    -0.205 F 
ATOM      7  C   UNL     1       7.825  -5.275  23.179  0.00  0.00    +0.077 A 
ATOM      8  C   UNL     1       8.046  -3.944  23.528  0.00  0.00    +0.132 A 
ATOM      9  F   UNL     1       9.054  -3.696  24.373  0.00  0.00    -0.205 F 
ENDBRANCH   1   2
BRANCH   1  11
ATOM     10  C   UNL     1       9.277  -1.145  21.674  0.00  0.00    +0.017 C 
ATOM     11  C   UNL     1       8.751  -0.728  23.054  0.00  0.00    +0.076 C 
BRANCH  11  12
ATOM     12  C   UNL     1       8.688   0.790  23.158  0.00  0.00    +0.085 A 
ATOM     13  C   UNL     1       9.345   1.438  24.191  0.00  0.00    +0.163 A 
ATOM     14  F   UNL     1      10.041   0.777  25.124  0.00  0.00    -0.202 F 
ATOM     15  C   UNL     1       9.272   2.811  24.216  0.00  0.00    +0.152 A 
ATOM     16  N   UNL     1       8.599   3.534  23.297  0.00  0.00    -0.241 NA
ATOM     17  C   UNL     1       7.992   2.818  22.334  0.00  0.00    +0.221 A 
ATOM     18  N   UNL     1       7.996   1.476  22.215  0.00  0.00    -0.237 NA
ENDBRANCH  11  12
ENDBRANCH   1  11
BRANCH   1  19
ATOM     19  O   UNL     1       6.328  -0.637  23.045  0.00  0.00    -0.381 OA
ATOM     20  H   UNL     1       5.495  -1.037  23.351  0.00  0.00    +0.211 HD
ENDBRANCH   1  19
BRANCH   1  21
ATOM     21  C   UNL     1       7.288  -1.391  25.098  0.00  0.00    +0.185 C 
BRANCH  21  22
ATOM     22  N   UNL     1       6.095  -2.021  25.632  0.00  0.00    -0.249 N 
ATOM     23  N   UNL     1       4.880  -1.527  25.335  0.00  0.00    -0.158 NA
ATOM     24  C   UNL     1       4.086  -2.320  26.060  0.00  0.00    +0.244 A 
ATOM     25  N   UNL     1       4.731  -3.276  26.787  0.00  0.00    -0.223 NA
ATOM     26  C   UNL     1       5.996  -3.064  26.499  0.00  0.00    +0.219 A 
ENDBRANCH  21  22
ENDBRANCH   1  21
TORSDOF 6
ENDMDL
MODEL 5
REMARK VINA RESULT:      -6.3      2.847      5.597
REMARK  Name = 
REMARK  7 active torsions:
REMARK  status: ('A' for Active; 'I' for Inactive)
REMARK    1  A    between atoms: C_1  and  C_2
REMARK    2  A    between atoms: C_2  and  C_4
REMARK    3  A    between atoms: C_2  and  C_11
REMARK    4  A    between atoms: C_11  and  O_12
REMARK    5  A    between atoms: C_11  and  C_13
REMARK    6  A    between atoms: C_11  and  C_19
REMARK    7  A    between atoms: C_13  and  N_14
REMARK                            x       y       z     vdW  Elec       q    Type
REMARK                         _______ _______ _______ _____ _____    ______ ____
ROOT
ATOM      1  C   UNL     1       8.274  -2.396  24.327  0.00  0.00    +0.121 C 
ENDROOT
BRANCH   1   2
ATOM      2  C   UNL     1       7.557  -3.433  23.434  0.00  0.00    +0.022 A 
ATOM      3  C   UNL     1       7.994  -4.773  23.343  0.00  0.00    +0.012 A 
ATOM      4  C   UNL     1       7.410  -5.669  22.438  0.00  0.00    +0.039 A 
ATOM      5  C   UNL     1       6.350  -5.256  21.644  0.00  0.00    +0.126 A 
ATOM      6  F   UNL     1       5.806  -6.111  20.768  0.00  0.00    -0.205 F 
ATOM      7  C   UNL     1       5.858  -3.969  21.741  0.00  0.00    +0.077 A 
ATOM      8  C   UNL     1       6.462  -3.076  22.624  0.00  0.00    +0.132 A 
ATOM      9  F   UNL     1       5.979  -1.827  22.651  0.00  0.00    -0.205 F 
ENDBRANCH   1   2
BRANCH   1  11
ATOM     10  C   UNL     1       9.604  -1.776  22.135  0.00  0.00    +0.017 C 
ATOM     11  C   UNL     1       9.276  -1.433  23.594  0.00  0.00    +0.076 C 
BRANCH  11  12
ATOM     12  C   UNL     1       8.900   0.036  23.719  0.00  0.00    +0.085 A 
ATOM     13  C   UNL     1       9.653   0.875  24.525  0.00  0.00    +0.163 A 
ATOM     14  F   UNL     1      10.715   0.441  25.217  0.00  0.00    -0.202 F 
ATOM     15  C   UNL     1       9.279   2.197  24.577  0.00  0.00    +0.152 A 
ATOM     16  N   UNL     1       8.230   2.697  23.892  0.00  0.00    -0.241 NA
ATOM     17  C   UNL     1       7.558   1.808  23.139  0.00  0.00    +0.221 A 
ATOM     18  N   UNL     1       7.834   0.495  23.017  0.00  0.00    -0.237 NA
ENDBRANCH  11  12
ENDBRANCH   1  11
BRANCH   1  19
ATOM     19  O   UNL     1       7.259  -1.544  24.934  0.00  0.00    -0.381 OA
ATOM     20  H   UNL     1       7.338  -1.608  25.901  0.00  0.00    +0.211 HD
ENDBRANCH   1  19
BRANCH   1  21
ATOM     21  C   UNL     1       8.940  -3.131  25.535  0.00  0.00    +0.185 C 
BRANCH  21  22
ATOM     22  N   UNL     1       8.054  -3.960  26.330  0.00  0.00    -0.249 N 
ATOM     23  N   UNL     1       6.908  -3.450  26.816  0.00  0.00    -0.158 NA
ATOM     24  C   UNL     1       6.441  -4.479  27.529  0.00  0.00    +0.244 A 
ATOM     25  N   UNL     1       7.223  -5.595  27.515  0.00  0.00    -0.223 NA
ATOM     26  C   UNL     1       8.233  -5.240  26.753  0.00  0.00    +0.219 A 
ENDBRANCH  21  22
ENDBRANCH   1  21
TORSDOF 6
ENDMDL
MODEL 6
REMARK VINA RESULT:      -6.2      5.497      8.289
REMARK  Name = 
REMARK  7 active torsions:
REMARK  status: ('A' for Active; 'I' for Inactive)
REMARK    1  A    between atoms: C_1  and  C_2
REMARK    2  A    between atoms: C_2  and  C_4
REMARK    3  A    between atoms: C_2  and  C_11
REMARK    4  A    between atoms: C_11  and  O_12
REMARK    5  A    between atoms: C_11  and  C_13
REMARK    6  A    between atoms: C_11  and  C_19
REMARK    7  A    between atoms: C_13  and  N_14
REMARK                            x       y       z     vdW  Elec       q    Type
REMARK                         _______ _______ _______ _____ _____    ______ ____
ROOT
ATOM      1  C   UNL     1       7.970   2.337  22.730  0.00  0.00    +0.121 C 
ENDROOT
BRANCH   1   2
ATOM      2  C   UNL     1       7.988   0.804  22.538  0.00  0.00    +0.022 A 
ATOM      3  C   UNL     1       6.918  -0.016  22.956  0.00  0.00    +0.012 A 
ATOM      4  C   UNL     1       7.002  -1.413  22.887  0.00  0.00    +0.039 A 
ATOM      5  C   UNL     1       8.135  -2.012  22.355  0.00  0.00    +0.126 A 
ATOM      6  F   UNL     1       8.218  -3.347  22.306  0.00  0.00    -0.205 F 
ATOM      7  C   UNL     1       9.182  -1.242  21.885  0.00  0.00    +0.077 A 
ATOM      8  C   UNL     1       9.102   0.145  21.983  0.00  0.00    +0.132 A 
ATOM      9  F   UNL     1      10.159   0.847  21.555  0.00  0.00    -0.205 F 
ENDBRANCH   1   2
BRANCH   1  11
ATOM     10  C   UNL     1       8.895   1.808  25.143  0.00  0.00    +0.017 C 
ATOM     11  C   UNL     1       8.562   2.867  24.085  0.00  0.00    +0.076 C 
BRANCH  11  12
ATOM     12  C   UNL     1       9.738   3.815  23.898  0.00  0.00    +0.085 A 
ATOM     13  C   UNL     1       9.625   5.141  24.285  0.00  0.00    +0.163 A 
ATOM     14  F   UNL     1       8.503   5.637  24.821  0.00  0.00    -0.202 F 
ATOM     15  C   UNL     1      10.731   5.940  24.114  0.00  0.00    +0.152 A 
ATOM     16  N   UNL     1      11.893   5.495  23.594  0.00  0.00    -0.241 NA
ATOM     17  C   UNL     1      11.908   4.196  23.246  0.00  0.00    +0.221 A 
ATOM     18  N   UNL     1      10.886   3.326  23.366  0.00  0.00    -0.237 NA
ENDBRANCH  11  12
ENDBRANCH   1  11
BRANCH   1  19
ATOM     19  O   UNL     1       8.773   2.935  21.671  0.00  0.00    -0.381 OA
ATOM     20  H   UNL     1       8.303   2.825  20.826  0.00  0.00    +0.211 HD
ENDBRANCH   1  19
BRANCH   1  21
ATOM     21  C   UNL     1       6.523   2.870  22.471  0.00  0.00    +0.185 C 
BRANCH  21  22
ATOM     22  N   UNL     1       6.351   4.304  22.603  0.00  0.00    -0.249 N 
ATOM     23  N   UNL     1       7.065   5.144  21.832  0.00  0.00    -0.158 NA
ATOM     24  C   UNL     1       6.678   6.333  22.305  0.00  0.00    +0.244 A 
ATOM     25  N   UNL     1       5.769   6.283  23.321  0.00  0.00    -0.223 NA
ATOM     26  C   UNL     1       5.582   4.993  23.489  0.00  0.00    +0.219 A 
ENDBRANCH  21  22
ENDBRANCH   1  21
TORSDOF 6
ENDMDL
MODEL 7
REMARK VINA RESULT:      -6.2      2.377      3.519
REMARK  Name = 
REMARK  7 active torsions:
REMARK  status: ('A' for Active; 'I' for Inactive)
REMARK    1  A    between atoms: C_1  and  C_2
REMARK    2  A    between atoms: C_2  and  C_4
REMARK    3  A    between atoms: C_2  and  C_11
REMARK    4  A    between atoms: C_11  and  O_12
REMARK    5  A    between atoms: C_11  and  C_13
REMARK    6  A    between atoms: C_11  and  C_19
REMARK    7  A    between atoms: C_13  and  N_14
REMARK                            x       y       z     vdW  Elec       q    Type
REMARK                         _______ _______ _______ _____ _____    ______ ____
ROOT
ATOM      1  C   UNL     1       7.777  -1.924  24.641  0.00  0.00    +0.121 C 
ENDROOT
BRANCH   1   2
ATOM      2  C   UNL     1       8.614  -0.888  23.857  0.00  0.00    +0.022 A 
ATOM      3  C   UNL     1       9.252   0.197  24.495  0.00  0.00    +0.012 A 
ATOM      4  C   UNL     1       9.905   1.194  23.758  0.00  0.00    +0.039 A 
ATOM      5  C   UNL     1       9.971   1.098  22.375  0.00  0.00    +0.126 A 
ATOM      6  F   UNL     1      10.581   2.061  21.673  0.00  0.00    -0.205 F 
ATOM      7  C   UNL     1       9.406   0.023  21.716  0.00  0.00    +0.077 A 
ATOM      8  C   UNL     1       8.735  -0.949  22.455  0.00  0.00    +0.132 A 
ATOM      9  F   UNL     1       8.165  -1.948  21.770  0.00  0.00    -0.205 F 
ENDBRANCH   1   2
BRANCH   1  11
ATOM     10  C   UNL     1       9.706  -3.723  24.580  0.00  0.00    +0.017 C 
ATOM     11  C   UNL     1       8.205  -3.426  24.469  0.00  0.00    +0.076 C 
BRANCH  11  12
ATOM     12  C   UNL     1       7.411  -4.383  25.347  0.00  0.00    +0.085 A 
ATOM     13  C   UNL     1       6.422  -5.175  24.786  0.00  0.00    +0.163 A 
ATOM     14  F   UNL     1       6.123  -5.131  23.481  0.00  0.00    -0.202 F 
ATOM     15  C   UNL     1       5.758  -6.037  25.626  0.00  0.00    +0.152 A 
ATOM     16  N   UNL     1       6.023  -6.137  26.944  0.00  0.00    -0.241 NA
ATOM     17  C   UNL     1       6.996  -5.329  27.399  0.00  0.00    +0.221 A 
ATOM     18  N   UNL     1       7.708  -4.447  26.669  0.00  0.00    -0.237 NA
ENDBRANCH  11  12
ENDBRANCH   1  11
BRANCH   1  19
ATOM     19  O   UNL     1       7.901  -1.624  26.061  0.00  0.00    -0.381 OA
ATOM     20  H   UNL     1       8.328  -2.379  26.502  0.00  0.00    +0.211 HD
ENDBRANCH   1  19
BRANCH   1  21
ATOM     21  C   UNL     1       6.262  -1.704  24.326  0.00  0.00    +0.185 C 
BRANCH  21  22
ATOM     22  N   UNL     1       5.592  -0.706  25.139  0.00  0.00    -0.249 N 
ATOM     23  N   UNL     1       4.921  -1.075  26.245  0.00  0.00    -0.158 NA
ATOM     24  C   UNL     1       4.407   0.091  26.645  0.00  0.00    +0.244 A 
ATOM     25  N   UNL     1       4.716   1.161  25.858  0.00  0.00    -0.223 NA
ATOM     26  C   UNL     1       5.463   0.630  24.916  0.00  0.00    +0.219 A 
ENDBRANCH  21  22
ENDBRANCH   1  21
TORSDOF 6
ENDMDL
MODEL 8
REMARK VINA RESULT:      -6.2      2.453      5.874
REMARK  Name = 
REMARK  7 active torsions:
REMARK  status: ('A' for Active; 'I' for Inactive)
REMARK    1  A    between atoms: C_1  and  C_2
REMARK    2  A    between atoms: C_2  and  C_4
REMARK    3  A    between atoms: C_2  and  C_11
REMARK    4  A    between atoms: C_11  and  O_12
REMARK    5  A    between atoms: C_11  and  C_13
REMARK    6  A    between atoms: C_11  and  C_19
REMARK    7  A    between atoms: C_13  and  N_14
REMARK                            x       y       z     vdW  Elec       q    Type
REMARK                         _______ _______ _______ _____ _____    ______ ____
ROOT
ATOM      1  C   UNL     1       7.563  -2.451  24.162  0.00  0.00    +0.121 C 
ENDROOT
BRANCH   1   2
ATOM      2  C   UNL     1       7.363  -3.412  25.356  0.00  0.00    +0.022 A 
ATOM      3  C   UNL     1       8.189  -4.539  25.557  0.00  0.00    +0.012 A 
ATOM      4  C   UNL     1       7.921  -5.466  26.573  0.00  0.00    +0.039 A 
ATOM      5  C   UNL     1       6.852  -5.258  27.432  0.00  0.00    +0.126 A 
ATOM      6  F   UNL     1       6.588  -6.155  28.391  0.00  0.00    -0.205 F 
ATOM      7  C   UNL     1       6.052  -4.139  27.303  0.00  0.00    +0.077 A 
ATOM      8  C   UNL     1       6.309  -3.236  26.274  0.00  0.00    +0.132 A 
ATOM      9  F   UNL     1       5.480  -2.191  26.160  0.00  0.00    -0.205 F 
ENDBRANCH   1   2
BRANCH   1  11
ATOM     10  C   UNL     1       9.070  -0.784  25.544  0.00  0.00    +0.017 C 
ATOM     11  C   UNL     1       7.936  -0.969  24.527  0.00  0.00    +0.076 C 
BRANCH  11  12
ATOM     12  C   UNL     1       8.172  -0.090  23.307  0.00  0.00    +0.085 A 
ATOM     13  C   UNL     1       7.290   0.938  23.016  0.00  0.00    +0.163 A 
ATOM     14  F   UNL     1       6.214   1.194  23.771  0.00  0.00    -0.202 F 
ATOM     15  C   UNL     1       7.572   1.712  21.915  0.00  0.00    +0.152 A 
ATOM     16  N   UNL     1       8.646   1.513  21.125  0.00  0.00    -0.241 NA
ATOM     17  C   UNL     1       9.444   0.492  21.485  0.00  0.00    +0.221 A 
ATOM     18  N   UNL     1       9.263  -0.329  22.537  0.00  0.00    -0.237 NA
ENDBRANCH  11  12
ENDBRANCH   1  11
BRANCH   1  19
ATOM     19  O   UNL     1       8.659  -2.961  23.350  0.00  0.00    -0.381 OA
ATOM     20  H   UNL     1       8.296  -3.575  22.688  0.00  0.00    +0.211 HD
ENDBRANCH   1  19
BRANCH   1  21
ATOM     21  C   UNL     1       6.313  -2.530  23.226  0.00  0.00    +0.185 C 
BRANCH  21  22
ATOM     22  N   UNL     1       5.992  -3.851  22.722  0.00  0.00    -0.249 N 
ATOM     23  N   UNL     1       6.822  -4.466  21.861  0.00  0.00    -0.158 NA
ATOM     24  C   UNL     1       6.145  -5.587  21.593  0.00  0.00    +0.244 A 
ATOM     25  N   UNL     1       4.947  -5.706  22.234  0.00  0.00    -0.223 NA
ATOM     26  C   UNL     1       4.875  -4.599  22.937  0.00  0.00    +0.219 A 
ENDBRANCH  21  22
ENDBRANCH   1  21
TORSDOF 6
ENDMDL
MODEL 9
REMARK VINA RESULT:      -6.1      2.819      4.485
REMARK  Name = 
REMARK  7 active torsions:
REMARK  status: ('A' for Active; 'I' for Inactive)
REMARK    1  A    between atoms: C_1  and  C_2
REMARK    2  A    between atoms: C_2  and  C_4
REMARK    3  A    between atoms: C_2  and  C_11
REMARK    4  A    between atoms: C_11  and  O_12
REMARK    5  A    between atoms: C_11  and  C_13
REMARK    6  A    between atoms: C_11  and  C_19
REMARK    7  A    between atoms: C_13  and  N_14
REMARK                            x       y       z     vdW  Elec       q    Type
REMARK                         _______ _______ _______ _____ _____    ______ ____
ROOT
ATOM      1  C   UNL     1       8.383  -2.032  24.376  0.00  0.00    +0.121 C 
ENDROOT
BRANCH   1   2
ATOM      2  C   UNL     1       7.711  -3.088  23.469  0.00  0.00    +0.022 A 
ATOM      3  C   UNL     1       6.662  -2.758  22.584  0.00  0.00    +0.012 A 
ATOM      4  C   UNL     1       5.982  -3.746  21.860  0.00  0.00    +0.039 A 
ATOM      5  C   UNL     1       6.369  -5.074  21.972  0.00  0.00    +0.126 A 
ATOM      6  F   UNL     1       5.707  -6.017  21.291  0.00  0.00    -0.205 F 
ATOM      7  C   UNL     1       7.427  -5.432  22.786  0.00  0.00    +0.077 A 
ATOM      8  C   UNL     1       8.079  -4.447  23.524  0.00  0.00    +0.132 A 
ATOM      9  F   UNL     1       9.068  -4.847  24.333  0.00  0.00    -0.205 F 
ENDBRANCH   1   2
BRANCH   1  11
ATOM     10  C   UNL     1       8.693  -1.142  26.840  0.00  0.00    +0.017 C 
ATOM     11  C   UNL     1       8.317  -2.311  25.921  0.00  0.00    +0.076 C 
BRANCH  11  12
ATOM     12  C   UNL     1       6.999  -2.930  26.365  0.00  0.00    +0.085 A 
ATOM     13  C   UNL     1       6.986  -4.193  26.933  0.00  0.00    +0.163 A 
ATOM     14  F   UNL     1       8.102  -4.912  27.106  0.00  0.00    -0.202 F 
ATOM     15  C   UNL     1       5.768  -4.686  27.337  0.00  0.00    +0.152 A 
ATOM     16  N   UNL     1       4.612  -4.005  27.202  0.00  0.00    -0.241 NA
ATOM     17  C   UNL     1       4.723  -2.789  26.639  0.00  0.00    +0.221 A 
ATOM     18  N   UNL     1       5.860  -2.210  26.206  0.00  0.00    -0.237 NA
ENDBRANCH  11  12
ENDBRANCH   1  11
BRANCH   1  19
ATOM     19  O   UNL     1       9.797  -1.975  24.030  0.00  0.00    -0.381 OA
ATOM     20  H   UNL     1      10.265  -1.474  24.721  0.00  0.00    +0.211 HD
ENDBRANCH   1  19
BRANCH   1  21
ATOM     21  C   UNL     1       7.833  -0.616  24.009  0.00  0.00    +0.185 C 
BRANCH  21  22
ATOM     22  N   UNL     1       8.774   0.270  23.351  0.00  0.00    -0.249 N 
ATOM     23  N   UNL     1       9.651   0.985  24.078  0.00  0.00    -0.158 NA
ATOM     24  C   UNL     1      10.261   1.702  23.130  0.00  0.00    +0.244 A 
ATOM     25  N   UNL     1       9.818   1.477  21.860  0.00  0.00    -0.223 NA
ATOM     26  C   UNL     1       8.881   0.571  22.028  0.00  0.00    +0.219 A 
ENDBRANCH  21  22
ENDBRANCH   1  21
TORSDOF 6
ENDMDL
