MODEL 1
REMARK VINA RESULT:      -6.2      0.000      0.000
REMARK  Name = 
REMARK  5 active torsions:
REMARK  status: ('A' for Active; 'I' for Inactive)
REMARK    1  A    between atoms: N_1  and  CA_2
REMARK    2  A    between atoms: CA_2  and  C_4
REMARK    3  A    between atoms: CA_2  and  C_15
REMARK    4  A    between atoms: C_4  and  C_5
REMARK    5  A    between atoms: C_15  and  O_16
REMARK                            x       y       z     vdW  Elec       q    Type
REMARK                         _______ _______ _______ _____ _____    ______ ____
ROOT
ATOM      1  C   UNL     1       9.728  -1.647  23.175  0.00  0.00    -0.018 A 
ATOM      2  C   UNL     1       9.964  -0.237  23.308  0.00  0.00    +0.038 A 
ATOM      3  C   UNL     1      10.349   0.619  24.361  0.00  0.00    +0.133 A 
ATOM      4  C   UNL     1      10.535   1.984  24.136  0.00  0.00    +0.039 A 
ATOM      5  C   UNL     1      10.340   2.520  22.867  0.00  0.00    +0.005 A 
ATOM      6  C   UNL     1       9.943   1.706  21.800  0.00  0.00    +0.026 A 
ATOM      7  F   UNL     1      10.569   0.126  25.589  0.00  0.00    -0.205 F 
ATOM      8  C   UNL     1       9.763   0.338  22.051  0.00  0.00    +0.049 A 
ATOM      9  N   UNL     1       9.384  -0.669  21.197  0.00  0.00    -0.360 N 
ATOM     10  H   UNL     1       9.171  -0.546  20.217  0.00  0.00    +0.165 HD
ATOM     11  C   UNL     1       9.357  -1.861  21.863  0.00  0.00    +0.087 A 
ENDROOT
BRANCH   1  12
ATOM     12  C   UNL     1       9.848  -2.719  24.223  0.00  0.00    +0.067 C 
BRANCH  12  13
ATOM     13  CA  UNL     1       8.738  -3.783  24.185  0.00  0.00    +0.165 C 
BRANCH  13  14
ATOM     14  N   UNL     1       7.379  -3.251  24.537  0.00  0.00    -0.318 NA
ATOM     15  H1  UNL     1       6.736  -3.511  23.779  0.00  0.00    +0.119 HD
ATOM     16  H2  UNL     1       7.032  -3.813  25.323  0.00  0.00    +0.119 HD
ENDBRANCH  13  14
BRANCH  13  17
ATOM     17  C   UNL     1       9.056  -4.975  25.104  0.00  0.00    +0.322 C 
ATOM     18  OXT UNL     1       8.265  -5.529  25.853  0.00  0.00    -0.249 OA
BRANCH  17  19
ATOM     19  O   UNL     1      10.370  -5.327  25.017  0.00  0.00    -0.480 OA
ATOM     20  H   UNL     1      10.546  -5.427  24.047  0.00  0.00    +0.295 HD
ENDBRANCH  17  19
ENDBRANCH  13  17
ENDBRANCH  12  13
ENDBRANCH   1  12
TORSDOF 5
ENDMDL
MODEL 2
REMARK VINA RESULT:      -6.2      2.265      2.857
REMARK  Name = 
REMARK  5 active torsions:
REMARK  status: ('A' for Active; 'I' for Inactive)
REMARK    1  A    between atoms: N_1  and  CA_2
REMARK    2  A    between atoms: CA_2  and  C_4
REMARK    3  A    between atoms: CA_2  and  C_15
REMARK    4  A    between atoms: C_4  and  C_5
REMARK    5  A    between atoms: C_15  and  O_16
REMARK                            x       y       z     vdW  Elec       q    Type
REMARK                         _______ _______ _______ _____ _____    ______ ____
ROOT
ATOM      1  C   UNL     1       9.028  -2.073  24.991  0.00  0.00    -0.018 A 
ATOM      2  C   UNL     1       9.432  -0.962  24.176  0.00  0.00    +0.038 A 
ATOM      3  C   UNL     1       9.813  -0.796  22.828  0.00  0.00    +0.133 A 
ATOM      4  C   UNL     1      10.115   0.471  22.326  0.00  0.00    +0.039 A 
ATOM      5  C   UNL     1      10.049   1.589  23.153  0.00  0.00    +0.005 A 
ATOM      6  C   UNL     1       9.689   1.462  24.499  0.00  0.00    +0.026 A 
ATOM      7  F   UNL     1       9.862  -1.852  22.002  0.00  0.00    -0.205 F 
ATOM      8  C   UNL     1       9.390   0.179  24.980  0.00  0.00    +0.049 A 
ATOM      9  N   UNL     1       9.013  -0.221  26.239  0.00  0.00    -0.360 N 
ATOM     10  H   UNL     1       8.900   0.395  27.031  0.00  0.00    +0.165 HD
ATOM     11  C   UNL     1       8.799  -1.570  26.256  0.00  0.00    +0.087 A 
ENDROOT
BRANCH   1  12
ATOM     12  C   UNL     1       8.869  -3.516  24.596  0.00  0.00    +0.067 C 
BRANCH  12  13
ATOM     13  CA  UNL     1       9.166  -4.527  25.717  0.00  0.00    +0.165 C 
BRANCH  13  14
ATOM     14  N   UNL     1      10.233  -5.523  25.366  0.00  0.00    -0.318 NA
ATOM     15  H1  UNL     1       9.815  -6.220  24.738  0.00  0.00    +0.119 HD
ATOM     16  H2  UNL     1      10.899  -5.042  24.752  0.00  0.00    +0.119 HD
ENDBRANCH  13  14
BRANCH  13  17
ATOM     17  C   UNL     1       7.901  -5.287  26.151  0.00  0.00    +0.322 C 
ATOM     18  OXT UNL     1       6.879  -5.406  25.491  0.00  0.00    -0.249 OA
BRANCH  17  19
ATOM     19  O   UNL     1       8.036  -5.792  27.409  0.00  0.00    -0.480 OA
ATOM     20  H   UNL     1       8.969  -5.585  27.671  0.00  0.00    +0.295 HD
ENDBRANCH  17  19
ENDBRANCH  13  17
ENDBRANCH  12  13
ENDBRANCH   1  12
TORSDOF 5
ENDMDL
MODEL 3
REMARK VINA RESULT:      -6.0      2.071      2.797
REMARK  Name = 
REMARK  5 active torsions:
REMARK  status: ('A' for Active; 'I' for Inactive)
REMARK    1  A    between atoms: N_1  and  CA_2
REMARK    2  A    between atoms: CA_2  and  C_4
REMARK    3  A    between atoms: CA_2  and  C_15
REMARK    4  A    between atoms: C_4  and  C_5
REMARK    5  A    between atoms: C_15  and  O_16
REMARK                            x       y       z     vdW  Elec       q    Type
REMARK                         _______ _______ _______ _____ _____    ______ ____
ROOT
ATOM      1  C   UNL     1       7.602  -3.260  23.433  0.00  0.00    -0.018 A 
ATOM      2  C   UNL     1       8.404  -2.087  23.235  0.00  0.00    +0.038 A 
ATOM      3  C   UNL     1       9.784  -1.798  23.280  0.00  0.00    +0.133 A 
ATOM      4  C   UNL     1      10.253  -0.516  22.985  0.00  0.00    +0.039 A 
ATOM      5  C   UNL     1       9.360   0.497  22.647  0.00  0.00    +0.005 A 
ATOM      6  C   UNL     1       7.983   0.254  22.606  0.00  0.00    +0.026 A 
ATOM      7  F   UNL     1      10.669  -2.761  23.579  0.00  0.00    -0.205 F 
ATOM      8  C   UNL     1       7.537  -1.042  22.905  0.00  0.00    +0.049 A 
ATOM      9  N   UNL     1       6.260  -1.546  22.937  0.00  0.00    -0.360 N 
ATOM     10  H   UNL     1       5.424  -1.013  22.740  0.00  0.00    +0.165 HD
ATOM     11  C   UNL     1       6.288  -2.874  23.257  0.00  0.00    +0.087 A 
ENDROOT
BRANCH   1  12
ATOM     12  C   UNL     1       8.051  -4.657  23.766  0.00  0.00    +0.067 C 
BRANCH  12  13
ATOM     13  CA  UNL     1       8.612  -4.831  25.188  0.00  0.00    +0.165 C 
BRANCH  13  14
ATOM     14  N   UNL     1       9.861  -5.662  25.247  0.00  0.00    -0.318 NA
ATOM     15  H1  UNL     1       9.634  -6.595  24.882  0.00  0.00    +0.119 HD
ATOM     16  H2  UNL     1      10.498  -5.294  24.532  0.00  0.00    +0.119 HD
ENDBRANCH  13  14
BRANCH  13  17
ATOM     17  C   UNL     1       7.569  -5.434  26.144  0.00  0.00    +0.322 C 
ATOM     18  OXT UNL     1       6.383  -5.592  25.897  0.00  0.00    -0.249 OA
BRANCH  17  19
ATOM     19  O   UNL     1       8.125  -5.742  27.349  0.00  0.00    -0.480 OA
ATOM     20  H   UNL     1       8.550  -4.902  27.659  0.00  0.00    +0.295 HD
ENDBRANCH  17  19
ENDBRANCH  13  17
ENDBRANCH  12  13
ENDBRANCH   1  12
TORSDOF 5
ENDMDL
MODEL 4
REMARK VINA RESULT:      -5.6      1.842      2.021
REMARK  Name = 
REMARK  5 active torsions:
REMARK  status: ('A' for Active; 'I' for Inactive)
REMARK    1  A    between atoms: N_1  and  CA_2
REMARK    2  A    between atoms: CA_2  and  C_4
REMARK    3  A    between atoms: CA_2  and  C_15
REMARK    4  A    between atoms: C_4  and  C_5
REMARK    5  A    between atoms: C_15  and  O_16
REMARK                            x       y       z     vdW  Elec       q    Type
REMARK                         _______ _______ _______ _____ _____    ______ ____
ROOT
ATOM      1  C   UNL     1       9.160  -1.528  23.516  0.00  0.00    -0.018 A 
ATOM      2  C   UNL     1       8.447  -0.367  23.066  0.00  0.00    +0.038 A 
ATOM      3  C   UNL     1       7.310   0.343  23.505  0.00  0.00    +0.133 A 
ATOM      4  C   UNL     1       6.891   1.497  22.840  0.00  0.00    +0.039 A 
ATOM      5  C   UNL     1       7.591   1.961  21.730  0.00  0.00    +0.005 A 
ATOM      6  C   UNL     1       8.715   1.277  21.255  0.00  0.00    +0.026 A 
ATOM      7  F   UNL     1       6.631  -0.067  24.587  0.00  0.00    -0.205 F 
ATOM      8  C   UNL     1       9.116   0.120  21.940  0.00  0.00    +0.049 A 
ATOM      9  N   UNL     1      10.168  -0.727  21.691  0.00  0.00    -0.360 N 
ATOM     10  H   UNL     1      10.828  -0.622  20.933  0.00  0.00    +0.165 HD
ATOM     11  C   UNL     1      10.200  -1.721  22.628  0.00  0.00    +0.087 A 
ENDROOT
BRANCH   1  12
ATOM     12  C   UNL     1       8.876  -2.398  24.710  0.00  0.00    +0.067 C 
BRANCH  12  13
ATOM     13  CA  UNL     1       8.984  -3.910  24.446  0.00  0.00    +0.165 C 
BRANCH  13  14
ATOM     14  N   UNL     1       7.720  -4.522  23.914  0.00  0.00    -0.318 NA
ATOM     15  H1  UNL     1       7.460  -4.010  23.062  0.00  0.00    +0.119 HD
ATOM     16  H2  UNL     1       7.969  -5.448  23.548  0.00  0.00    +0.119 HD
ENDBRANCH  13  14
BRANCH  13  17
ATOM     17  C   UNL     1       9.416  -4.681  25.705  0.00  0.00    +0.322 C 
ATOM     18  OXT UNL     1       8.994  -4.491  26.836  0.00  0.00    -0.249 OA
BRANCH  17  19
ATOM     19  O   UNL     1      10.381  -5.597  25.415  0.00  0.00    -0.480 OA
ATOM     20  H   UNL     1      11.159  -5.064  25.109  0.00  0.00    +0.295 HD
ENDBRANCH  17  19
ENDBRANCH  13  17
ENDBRANCH  12  13
ENDBRANCH   1  12
TORSDOF 5
ENDMDL
MODEL 5
REMARK VINA RESULT:      -5.6      3.269      5.546
REMARK  Name = 
REMARK  5 active torsions:
REMARK  status: ('A' for Active; 'I' for Inactive)
REMARK    1  A    between atoms: N_1  and  CA_2
REMARK    2  A    between atoms: CA_2  and  C_4
REMARK    3  A    between atoms: CA_2  and  C_15
REMARK    4  A    between atoms: C_4  and  C_5
REMARK    5  A    between atoms: C_15  and  O_16
REMARK                            x       y       z     vdW  Elec       q    Type
REMARK                         _______ _______ _______ _____ _____    ______ ____
ROOT
ATOM      1  C   UNL     1       8.602  -2.990  24.368  0.00  0.00    -0.018 A 
ATOM      2  C   UNL     1       7.668  -3.496  23.402  0.00  0.00    +0.038 A 
ATOM      3  C   UNL     1       6.744  -2.920  22.506  0.00  0.00    +0.133 A 
ATOM      4  C   UNL     1       5.993  -3.723  21.645  0.00  0.00    +0.039 A 
ATOM      5  C   UNL     1       6.145  -5.106  21.664  0.00  0.00    +0.005 A 
ATOM      6  C   UNL     1       7.040  -5.716  22.549  0.00  0.00    +0.026 A 
ATOM      7  F   UNL     1       6.595  -1.588  22.449  0.00  0.00    -0.205 F 
ATOM      8  C   UNL     1       7.783  -4.888  23.403  0.00  0.00    +0.049 A 
ATOM      9  N   UNL     1       8.718  -5.220  24.353  0.00  0.00    -0.360 N 
ATOM     10  H   UNL     1       9.007  -6.162  24.575  0.00  0.00    +0.165 HD
ATOM     11  C   UNL     1       9.211  -4.089  24.940  0.00  0.00    +0.087 A 
ENDROOT
BRANCH   1  12
ATOM     12  C   UNL     1       8.898  -1.559  24.724  0.00  0.00    +0.067 C 
BRANCH  12  13
ATOM     13  CA  UNL     1      10.121  -0.957  24.009  0.00  0.00    +0.165 C 
BRANCH  13  14
ATOM     14  N   UNL     1      10.648   0.289  24.660  0.00  0.00    -0.318 NA
ATOM     15  H1  UNL     1       9.966   0.584  25.369  0.00  0.00    +0.119 HD
ATOM     16  H2  UNL     1      11.454   0.009  25.231  0.00  0.00    +0.119 HD
ENDBRANCH  13  14
BRANCH  13  17
ATOM     17  C   UNL     1       9.828  -0.658  22.529  0.00  0.00    +0.322 C 
ATOM     18  OXT UNL     1       9.167   0.280  22.109  0.00  0.00    -0.249 OA
BRANCH  17  19
ATOM     19  O   UNL     1      10.370  -1.609  21.718  0.00  0.00    -0.480 OA
ATOM     20  H   UNL     1      11.311  -1.698  22.017  0.00  0.00    +0.295 HD
ENDBRANCH  17  19
ENDBRANCH  13  17
ENDBRANCH  12  13
ENDBRANCH   1  12
TORSDOF 5
ENDMDL
MODEL 6
REMARK VINA RESULT:      -5.6      1.833      1.918
REMARK  Name = 
REMARK  5 active torsions:
REMARK  status: ('A' for Active; 'I' for Inactive)
REMARK    1  A    between atoms: N_1  and  CA_2
REMARK    2  A    between atoms: CA_2  and  C_4
REMARK    3  A    between atoms: CA_2  and  C_15
REMARK    4  A    between atoms: C_4  and  C_5
REMARK    5  A    between atoms: C_15  and  O_16
REMARK                            x       y       z     vdW  Elec       q    Type
REMARK                         _______ _______ _______ _____ _____    ______ ____
ROOT
ATOM      1  C   UNL     1       7.784  -1.384  24.366  0.00  0.00    -0.018 A 
ATOM      2  C   UNL     1       8.518  -0.348  23.696  0.00  0.00    +0.038 A 
ATOM      3  C   UNL     1       9.850   0.116  23.728  0.00  0.00    +0.133 A 
ATOM      4  C   UNL     1      10.261   1.154  22.890  0.00  0.00    +0.039 A 
ATOM      5  C   UNL     1       9.358   1.748  22.012  0.00  0.00    +0.005 A 
ATOM      6  C   UNL     1       8.026   1.326  21.962  0.00  0.00    +0.026 A 
ATOM      7  F   UNL     1      10.747  -0.454  24.546  0.00  0.00    -0.205 F 
ATOM      8  C   UNL     1       7.637   0.281  22.814  0.00  0.00    +0.049 A 
ATOM      9  N   UNL     1       6.410  -0.318  22.965  0.00  0.00    -0.360 N 
ATOM     10  H   UNL     1       5.577  -0.066  22.452  0.00  0.00    +0.165 HD
ATOM     11  C   UNL     1       6.488  -1.314  23.896  0.00  0.00    +0.087 A 
ENDROOT
BRANCH   1  12
ATOM     12  C   UNL     1       8.279  -2.375  25.383  0.00  0.00    +0.067 C 
BRANCH  12  13
ATOM     13  CA  UNL     1       9.109  -3.533  24.803  0.00  0.00    +0.165 C 
BRANCH  13  14
ATOM     14  N   UNL     1       8.506  -4.153  23.576  0.00  0.00    -0.318 NA
ATOM     15  H1  UNL     1       7.496  -3.967  23.595  0.00  0.00    +0.119 HD
ATOM     16  H2  UNL     1       8.819  -3.594  22.774  0.00  0.00    +0.119 HD
ENDBRANCH  13  14
BRANCH  13  17
ATOM     17  C   UNL     1       9.358  -4.637  25.845  0.00  0.00    +0.322 C 
ATOM     18  OXT UNL     1       8.836  -4.706  26.948  0.00  0.00    -0.249 OA
BRANCH  17  19
ATOM     19  O   UNL     1      10.286  -5.532  25.404  0.00  0.00    -0.480 OA
ATOM     20  H   UNL     1      10.276  -5.447  24.416  0.00  0.00    +0.295 HD
ENDBRANCH  17  19
ENDBRANCH  13  17
ENDBRANCH  12  13
ENDBRANCH   1  12
TORSDOF 5
ENDMDL
MODEL 7
REMARK VINA RESULT:      -5.5      1.866      2.534
REMARK  Name = 
REMARK  5 active torsions:
REMARK  status: ('A' for Active; 'I' for Inactive)
REMARK    1  A    between atoms: N_1  and  CA_2
REMARK    2  A    between atoms: CA_2  and  C_4
REMARK    3  A    between atoms: CA_2  and  C_15
REMARK    4  A    between atoms: C_4  and  C_5
REMARK    5  A    between atoms: C_15  and  O_16
REMARK                            x       y       z     vdW  Elec       q    Type
REMARK                         _______ _______ _______ _____ _____    ______ ____
ROOT
ATOM      1  C   UNL     1       7.622  -2.783  24.173  0.00  0.00    -0.018 A 
ATOM      2  C   UNL     1       8.583  -1.723  24.294  0.00  0.00    +0.038 A 
ATOM      3  C   UNL     1       9.093  -0.950  25.358  0.00  0.00    +0.133 A 
ATOM      4  C   UNL     1      10.085   0.005  25.131  0.00  0.00    +0.039 A 
ATOM      5  C   UNL     1      10.582   0.210  23.847  0.00  0.00    +0.005 A 
ATOM      6  C   UNL     1      10.092  -0.526  22.764  0.00  0.00    +0.026 A 
ATOM      7  F   UNL     1       8.650  -1.143  26.609  0.00  0.00    -0.205 F 
ATOM      8  C   UNL     1       9.095  -1.481  23.017  0.00  0.00    +0.049 A 
ATOM      9  N   UNL     1       8.450  -2.328  22.150  0.00  0.00    -0.360 N 
ATOM     10  H   UNL     1       8.617  -2.374  21.155  0.00  0.00    +0.165 HD
ATOM     11  C   UNL     1       7.562  -3.109  22.834  0.00  0.00    +0.087 A 
ENDROOT
BRANCH   1  12
ATOM     12  C   UNL     1       6.816  -3.444  25.258  0.00  0.00    +0.067 C 
BRANCH  12  13
ATOM     13  CA  UNL     1       7.199  -4.906  25.545  0.00  0.00    +0.165 C 
BRANCH  13  14
ATOM     14  N   UNL     1       6.020  -5.806  25.773  0.00  0.00    -0.318 NA
ATOM     15  H1  UNL     1       5.737  -5.709  26.756  0.00  0.00    +0.119 HD
ATOM     16  H2  UNL     1       5.226  -5.391  25.272  0.00  0.00    +0.119 HD
ENDBRANCH  13  14
BRANCH  13  17
ATOM     17  C   UNL     1       8.151  -5.022  26.748  0.00  0.00    +0.322 C 
ATOM     18  OXT UNL     1       9.189  -4.394  26.898  0.00  0.00    -0.249 OA
BRANCH  17  19
ATOM     19  O   UNL     1       7.716  -5.962  27.633  0.00  0.00    -0.480 OA
ATOM     20  H   UNL     1       7.364  -5.447  28.403  0.00  0.00    +0.295 HD
ENDBRANCH  17  19
ENDBRANCH  13  17
ENDBRANCH  12  13
ENDBRANCH   1  12
TORSDOF 5
ENDMDL
MODEL 8
REMARK VINA RESULT:      -5.5      1.959      2.574
REMARK  Name = 
REMARK  5 active torsions:
REMARK  status: ('A' for Active; 'I' for Inactive)
REMARK    1  A    between atoms: N_1  and  CA_2
REMARK    2  A    between atoms: CA_2  and  C_4
REMARK    3  A    between atoms: CA_2  and  C_15
REMARK    4  A    between atoms: C_4  and  C_5
REMARK    5  A    between atoms: C_15  and  O_16
REMARK                            x       y       z     vdW  Elec       q    Type
REMARK                         _______ _______ _______ _____ _____    ______ ____
ROOT
ATOM      1  C   UNL     1       9.477  -1.215  24.491  0.00  0.00    -0.018 A 
ATOM      2  C   UNL     1       9.631   0.023  23.780  0.00  0.00    +0.038 A 
ATOM      3  C   UNL     1       9.962   0.385  22.458  0.00  0.00    +0.133 A 
ATOM      4  C   UNL     1       9.985   1.726  22.071  0.00  0.00    +0.039 A 
ATOM      5  C   UNL     1       9.685   2.727  22.991  0.00  0.00    +0.005 A 
ATOM      6  C   UNL     1       9.367   2.410  24.316  0.00  0.00    +0.026 A 
ATOM      7  F   UNL     1      10.231  -0.560  21.544  0.00  0.00    -0.205 F 
ATOM      8  C   UNL     1       9.349   1.055  24.679  0.00  0.00    +0.049 A 
ATOM      9  N   UNL     1       9.073   0.475  25.893  0.00  0.00    -0.360 N 
ATOM     10  H   UNL     1       8.834   0.981  26.734  0.00  0.00    +0.165 HD
ATOM     11  C   UNL     1       9.151  -0.885  25.791  0.00  0.00    +0.087 A 
ENDROOT
BRANCH   1  12
ATOM     12  C   UNL     1       9.628  -2.618  23.970  0.00  0.00    +0.067 C 
BRANCH  12  13
ATOM     13  CA  UNL     1       8.351  -3.216  23.353  0.00  0.00    +0.165 C 
BRANCH  13  14
ATOM     14  N   UNL     1       7.115  -2.407  23.618  0.00  0.00    -0.318 NA
ATOM     15  H1  UNL     1       7.181  -1.544  23.063  0.00  0.00    +0.119 HD
ATOM     16  H2  UNL     1       6.334  -2.899  23.169  0.00  0.00    +0.119 HD
ENDBRANCH  13  14
BRANCH  13  17
ATOM     17  C   UNL     1       8.110  -4.660  23.826  0.00  0.00    +0.322 C 
ATOM     18  OXT UNL     1       8.956  -5.406  24.296  0.00  0.00    -0.249 OA
BRANCH  17  19
ATOM     19  O   UNL     1       6.818  -5.039  23.615  0.00  0.00    -0.480 OA
ATOM     20  H   UNL     1       6.724  -5.095  22.629  0.00  0.00    +0.295 HD
ENDBRANCH  17  19
ENDBRANCH  13  17
ENDBRANCH  12  13
ENDBRANCH   1  12
TORSDOF 5
ENDMDL
MODEL 9
REMARK VINA RESULT:      -5.5      3.695      5.555
REMARK  Name = 
REMARK  5 active torsions:
REMARK  status: ('A' for Active; 'I' for Inactive)
REMARK    1  A    between atoms: N_1  and  CA_2
REMARK    2  A    between atoms: CA_2  and  C_4
REMARK    3  A    between atoms: CA_2  and  C_15
REMARK    4  A    between atoms: C_4  and  C_5
REMARK    5  A    between atoms: C_15  and  O_16
REMARK                            x       y       z     vdW  Elec       q    Type
REMARK                         _______ _______ _______ _____ _____    ______ ____
ROOT
ATOM      1  C   UNL     1       8.681  -0.628  23.014  0.00  0.00    -0.018 A 
ATOM      2  C   UNL     1       8.316  -1.896  23.580  0.00  0.00    +0.038 A 
ATOM      3  C   UNL     1       9.022  -3.030  24.034  0.00  0.00    +0.133 A 
ATOM      4  C   UNL     1       8.341  -4.117  24.585  0.00  0.00    +0.039 A 
ATOM      5  C   UNL     1       6.953  -4.097  24.690  0.00  0.00    +0.005 A 
ATOM      6  C   UNL     1       6.217  -2.997  24.237  0.00  0.00    +0.026 A 
ATOM      7  F   UNL     1      10.361  -3.066  23.969  0.00  0.00    -0.205 F 
ATOM      8  C   UNL     1       6.924  -1.917  23.687  0.00  0.00    +0.049 A 
ATOM      9  N   UNL     1       6.456  -0.731  23.176  0.00  0.00    -0.360 N 
ATOM     10  H   UNL     1       5.482  -0.468  23.123  0.00  0.00    +0.165 HD
ATOM     11  C   UNL     1       7.502   0.047  22.766  0.00  0.00    +0.087 A 
ENDROOT
BRANCH   1  12
ATOM     12  C   UNL     1      10.057  -0.090  22.729  0.00  0.00    +0.067 C 
BRANCH  12  13
ATOM     13  CA  UNL     1      10.517   1.034  23.674  0.00  0.00    +0.165 C 
BRANCH  13  14
ATOM     14  N   UNL     1       9.903   0.963  25.042  0.00  0.00    -0.318 NA
ATOM     15  H1  UNL     1       9.227   1.732  25.121  0.00  0.00    +0.119 HD
ATOM     16  H2  UNL     1       9.299   0.134  25.055  0.00  0.00    +0.119 HD
ENDBRANCH  13  14
BRANCH  13  17
ATOM     17  C   UNL     1      10.246   2.427  23.080  0.00  0.00    +0.322 C 
ATOM     18  OXT UNL     1       9.981   3.434  23.719  0.00  0.00    -0.249 OA
BRANCH  17  19
ATOM     19  O   UNL     1      10.295   2.401  21.719  0.00  0.00    -0.480 OA
ATOM     20  H   UNL     1      10.560   3.318  21.452  0.00  0.00    +0.295 HD
ENDBRANCH  17  19
ENDBRANCH  13  17
ENDBRANCH  12  13
ENDBRANCH   1  12
TORSDOF 5
ENDMDL
