MODEL 1
REMARK VINA RESULT:      -6.7      0.000      0.000
REMARK  Name = 
REMARK  8 active torsions:
REMARK  status: ('A' for Active; 'I' for Inactive)
REMARK    1  A    between atoms: O_1  and  C_2
REMARK    2  A    between atoms: C_4  and  C_6
REMARK    3  A    between atoms: C_6  and  O_7
REMARK    4  A    between atoms: O_7  and  P_8
REMARK    5  A    between atoms: P_8  and  O_9
REMARK    6  A    between atoms: P_8  and  O_10
REMARK    7  A    between atoms: C_13  and  N_18
REMARK    8  A    between atoms: C_15  and  O_17
REMARK                            x       y       z     vdW  Elec       q    Type
REMARK                         _______ _______ _______ _____ _____    ______ ____
ROOT
ATOM      1  C   UNL     1       7.493  -1.322  22.792  0.00  0.00    +0.178 C 
ATOM      2  C   UNL     1       7.144  -2.792  22.971  0.00  0.00    +0.197 C 
ATOM      3  C   UNL     1       8.384  -3.376  23.670  0.00  0.00    +0.273 C 
ATOM      4  O   UNL     1       9.286  -2.302  23.982  0.00  0.00    -0.344 OA
ATOM      5  C   UNL     1       8.546  -1.085  23.865  0.00  0.00    +0.178 C 
ENDROOT
BRANCH   3   6
ATOM      6  N   UNL     1       8.040  -4.091  24.900  0.00  0.00    -0.183 N 
ATOM      7  C   UNL     1       8.989  -4.942  25.436  0.00  0.00    +0.348 A 
ATOM      8  O   UNL     1      10.086  -5.160  24.921  0.00  0.00    -0.245 OA
ATOM      9  N   UNL     1       8.651  -5.567  26.607  0.00  0.00    -0.272 N 
ATOM     10  H   UNL     1       9.343  -6.159  27.041  0.00  0.00    +0.174 HD
ATOM     11  C   UNL     1       7.435  -5.456  27.207  0.00  0.00    +0.272 A 
ATOM     12  O   UNL     1       7.110  -5.990  28.252  0.00  0.00    -0.266 OA
ATOM     13  C   UNL     1       6.448  -4.608  26.467  0.00  0.00    +0.203 A 
ATOM     14  N   UNL     1       6.742  -3.979  25.379  0.00  0.00    -0.168 NA
ENDBRANCH   3   6
BRANCH   1  15
ATOM     15  O   UNL     1       6.348  -0.489  22.971  0.00  0.00    -0.386 OA
ATOM     16  H   UNL     1       5.857  -0.500  22.128  0.00  0.00    +0.210 HD
ENDBRANCH   1  15
BRANCH   2  17
ATOM     17  O   UNL     1       6.910  -3.398  21.691  0.00  0.00    -0.385 OA
ATOM     18  H   UNL     1       7.782  -3.633  21.321  0.00  0.00    +0.210 HD
ENDBRANCH   2  17
BRANCH   5  19
ATOM     19  C   UNL     1       9.504   0.039  23.510  0.00  0.00    +0.206 C 
BRANCH  19  20
ATOM     20  O   UNL     1       8.868   1.296  23.671  0.00  0.00    -0.284 OA
BRANCH  20  21
ATOM     21  P   UNL     1       8.735   2.215  22.366  0.00  0.00    +0.472 P 
ATOM     22  O   UNL     1       7.523   1.980  21.538  0.00  0.00    -0.228 OA
BRANCH  21  23
ATOM     23  O   UNL     1      10.107   1.982  21.588  0.00  0.00    -0.303 OA
ATOM     24  H   UNL     1       9.986   2.042  20.624  0.00  0.00    +0.222 HD
ENDBRANCH  21  23
BRANCH  21  25
ATOM     25  O   UNL     1       8.864   3.700  22.930  0.00  0.00    -0.303 OA
ATOM     26  H   UNL     1       9.737   3.853  23.334  0.00  0.00    +0.222 HD
ENDBRANCH  21  25
ENDBRANCH  20  21
ENDBRANCH  19  20
ENDBRANCH   5  19
TORSDOF 8
ENDMDL
MODEL 2
REMARK VINA RESULT:      -6.6      3.340      7.020
REMARK  Name = 
REMARK  8 active torsions:
REMARK  status: ('A' for Active; 'I' for Inactive)
REMARK    1  A    between atoms: O_1  and  C_2
REMARK    2  A    between atoms: C_4  and  C_6
REMARK    3  A    between atoms: C_6  and  O_7
REMARK    4  A    between atoms: O_7  and  P_8
REMARK    5  A    between atoms: P_8  and  O_9
REMARK    6  A    between atoms: P_8  and  O_10
REMARK    7  A    between atoms: C_13  and  N_18
REMARK    8  A    between atoms: C_15  and  O_17
REMARK                            x       y       z     vdW  Elec       q    Type
REMARK                         _______ _______ _______ _____ _____    ______ ____
ROOT
ATOM      1  C   UNL     1       8.215  -5.320  26.004  0.00  0.00    +0.178 C 
ATOM      2  C   UNL     1       9.429  -4.544  25.516  0.00  0.00    +0.197 C 
ATOM      3  C   UNL     1       8.887  -3.732  24.327  0.00  0.00    +0.273 C 
ATOM      4  O   UNL     1       7.465  -3.926  24.246  0.00  0.00    -0.344 OA
ATOM      5  C   UNL     1       7.047  -4.488  25.491  0.00  0.00    +0.178 C 
ENDROOT
BRANCH   3   6
ATOM      6  N   UNL     1       9.173  -2.301  24.459  0.00  0.00    -0.183 N 
ATOM      7  C   UNL     1       9.971  -1.714  23.494  0.00  0.00    +0.348 A 
ATOM      8  O   UNL     1      10.483  -2.328  22.558  0.00  0.00    -0.245 OA
ATOM      9  N   UNL     1      10.188  -0.368  23.624  0.00  0.00    -0.272 N 
ATOM     10  H   UNL     1      10.731   0.093  22.910  0.00  0.00    +0.174 HD
ATOM     11  C   UNL     1       9.736   0.380  24.668  0.00  0.00    +0.272 A 
ATOM     12  O   UNL     1       9.904   1.578  24.804  0.00  0.00    -0.266 OA
ATOM     13  C   UNL     1       8.992  -0.391  25.712  0.00  0.00    +0.203 A 
ATOM     14  N   UNL     1       8.742  -1.653  25.607  0.00  0.00    -0.168 NA
ENDBRANCH   3   6
BRANCH   1  15
ATOM     15  O   UNL     1       8.207  -5.435  27.426  0.00  0.00    -0.386 OA
ATOM     16  H   UNL     1       8.164  -6.388  27.631  0.00  0.00    +0.210 HD
ENDBRANCH   1  15
BRANCH   2  17
ATOM     17  O   UNL     1      10.465  -5.455  25.119  0.00  0.00    -0.385 OA
ATOM     18  H   UNL     1      11.177  -5.388  25.783  0.00  0.00    +0.210 HD
ENDBRANCH   2  17
BRANCH   5  19
ATOM     19  C   UNL     1       5.795  -5.315  25.259  0.00  0.00    +0.206 C 
BRANCH  19  20
ATOM     20  O   UNL     1       5.817  -6.478  26.072  0.00  0.00    -0.284 OA
BRANCH  20  21
ATOM     21  P   UNL     1       4.716  -6.574  27.230  0.00  0.00    +0.472 P 
ATOM     22  O   UNL     1       4.246  -5.274  27.779  0.00  0.00    -0.228 OA
BRANCH  21  23
ATOM     23  O   UNL     1       5.381  -7.534  28.316  0.00  0.00    -0.303 OA
ATOM     24  H   UNL     1       6.347  -7.581  28.208  0.00  0.00    +0.222 HD
ENDBRANCH  21  23
BRANCH  21  25
ATOM     25  O   UNL     1       3.562  -7.468  26.588  0.00  0.00    -0.303 OA
ATOM     26  H   UNL     1       2.964  -7.821  27.270  0.00  0.00    +0.222 HD
ENDBRANCH  21  25
ENDBRANCH  20  21
ENDBRANCH  19  20
ENDBRANCH   5  19
TORSDOF 8
ENDMDL
MODEL 3
REMARK VINA RESULT:      -6.4      3.302      6.502
REMARK  Name = 
REMARK  8 active torsions:
REMARK  status: ('A' for Active; 'I' for Inactive)
REMARK    1  A    between atoms: O_1  and  C_2
REMARK    2  A    between atoms: C_4  and  C_6
REMARK    3  A    between atoms: C_6  and  O_7
REMARK    4  A    between atoms: O_7  and  P_8
REMARK    5  A    between atoms: P_8  and  O_9
REMARK    6  A    between atoms: P_8  and  O_10
REMARK    7  A    between atoms: C_13  and  N_18
REMARK    8  A    between atoms: C_15  and  O_17
REMARK                            x       y       z     vdW  Elec       q    Type
REMARK                         _______ _______ _______ _____ _____    ______ ____
ROOT
ATOM      1  C   UNL     1       8.025  -4.619  25.724  0.00  0.00    +0.178 C 
ATOM      2  C   UNL     1       9.337  -4.051  25.203  0.00  0.00    +0.197 C 
ATOM      3  C   UNL     1       8.912  -3.225  23.976  0.00  0.00    +0.273 C 
ATOM      4  O   UNL     1       7.476  -3.215  23.901  0.00  0.00    -0.344 OA
ATOM      5  C   UNL     1       6.988  -3.652  25.171  0.00  0.00    +0.178 C 
ENDROOT
BRANCH   3   6
ATOM      6  N   UNL     1       9.402  -1.847  24.042  0.00  0.00    -0.183 N 
ATOM      7  C   UNL     1       9.959  -1.308  22.896  0.00  0.00    +0.348 A 
ATOM      8  O   UNL     1      10.100  -1.928  21.843  0.00  0.00    -0.245 OA
ATOM      9  N   UNL     1      10.372  -0.005  22.979  0.00  0.00    -0.272 N 
ATOM     10  H   UNL     1      10.743   0.425  22.145  0.00  0.00    +0.174 HD
ATOM     11  C   UNL     1      10.336   0.736  24.119  0.00  0.00    +0.272 A 
ATOM     12  O   UNL     1      10.686   1.898  24.220  0.00  0.00    -0.266 OA
ATOM     13  C   UNL     1       9.829   0.005  25.323  0.00  0.00    +0.203 A 
ATOM     14  N   UNL     1       9.402  -1.212  25.275  0.00  0.00    -0.168 NA
ENDBRANCH   3   6
BRANCH   1  15
ATOM     15  O   UNL     1       8.008  -4.667  27.150  0.00  0.00    -0.386 OA
ATOM     16  H   UNL     1       8.653  -4.005  27.462  0.00  0.00    +0.210 HD
ENDBRANCH   1  15
BRANCH   2  17
ATOM     17  O   UNL     1      10.228  -5.120  24.851  0.00  0.00    -0.385 OA
ATOM     18  H   UNL     1      11.135  -4.762  24.888  0.00  0.00    +0.210 HD
ENDBRANCH   2  17
BRANCH   5  19
ATOM     19  C   UNL     1       5.628  -4.300  24.975  0.00  0.00    +0.206 C 
BRANCH  19  20
ATOM     20  O   UNL     1       5.780  -5.649  24.566  0.00  0.00    -0.284 OA
BRANCH  20  21
ATOM     21  P   UNL     1       4.919  -6.127  23.304  0.00  0.00    +0.472 P 
ATOM     22  O   UNL     1       3.982  -5.114  22.747  0.00  0.00    -0.228 OA
BRANCH  21  23
ATOM     23  O   UNL     1       4.207  -7.463  23.805  0.00  0.00    -0.303 OA
ATOM     24  H   UNL     1       4.721  -8.254  23.566  0.00  0.00    +0.222 HD
ENDBRANCH  21  23
BRANCH  21  25
ATOM     25  O   UNL     1       6.013  -6.645  22.267  0.00  0.00    -0.303 OA
ATOM     26  H   UNL     1       6.399  -7.493  22.550  0.00  0.00    +0.222 HD
ENDBRANCH  21  25
ENDBRANCH  20  21
ENDBRANCH  19  20
ENDBRANCH   5  19
TORSDOF 8
ENDMDL
MODEL 4
REMARK VINA RESULT:      -6.4      1.665      2.217
REMARK  Name = 
REMARK  8 active torsions:
REMARK  status: ('A' for Active; 'I' for Inactive)
REMARK    1  A    between atoms: O_1  and  C_2
REMARK    2  A    between atoms: C_4  and  C_6
REMARK    3  A    between atoms: C_6  and  O_7
REMARK    4  A    between atoms: O_7  and  P_8
REMARK    5  A    between atoms: P_8  and  O_9
REMARK    6  A    between atoms: P_8  and  O_10
REMARK    7  A    between atoms: C_13  and  N_18
REMARK    8  A    between atoms: C_15  and  O_17
REMARK                            x       y       z     vdW  Elec       q    Type
REMARK                         _______ _______ _______ _____ _____    ______ ____
ROOT
ATOM      1  C   UNL     1       6.808  -1.941  22.536  0.00  0.00    +0.178 C 
ATOM      2  C   UNL     1       6.020  -3.111  23.109  0.00  0.00    +0.197 C 
ATOM      3  C   UNL     1       7.091  -4.192  23.335  0.00  0.00    +0.273 C 
ATOM      4  O   UNL     1       8.382  -3.630  23.050  0.00  0.00    -0.344 OA
ATOM      5  C   UNL     1       8.225  -2.210  23.023  0.00  0.00    +0.178 C 
ENDROOT
BRANCH   3   6
ATOM      6  N   UNL     1       7.079  -4.703  24.708  0.00  0.00    -0.183 N 
ATOM      7  C   UNL     1       6.068  -5.579  25.059  0.00  0.00    +0.348 A 
ATOM      8  O   UNL     1       5.163  -5.924  24.300  0.00  0.00    -0.245 OA
ATOM      9  N   UNL     1       6.107  -6.068  26.338  0.00  0.00    -0.272 N 
ATOM     10  H   UNL     1       5.407  -6.742  26.605  0.00  0.00    +0.174 HD
ATOM     11  C   UNL     1       7.017  -5.683  27.274  0.00  0.00    +0.272 A 
ATOM     12  O   UNL     1       7.083  -6.108  28.413  0.00  0.00    -0.266 OA
ATOM     13  C   UNL     1       7.983  -4.636  26.813  0.00  0.00    +0.203 A 
ATOM     14  N   UNL     1       7.995  -4.177  25.607  0.00  0.00    -0.168 NA
ENDBRANCH   3   6
BRANCH   1  15
ATOM     15  O   UNL     1       6.305  -0.693  23.010  0.00  0.00    -0.386 OA
ATOM     16  H   UNL     1       7.021  -0.040  22.899  0.00  0.00    +0.210 HD
ENDBRANCH   1  15
BRANCH   2  17
ATOM     17  O   UNL     1       5.018  -3.532  22.172  0.00  0.00    -0.385 OA
ATOM     18  H   UNL     1       5.220  -4.456  21.931  0.00  0.00    +0.210 HD
ENDBRANCH   2  17
BRANCH   5  19
ATOM     19  C   UNL     1       9.281  -1.617  22.108  0.00  0.00    +0.206 C 
BRANCH  19  20
ATOM     20  O   UNL     1       8.927  -0.294  21.740  0.00  0.00    -0.284 OA
BRANCH  20  21
ATOM     21  P   UNL     1       9.577   0.895  22.593  0.00  0.00    +0.472 P 
ATOM     22  O   UNL     1      10.738   0.516  23.441  0.00  0.00    -0.228 OA
BRANCH  21  23
ATOM     23  O   UNL     1       8.348   1.501  23.409  0.00  0.00    -0.303 OA
ATOM     24  H   UNL     1       8.624   1.819  24.287  0.00  0.00    +0.222 HD
ENDBRANCH  21  23
BRANCH  21  25
ATOM     25  O   UNL     1       9.900   2.015  21.504  0.00  0.00    -0.303 OA
ATOM     26  H   UNL     1      10.399   2.755  21.892  0.00  0.00    +0.222 HD
ENDBRANCH  21  25
ENDBRANCH  20  21
ENDBRANCH  19  20
ENDBRANCH   5  19
TORSDOF 8
ENDMDL
MODEL 5
REMARK VINA RESULT:      -6.2      2.416      3.243
REMARK  Name = 
REMARK  8 active torsions:
REMARK  status: ('A' for Active; 'I' for Inactive)
REMARK    1  A    between atoms: O_1  and  C_2
REMARK    2  A    between atoms: C_4  and  C_6
REMARK    3  A    between atoms: C_6  and  O_7
REMARK    4  A    between atoms: O_7  and  P_8
REMARK    5  A    between atoms: P_8  and  O_9
REMARK    6  A    between atoms: P_8  and  O_10
REMARK    7  A    between atoms: C_13  and  N_18
REMARK    8  A    between atoms: C_15  and  O_17
REMARK                            x       y       z     vdW  Elec       q    Type
REMARK                         _______ _______ _______ _____ _____    ______ ____
ROOT
ATOM      1  C   UNL     1       9.462   0.257  22.393  0.00  0.00    +0.178 C 
ATOM      2  C   UNL     1       9.381  -1.209  21.997  0.00  0.00    +0.197 C 
ATOM      3  C   UNL     1       8.933  -1.910  23.290  0.00  0.00    +0.273 C 
ATOM      4  O   UNL     1       8.650  -0.909  24.283  0.00  0.00    -0.344 OA
ATOM      5  C   UNL     1       8.536   0.339  23.598  0.00  0.00    +0.178 C 
ENDROOT
BRANCH   3   6
ATOM      6  N   UNL     1       7.743  -2.738  23.087  0.00  0.00    -0.183 N 
ATOM      7  C   UNL     1       7.796  -4.055  23.508  0.00  0.00    +0.348 A 
ATOM      8  O   UNL     1       8.792  -4.577  24.006  0.00  0.00    -0.245 OA
ATOM      9  N   UNL     1       6.654  -4.792  23.338  0.00  0.00    -0.272 N 
ATOM     10  H   UNL     1       6.653  -5.742  23.676  0.00  0.00    +0.174 HD
ATOM     11  C   UNL     1       5.533  -4.330  22.722  0.00  0.00    +0.272 A 
ATOM     12  O   UNL     1       4.501  -4.957  22.566  0.00  0.00    -0.266 OA
ATOM     13  C   UNL     1       5.639  -2.932  22.197  0.00  0.00    +0.203 A 
ATOM     14  N   UNL     1       6.687  -2.198  22.367  0.00  0.00    -0.168 NA
ENDBRANCH   3   6
BRANCH   1  15
ATOM     15  O   UNL     1       9.036   1.108  21.330  0.00  0.00    -0.386 OA
ATOM     16  H   UNL     1       9.282   2.019  21.581  0.00  0.00    +0.210 HD
ENDBRANCH   1  15
BRANCH   2  17
ATOM     17  O   UNL     1      10.667  -1.668  21.553  0.00  0.00    -0.385 OA
ATOM     18  H   UNL     1      11.338  -1.193  22.078  0.00  0.00    +0.210 HD
ENDBRANCH   2  17
BRANCH   5  19
ATOM     19  C   UNL     1       8.914   1.458  24.553  0.00  0.00    +0.206 C 
BRANCH  19  20
ATOM     20  O   UNL     1       9.748   2.401  23.900  0.00  0.00    -0.284 OA
BRANCH  20  21
ATOM     21  P   UNL     1       9.197   3.899  23.783  0.00  0.00    +0.472 P 
ATOM     22  O   UNL     1       8.477   4.413  24.978  0.00  0.00    -0.228 OA
BRANCH  21  23
ATOM     23  O   UNL     1       8.318   3.884  22.453  0.00  0.00    -0.303 OA
ATOM     24  H   UNL     1       8.062   2.979  22.203  0.00  0.00    +0.222 HD
ENDBRANCH  21  23
BRANCH  21  25
ATOM     25  O   UNL     1      10.483   4.750  23.379  0.00  0.00    -0.303 OA
ATOM     26  H   UNL     1      10.577   5.542  23.938  0.00  0.00    +0.222 HD
ENDBRANCH  21  25
ENDBRANCH  20  21
ENDBRANCH  19  20
ENDBRANCH   5  19
TORSDOF 8
ENDMDL
MODEL 6
REMARK VINA RESULT:      -6.1      2.287      3.145
REMARK  Name = 
REMARK  8 active torsions:
REMARK  status: ('A' for Active; 'I' for Inactive)
REMARK    1  A    between atoms: O_1  and  C_2
REMARK    2  A    between atoms: C_4  and  C_6
REMARK    3  A    between atoms: C_6  and  O_7
REMARK    4  A    between atoms: O_7  and  P_8
REMARK    5  A    between atoms: P_8  and  O_9
REMARK    6  A    between atoms: P_8  and  O_10
REMARK    7  A    between atoms: C_13  and  N_18
REMARK    8  A    between atoms: C_15  and  O_17
REMARK                            x       y       z     vdW  Elec       q    Type
REMARK                         _______ _______ _______ _____ _____    ______ ____
ROOT
ATOM      1  C   UNL     1       6.577  -3.841  22.546  0.00  0.00    +0.178 C 
ATOM      2  C   UNL     1       6.687  -5.224  23.170  0.00  0.00    +0.197 C 
ATOM      3  C   UNL     1       7.367  -4.959  24.523  0.00  0.00    +0.273 C 
ATOM      4  O   UNL     1       7.497  -3.538  24.704  0.00  0.00    -0.344 OA
ATOM      5  C   UNL     1       6.632  -2.914  23.753  0.00  0.00    +0.178 C 
ENDROOT
BRANCH   3   6
ATOM      6  N   UNL     1       6.608  -5.520  25.643  0.00  0.00    -0.183 N 
ATOM      7  C   UNL     1       7.200  -5.505  26.893  0.00  0.00    +0.348 A 
ATOM      8  O   UNL     1       8.336  -5.084  27.110  0.00  0.00    -0.245 OA
ATOM      9  N   UNL     1       6.450  -6.002  27.925  0.00  0.00    -0.272 N 
ATOM     10  H   UNL     1       6.842  -5.963  28.853  0.00  0.00    +0.174 HD
ATOM     11  C   UNL     1       5.221  -6.566  27.772  0.00  0.00    +0.272 A 
ATOM     12  O   UNL     1       4.528  -7.006  28.670  0.00  0.00    -0.266 OA
ATOM     13  C   UNL     1       4.739  -6.640  26.357  0.00  0.00    +0.203 A 
ATOM     14  N   UNL     1       5.405  -6.153  25.364  0.00  0.00    -0.168 NA
ENDBRANCH   3   6
BRANCH   1  15
ATOM     15  O   UNL     1       5.362  -3.694  21.813  0.00  0.00    -0.386 OA
ATOM     16  H   UNL     1       5.157  -2.741  21.794  0.00  0.00    +0.210 HD
ENDBRANCH   1  15
BRANCH   2  17
ATOM     17  O   UNL     1       7.475  -6.079  22.328  0.00  0.00    -0.385 OA
ATOM     18  H   UNL     1       8.093  -6.562  22.909  0.00  0.00    +0.210 HD
ENDBRANCH   2  17
BRANCH   5  19
ATOM     19  C   UNL     1       7.187  -1.542  23.413  0.00  0.00    +0.206 C 
BRANCH  19  20
ATOM     20  O   UNL     1       8.188  -1.649  22.415  0.00  0.00    -0.284 OA
BRANCH  20  21
ATOM     21  P   UNL     1       9.704  -1.425  22.878  0.00  0.00    +0.472 P 
ATOM     22  O   UNL     1       9.957  -0.189  23.666  0.00  0.00    -0.228 OA
BRANCH  21  23
ATOM     23  O   UNL     1      10.539  -1.513  21.523  0.00  0.00    -0.303 OA
ATOM     24  H   UNL     1      10.747  -0.629  21.173  0.00  0.00    +0.222 HD
ENDBRANCH  21  23
BRANCH  21  25
ATOM     25  O   UNL     1      10.074  -2.775  23.642  0.00  0.00    -0.303 OA
ATOM     26  H   UNL     1      11.002  -3.027  23.489  0.00  0.00    +0.222 HD
ENDBRANCH  21  25
ENDBRANCH  20  21
ENDBRANCH  19  20
ENDBRANCH   5  19
TORSDOF 8
ENDMDL
MODEL 7
REMARK VINA RESULT:      -6.1      2.097      3.123
REMARK  Name = 
REMARK  8 active torsions:
REMARK  status: ('A' for Active; 'I' for Inactive)
REMARK    1  A    between atoms: O_1  and  C_2
REMARK    2  A    between atoms: C_4  and  C_6
REMARK    3  A    between atoms: C_6  and  O_7
REMARK    4  A    between atoms: O_7  and  P_8
REMARK    5  A    between atoms: P_8  and  O_9
REMARK    6  A    between atoms: P_8  and  O_10
REMARK    7  A    between atoms: C_13  and  N_18
REMARK    8  A    between atoms: C_15  and  O_17
REMARK                            x       y       z     vdW  Elec       q    Type
REMARK                         _______ _______ _______ _____ _____    ______ ____
ROOT
ATOM      1  C   UNL     1       9.199  -2.873  24.471  0.00  0.00    +0.178 C 
ATOM      2  C   UNL     1       9.021  -4.358  24.753  0.00  0.00    +0.197 C 
ATOM      3  C   UNL     1       8.212  -4.384  26.061  0.00  0.00    +0.273 C 
ATOM      4  O   UNL     1       7.847  -3.037  26.406  0.00  0.00    -0.344 OA
ATOM      5  C   UNL     1       8.048  -2.237  25.239  0.00  0.00    +0.178 C 
ENDROOT
BRANCH   3   6
ATOM      6  N   UNL     1       7.000  -5.199  25.946  0.00  0.00    -0.183 N 
ATOM      7  C   UNL     1       6.598  -5.913  27.059  0.00  0.00    +0.348 A 
ATOM      8  O   UNL     1       7.216  -5.934  28.123  0.00  0.00    -0.245 OA
ATOM      9  N   UNL     1       5.441  -6.634  26.931  0.00  0.00    -0.272 N 
ATOM     10  H   UNL     1       5.102  -7.129  27.741  0.00  0.00    +0.174 HD
ATOM     11  C   UNL     1       4.734  -6.742  25.773  0.00  0.00    +0.272 A 
ATOM     12  O   UNL     1       3.697  -7.365  25.632  0.00  0.00    -0.266 OA
ATOM     13  C   UNL     1       5.336  -6.026  24.604  0.00  0.00    +0.203 A 
ATOM     14  N   UNL     1       6.407  -5.312  24.697  0.00  0.00    -0.168 NA
ENDBRANCH   3   6
BRANCH   1  15
ATOM     15  O   UNL     1       9.130  -2.596  23.074  0.00  0.00    -0.386 OA
ATOM     16  H   UNL     1       9.920  -2.069  22.851  0.00  0.00    +0.210 HD
ENDBRANCH   1  15
BRANCH   2  17
ATOM     17  O   UNL     1      10.303  -4.985  24.898  0.00  0.00    -0.385 OA
ATOM     18  H   UNL     1      10.501  -5.016  25.853  0.00  0.00    +0.210 HD
ENDBRANCH   2  17
BRANCH   5  19
ATOM     19  C   UNL     1       8.346  -0.812  25.667  0.00  0.00    +0.206 C 
BRANCH  19  20
ATOM     20  O   UNL     1       8.345   0.051  24.542  0.00  0.00    -0.284 OA
BRANCH  20  21
ATOM     21  P   UNL     1       9.601   1.030  24.375  0.00  0.00    +0.472 P 
ATOM     22  O   UNL     1      10.138   1.153  22.994  0.00  0.00    -0.228 OA
BRANCH  21  23
ATOM     23  O   UNL     1      10.658   0.484  25.437  0.00  0.00    -0.303 OA
ATOM     24  H   UNL     1      11.541   0.867  25.291  0.00  0.00    +0.222 HD
ENDBRANCH  21  23
BRANCH  21  25
ATOM     25  O   UNL     1       9.101   2.405  25.008  0.00  0.00    -0.303 OA
ATOM     26  H   UNL     1       9.760   3.112  24.889  0.00  0.00    +0.222 HD
ENDBRANCH  21  25
ENDBRANCH  20  21
ENDBRANCH  19  20
ENDBRANCH   5  19
TORSDOF 8
ENDMDL
MODEL 8
REMARK VINA RESULT:      -6.0      3.411      6.973
REMARK  Name = 
REMARK  8 active torsions:
REMARK  status: ('A' for Active; 'I' for Inactive)
REMARK    1  A    between atoms: O_1  and  C_2
REMARK    2  A    between atoms: C_4  and  C_6
REMARK    3  A    between atoms: C_6  and  O_7
REMARK    4  A    between atoms: O_7  and  P_8
REMARK    5  A    between atoms: P_8  and  O_9
REMARK    6  A    between atoms: P_8  and  O_10
REMARK    7  A    between atoms: C_13  and  N_18
REMARK    8  A    between atoms: C_15  and  O_17
REMARK                            x       y       z     vdW  Elec       q    Type
REMARK                         _______ _______ _______ _____ _____    ______ ____
ROOT
ATOM      1  C   UNL     1       8.624  -2.970  24.154  0.00  0.00    +0.178 C 
ATOM      2  C   UNL     1       8.869  -1.995  23.011  0.00  0.00    +0.197 C 
ATOM      3  C   UNL     1       8.127  -0.723  23.454  0.00  0.00    +0.273 C 
ATOM      4  O   UNL     1       7.631  -0.919  24.789  0.00  0.00    -0.344 OA
ATOM      5  C   UNL     1       8.316  -2.051  25.329  0.00  0.00    +0.178 C 
ENDROOT
BRANCH   3   6
ATOM      6  N   UNL     1       8.992   0.458  23.429  0.00  0.00    -0.183 N 
ATOM      7  C   UNL     1       8.629   1.502  22.596  0.00  0.00    +0.348 A 
ATOM      8  O   UNL     1       7.649   1.480  21.853  0.00  0.00    -0.245 OA
ATOM      9  N   UNL     1       9.437   2.607  22.624  0.00  0.00    -0.272 N 
ATOM     10  H   UNL     1       9.171   3.399  22.059  0.00  0.00    +0.174 HD
ATOM     11  C   UNL     1      10.586   2.694  23.347  0.00  0.00    +0.272 A 
ATOM     12  O   UNL     1      11.318   3.666  23.400  0.00  0.00    -0.266 OA
ATOM     13  C   UNL     1      10.940   1.456  24.110  0.00  0.00    +0.203 A 
ATOM     14  N   UNL     1      10.186   0.408  24.132  0.00  0.00    -0.168 NA
ENDBRANCH   3   6
BRANCH   1  15
ATOM     15  O   UNL     1       9.769  -3.786  24.397  0.00  0.00    -0.386 OA
ATOM     16  H   UNL     1      10.551  -3.211  24.301  0.00  0.00    +0.210 HD
ENDBRANCH   1  15
BRANCH   2  17
ATOM     17  O   UNL     1       8.339  -2.531  21.790  0.00  0.00    -0.385 OA
ATOM     18  H   UNL     1       7.505  -2.059  21.607  0.00  0.00    +0.210 HD
ENDBRANCH   2  17
BRANCH   5  19
ATOM     19  C   UNL     1       7.430  -2.710  26.371  0.00  0.00    +0.206 C 
BRANCH  19  20
ATOM     20  O   UNL     1       6.895  -3.923  25.866  0.00  0.00    -0.284 OA
BRANCH  20  21
ATOM     21  P   UNL     1       7.061  -5.226  26.782  0.00  0.00    +0.472 P 
ATOM     22  O   UNL     1       6.818  -5.023  28.235  0.00  0.00    -0.228 OA
BRANCH  21  23
ATOM     23  O   UNL     1       8.524  -5.757  26.437  0.00  0.00    -0.303 OA
ATOM     24  H   UNL     1       8.528  -6.291  25.623  0.00  0.00    +0.222 HD
ENDBRANCH  21  23
BRANCH  21  25
ATOM     25  O   UNL     1       6.097  -6.297  26.101  0.00  0.00    -0.303 OA
ATOM     26  H   UNL     1       5.510  -6.715  26.756  0.00  0.00    +0.222 HD
ENDBRANCH  21  25
ENDBRANCH  20  21
ENDBRANCH  19  20
ENDBRANCH   5  19
TORSDOF 8
ENDMDL
MODEL 9
REMARK VINA RESULT:      -6.0      1.381      2.055
REMARK  Name = 
REMARK  8 active torsions:
REMARK  status: ('A' for Active; 'I' for Inactive)
REMARK    1  A    between atoms: O_1  and  C_2
REMARK    2  A    between atoms: C_4  and  C_6
REMARK    3  A    between atoms: C_6  and  O_7
REMARK    4  A    between atoms: O_7  and  P_8
REMARK    5  A    between atoms: P_8  and  O_9
REMARK    6  A    between atoms: P_8  and  O_10
REMARK    7  A    between atoms: C_13  and  N_18
REMARK    8  A    between atoms: C_15  and  O_17
REMARK                            x       y       z     vdW  Elec       q    Type
REMARK                         _______ _______ _______ _____ _____    ______ ____
ROOT
ATOM      1  C   UNL     1       6.709  -3.690  21.836  0.00  0.00    +0.178 C 
ATOM      2  C   UNL     1       6.738  -5.009  22.594  0.00  0.00    +0.197 C 
ATOM      3  C   UNL     1       7.935  -4.853  23.548  0.00  0.00    +0.273 C 
ATOM      4  O   UNL     1       8.442  -3.512  23.436  0.00  0.00    -0.344 OA
ATOM      5  C   UNL     1       7.440  -2.739  22.774  0.00  0.00    +0.178 C 
ENDROOT
BRANCH   3   6
ATOM      6  N   UNL     1       7.569  -5.116  24.941  0.00  0.00    -0.183 N 
ATOM      7  C   UNL     1       8.591  -5.377  25.836  0.00  0.00    +0.348 A 
ATOM      8  O   UNL     1       9.779  -5.437  25.523  0.00  0.00    -0.245 OA
ATOM      9  N   UNL     1       8.219  -5.581  27.138  0.00  0.00    -0.272 N 
ATOM     10  H   UNL     1       8.948  -5.730  27.818  0.00  0.00    +0.174 HD
ATOM     11  C   UNL     1       6.927  -5.618  27.565  0.00  0.00    +0.272 A 
ATOM     12  O   UNL     1       6.567  -5.786  28.716  0.00  0.00    -0.266 OA
ATOM     13  C   UNL     1       5.906  -5.447  26.484  0.00  0.00    +0.203 A 
ATOM     14  N   UNL     1       6.221  -5.221  25.253  0.00  0.00    -0.168 NA
ENDBRANCH   3   6
BRANCH   1  15
ATOM     15  O   UNL     1       5.372  -3.266  21.578  0.00  0.00    -0.386 OA
ATOM     16  H   UNL     1       5.272  -3.220  20.609  0.00  0.00    +0.210 HD
ENDBRANCH   1  15
BRANCH   2  17
ATOM     17  O   UNL     1       6.920  -6.097  21.675  0.00  0.00    -0.385 OA
ATOM     18  H   UNL     1       7.307  -5.723  20.861  0.00  0.00    +0.210 HD
ENDBRANCH   2  17
BRANCH   5  19
ATOM     19  C   UNL     1       8.112  -1.592  22.039  0.00  0.00    +0.206 C 
BRANCH  19  20
ATOM     20  O   UNL     1       8.671  -0.675  22.965  0.00  0.00    -0.284 OA
BRANCH  20  21
ATOM     21  P   UNL     1       8.501   0.883  22.636  0.00  0.00    +0.472 P 
ATOM     22  O   UNL     1       9.079   1.816  23.640  0.00  0.00    -0.228 OA
BRANCH  21  23
ATOM     23  O   UNL     1       6.933   1.061  22.412  0.00  0.00    -0.303 OA
ATOM     24  H   UNL     1       6.744   1.619  21.637  0.00  0.00    +0.222 HD
ENDBRANCH  21  23
BRANCH  21  25
ATOM     25  O   UNL     1       9.115   1.035  21.173  0.00  0.00    -0.303 OA
ATOM     26  H   UNL     1       9.059   0.200  20.675  0.00  0.00    +0.222 HD
ENDBRANCH  21  25
ENDBRANCH  20  21
ENDBRANCH  19  20
ENDBRANCH   5  19
TORSDOF 8
ENDMDL
