MODEL 1
REMARK VINA RESULT:      -7.3      0.000      0.000
REMARK  Name = 
REMARK  8 active torsions:
REMARK  status: ('A' for Active; 'I' for Inactive)
REMARK    1  A    between atoms: C_1  and  O_2
REMARK    2  A    between atoms: O_2  and  C_3
REMARK    3  A    between atoms: C_8  and  C_9
REMARK    4  A    between atoms: C_13  and  N_14
REMARK    5  A    between atoms: C_15  and  C_17
REMARK    6  A    between atoms: C_17  and  C_18
REMARK    7  A    between atoms: C_20  and  C_21
REMARK    8  A    between atoms: C_20  and  O_22
REMARK                            x       y       z     vdW  Elec       q    Type
REMARK                         _______ _______ _______ _____ _____    ______ ____
ROOT
ATOM      1  C   UNL     1       9.792   2.102  23.408  0.00  0.00    -0.013 A 
ATOM      2  C   UNL     1       9.644   1.471  22.152  0.00  0.00    +0.010 A 
ATOM      3  C   UNL     1       9.322   0.111  22.022  0.00  0.00    +0.025 A 
ATOM      4  C   UNL     1       9.066  -0.657  23.155  0.00  0.00    +0.052 A 
ATOM      5  C   UNL     1       9.098  -0.033  24.406  0.00  0.00    +0.063 A 
ATOM      6 CL   UNL     1       8.773  -0.939  25.845  0.00  0.00    -0.082 Cl
ATOM      7  C   UNL     1       9.492   1.309  24.531  0.00  0.00    +0.030 A 
ENDROOT
BRANCH   1   9
ATOM      8  C   UNL     1       9.517   4.657  23.791  0.00  0.00    +0.128 A 
ATOM      9  C   UNL     1      10.306   3.511  23.508  0.00  0.00    +0.024 A 
ATOM     10  C   UNL     1      11.697   3.735  23.345  0.00  0.00    +0.012 A 
ATOM     11  C   UNL     1      12.275   5.006  23.411  0.00  0.00    +0.001 A 
ATOM     12  C   UNL     1      11.479   6.109  23.663  0.00  0.00    +0.004 A 
ATOM     13  C   UNL     1      10.111   5.935  23.853  0.00  0.00    +0.046 A 
BRANCH   8  15
ATOM     14  C   UNL     1       7.348   4.847  22.827  0.00  0.00    +0.277 C 
ATOM     15  O   UNL     1       8.160   4.498  23.950  0.00  0.00    -0.495 OA
ENDBRANCH   8  15
ENDBRANCH   1   9
BRANCH   4  16
ATOM     16  N   UNL     1       8.770  -2.042  23.052  0.00  0.00    -0.280 N 
ATOM     17  H   UNL     1       9.532  -2.613  22.698  0.00  0.00    +0.155 HD
ATOM     18  C   UNL     1       7.474  -2.510  22.909  0.00  0.00    +0.262 C 
ATOM     19  O   UNL     1       6.481  -1.778  22.864  0.00  0.00    -0.269 OA
BRANCH  18  20
ATOM     20  C   UNL     1       7.308  -3.996  22.727  0.00  0.00    +0.150 C 
ATOM     21  C   UNL     1       6.426  -4.465  21.807  0.00  0.00    +0.113 C 
ATOM     22  C   UNL     1       6.126  -5.916  21.550  0.00  0.00    +0.087 C 
BRANCH  21  23
ATOM     23  O   UNL     1       5.664  -3.639  20.989  0.00  0.00    -0.510 OA
ATOM     24  H   UNL     1       6.254  -3.016  20.501  0.00  0.00    +0.292 HD
ENDBRANCH  21  23
BRANCH  20  25
ATOM     25  C   UNL     1       8.091  -4.878  23.527  0.00  0.00    +0.108 C 
ATOM     26  N   UNL     1       8.753  -5.561  24.184  0.00  0.00    -0.191 NA
ENDBRANCH  20  25
ENDBRANCH  18  20
ENDBRANCH   4  16
TORSDOF 6
ENDMDL
MODEL 2
REMARK VINA RESULT:      -7.2      1.382      1.716
REMARK  Name = 
REMARK  8 active torsions:
REMARK  status: ('A' for Active; 'I' for Inactive)
REMARK    1  A    between atoms: C_1  and  O_2
REMARK    2  A    between atoms: O_2  and  C_3
REMARK    3  A    between atoms: C_8  and  C_9
REMARK    4  A    between atoms: C_13  and  N_14
REMARK    5  A    between atoms: C_15  and  C_17
REMARK    6  A    between atoms: C_17  and  C_18
REMARK    7  A    between atoms: C_20  and  C_21
REMARK    8  A    between atoms: C_20  and  O_22
REMARK                            x       y       z     vdW  Elec       q    Type
REMARK                         _______ _______ _______ _____ _____    ______ ____
ROOT
ATOM      1  C   UNL     1      10.367   2.015  23.500  0.00  0.00    -0.013 A 
ATOM      2  C   UNL     1      10.571   1.167  24.613  0.00  0.00    +0.010 A 
ATOM      3  C   UNL     1      10.273  -0.204  24.583  0.00  0.00    +0.025 A 
ATOM      4  C   UNL     1       9.823  -0.795  23.407  0.00  0.00    +0.052 A 
ATOM      5  C   UNL     1       9.715  -0.002  22.259  0.00  0.00    +0.063 A 
ATOM      6 CL   UNL     1       9.173  -0.691  20.766  0.00  0.00    -0.082 Cl
ATOM      7  C   UNL     1       9.945   1.382  22.317  0.00  0.00    +0.030 A 
ENDROOT
BRANCH   1   9
ATOM      8  C   UNL     1       9.514   4.415  24.012  0.00  0.00    +0.128 A 
ATOM      9  C   UNL     1      10.532   3.504  23.624  0.00  0.00    +0.024 A 
ATOM     10  C   UNL     1      11.809   4.066  23.373  0.00  0.00    +0.012 A 
ATOM     11  C   UNL     1      12.066   5.437  23.454  0.00  0.00    +0.001 A 
ATOM     12  C   UNL     1      11.049   6.305  23.810  0.00  0.00    +0.004 A 
ATOM     13  C   UNL     1       9.784   5.797  24.088  0.00  0.00    +0.046 A 
BRANCH   8  15
ATOM     14  C   UNL     1       7.869   3.833  25.632  0.00  0.00    +0.277 C 
ATOM     15  O   UNL     1       8.252   3.924  24.259  0.00  0.00    -0.495 OA
ENDBRANCH   8  15
ENDBRANCH   1   9
BRANCH   4  16
ATOM     16  N   UNL     1       9.484  -2.174  23.359  0.00  0.00    -0.280 N 
ATOM     17  H   UNL     1      10.101  -2.743  22.787  0.00  0.00    +0.155 HD
ATOM     18  C   UNL     1       8.192  -2.623  23.582  0.00  0.00    +0.262 C 
ATOM     19  O   UNL     1       7.242  -1.879  23.842  0.00  0.00    -0.269 OA
BRANCH  18  20
ATOM     20  C   UNL     1       7.953  -4.101  23.419  0.00  0.00    +0.150 C 
ATOM     21  C   UNL     1       7.074  -4.538  22.480  0.00  0.00    +0.113 C 
ATOM     22  C   UNL     1       6.705  -5.976  22.238  0.00  0.00    +0.087 C 
BRANCH  21  23
ATOM     23  O   UNL     1       6.381  -3.688  21.627  0.00  0.00    -0.510 OA
ATOM     24  H   UNL     1       5.647  -4.181  21.188  0.00  0.00    +0.292 HD
ENDBRANCH  21  23
BRANCH  20  25
ATOM     25  C   UNL     1       8.664  -5.009  24.256  0.00  0.00    +0.108 C 
ATOM     26  N   UNL     1       9.257  -5.712  24.956  0.00  0.00    -0.191 NA
ENDBRANCH  20  25
ENDBRANCH  18  20
ENDBRANCH   4  16
TORSDOF 6
ENDMDL
MODEL 3
REMARK VINA RESULT:      -7.0      1.534      2.416
REMARK  Name = 
REMARK  8 active torsions:
REMARK  status: ('A' for Active; 'I' for Inactive)
REMARK    1  A    between atoms: C_1  and  O_2
REMARK    2  A    between atoms: O_2  and  C_3
REMARK    3  A    between atoms: C_8  and  C_9
REMARK    4  A    between atoms: C_13  and  N_14
REMARK    5  A    between atoms: C_15  and  C_17
REMARK    6  A    between atoms: C_17  and  C_18
REMARK    7  A    between atoms: C_20  and  C_21
REMARK    8  A    between atoms: C_20  and  O_22
REMARK                            x       y       z     vdW  Elec       q    Type
REMARK                         _______ _______ _______ _____ _____    ______ ____
ROOT
ATOM      1  C   UNL     1       9.624   2.325  23.713  0.00  0.00    -0.013 A 
ATOM      2  C   UNL     1       9.624   1.525  24.880  0.00  0.00    +0.010 A 
ATOM      3  C   UNL     1       9.468   0.131  24.840  0.00  0.00    +0.025 A 
ATOM      4  C   UNL     1       9.376  -0.526  23.617  0.00  0.00    +0.052 A 
ATOM      5  C   UNL     1       9.482   0.227  22.443  0.00  0.00    +0.063 A 
ATOM      6 CL   UNL     1       9.388  -0.543  20.896  0.00  0.00    -0.082 Cl
ATOM      7  C   UNL     1       9.565   1.628  22.493  0.00  0.00    +0.030 A 
ENDROOT
BRANCH   1   9
ATOM      8  C   UNL     1      10.753   4.664  23.649  0.00  0.00    +0.128 A 
ATOM      9  C   UNL     1       9.618   3.825  23.807  0.00  0.00    +0.024 A 
ATOM     10  C   UNL     1       8.383   4.483  24.037  0.00  0.00    +0.012 A 
ATOM     11  C   UNL     1       8.269   5.871  24.148  0.00  0.00    +0.001 A 
ATOM     12  C   UNL     1       9.396   6.663  24.015  0.00  0.00    +0.004 A 
ATOM     13  C   UNL     1      10.627   6.064  23.765  0.00  0.00    +0.046 A 
BRANCH   8  15
ATOM     14  C   UNL     1      13.051   4.963  23.105  0.00  0.00    +0.277 C 
ATOM     15  O   UNL     1      11.978   4.078  23.432  0.00  0.00    -0.495 OA
ENDBRANCH   8  15
ENDBRANCH   1   9
BRANCH   4  16
ATOM     16  N   UNL     1       9.185  -1.932  23.550  0.00  0.00    -0.280 N 
ATOM     17  H   UNL     1       9.958  -2.446  23.137  0.00  0.00    +0.155 HD
ATOM     18  C   UNL     1       7.923  -2.504  23.520  0.00  0.00    +0.262 C 
ATOM     19  O   UNL     1       6.875  -1.854  23.554  0.00  0.00    -0.269 OA
BRANCH  18  20
ATOM     20  C   UNL     1       7.863  -4.001  23.364  0.00  0.00    +0.150 C 
ATOM     21  C   UNL     1       7.059  -4.545  22.414  0.00  0.00    +0.113 C 
ATOM     22  C   UNL     1       6.867  -6.017  22.177  0.00  0.00    +0.087 C 
BRANCH  21  23
ATOM     23  O   UNL     1       6.286  -3.787  21.542  0.00  0.00    -0.510 OA
ATOM     24  H   UNL     1       6.837  -3.491  20.779  0.00  0.00    +0.292 HD
ENDBRANCH  21  23
BRANCH  20  25
ATOM     25  C   UNL     1       8.661  -4.814  24.221  0.00  0.00    +0.108 C 
ATOM     26  N   UNL     1       9.336  -5.441  24.919  0.00  0.00    -0.191 NA
ENDBRANCH  20  25
ENDBRANCH  18  20
ENDBRANCH   4  16
TORSDOF 6
ENDMDL
MODEL 4
REMARK VINA RESULT:      -6.8      2.423      8.360
REMARK  Name = 
REMARK  8 active torsions:
REMARK  status: ('A' for Active; 'I' for Inactive)
REMARK    1  A    between atoms: C_1  and  O_2
REMARK    2  A    between atoms: O_2  and  C_3
REMARK    3  A    between atoms: C_8  and  C_9
REMARK    4  A    between atoms: C_13  and  N_14
REMARK    5  A    between atoms: C_15  and  C_17
REMARK    6  A    between atoms: C_17  and  C_18
REMARK    7  A    between atoms: C_20  and  C_21
REMARK    8  A    between atoms: C_20  and  O_22
REMARK                            x       y       z     vdW  Elec       q    Type
REMARK                         _______ _______ _______ _____ _____    ______ ____
ROOT
ATOM      1  C   UNL     1       7.998  -2.095  22.710  0.00  0.00    -0.013 A 
ATOM      2  C   UNL     1       8.982  -1.528  21.868  0.00  0.00    +0.010 A 
ATOM      3  C   UNL     1       9.349  -0.175  21.939  0.00  0.00    +0.025 A 
ATOM      4  C   UNL     1       8.789   0.650  22.910  0.00  0.00    +0.052 A 
ATOM      5  C   UNL     1       7.893   0.091  23.827  0.00  0.00    +0.063 A 
ATOM      6 CL   UNL     1       7.180   1.070  25.063  0.00  0.00    -0.082 Cl
ATOM      7  C   UNL     1       7.478  -1.245  23.703  0.00  0.00    +0.030 A 
ENDROOT
BRANCH   1   9
ATOM      8  C   UNL     1       7.971  -4.650  23.180  0.00  0.00    +0.128 A 
ATOM      9  C   UNL     1       7.509  -3.499  22.488  0.00  0.00    +0.024 A 
ATOM     10  C   UNL     1       6.477  -3.713  21.539  0.00  0.00    +0.012 A 
ATOM     11  C   UNL     1       5.958  -4.978  21.253  0.00  0.00    +0.001 A 
ATOM     12  C   UNL     1       6.444  -6.086  21.924  0.00  0.00    +0.004 A 
ATOM     13  C   UNL     1       7.441  -5.922  22.881  0.00  0.00    +0.046 A 
BRANCH   8  15
ATOM     14  C   UNL     1       8.697  -4.973  25.424  0.00  0.00    +0.277 C 
ATOM     15  O   UNL     1       8.978  -4.501  24.106  0.00  0.00    -0.495 OA
ENDBRANCH   8  15
ENDBRANCH   1   9
BRANCH   4  16
ATOM     16  N   UNL     1       9.119   2.030  22.981  0.00  0.00    -0.280 N 
ATOM     17  H   UNL     1       8.751   2.594  22.221  0.00  0.00    +0.155 HD
ATOM     18  C   UNL     1      10.241   2.485  23.656  0.00  0.00    +0.262 C 
ATOM     19  O   UNL     1      11.032   1.746  24.248  0.00  0.00    -0.269 OA
BRANCH  18  20
ATOM     20  C   UNL     1      10.520   3.963  23.583  0.00  0.00    +0.150 C 
ATOM     21  C   UNL     1       9.509   4.848  23.785  0.00  0.00    +0.113 C 
ATOM     22  C   UNL     1       9.632   6.344  23.698  0.00  0.00    +0.087 C 
BRANCH  21  23
ATOM     23  O   UNL     1       8.206   4.464  24.081  0.00  0.00    -0.510 OA
ATOM     24  H   UNL     1       7.583   5.195  23.854  0.00  0.00    +0.292 HD
ENDBRANCH  21  23
BRANCH  20  25
ATOM     25  C   UNL     1      11.849   4.399  23.309  0.00  0.00    +0.108 C 
ATOM     26  N   UNL     1      12.919   4.787  23.110  0.00  0.00    -0.191 NA
ENDBRANCH  20  25
ENDBRANCH  18  20
ENDBRANCH   4  16
TORSDOF 6
ENDMDL
MODEL 5
REMARK VINA RESULT:      -6.6      1.354      1.773
REMARK  Name = 
REMARK  8 active torsions:
REMARK  status: ('A' for Active; 'I' for Inactive)
REMARK    1  A    between atoms: C_1  and  O_2
REMARK    2  A    between atoms: O_2  and  C_3
REMARK    3  A    between atoms: C_8  and  C_9
REMARK    4  A    between atoms: C_13  and  N_14
REMARK    5  A    between atoms: C_15  and  C_17
REMARK    6  A    between atoms: C_17  and  C_18
REMARK    7  A    between atoms: C_20  and  C_21
REMARK    8  A    between atoms: C_20  and  O_22
REMARK                            x       y       z     vdW  Elec       q    Type
REMARK                         _______ _______ _______ _____ _____    ______ ____
ROOT
ATOM      1  C   UNL     1      10.089   2.412  23.429  0.00  0.00    -0.013 A 
ATOM      2  C   UNL     1       9.842   1.864  22.148  0.00  0.00    +0.010 A 
ATOM      3  C   UNL     1       9.461   0.526  21.960  0.00  0.00    +0.025 A 
ATOM      4  C   UNL     1       9.243  -0.299  23.059  0.00  0.00    +0.052 A 
ATOM      5  C   UNL     1       9.373   0.246  24.341  0.00  0.00    +0.063 A 
ATOM      6 CL   UNL     1       9.099  -0.733  25.742  0.00  0.00    -0.082 Cl
ATOM      7  C   UNL     1       9.825   1.564  24.519  0.00  0.00    +0.030 A 
ENDROOT
BRANCH   1   9
ATOM      8  C   UNL     1       9.943   4.942  24.001  0.00  0.00    +0.128 A 
ATOM      9  C   UNL     1      10.663   3.793  23.578  0.00  0.00    +0.024 A 
ATOM     10  C   UNL     1      12.043   3.984  23.315  0.00  0.00    +0.012 A 
ATOM     11  C   UNL     1      12.672   5.227  23.417  0.00  0.00    +0.001 A 
ATOM     12  C   UNL     1      11.941   6.335  23.807  0.00  0.00    +0.004 A 
ATOM     13  C   UNL     1      10.588   6.192  24.099  0.00  0.00    +0.046 A 
BRANCH   8  15
ATOM     14  C   UNL     1       8.220   4.814  25.640  0.00  0.00    +0.277 C 
ATOM     15  O   UNL     1       8.598   4.816  24.262  0.00  0.00    -0.495 OA
ENDBRANCH   8  15
ENDBRANCH   1   9
BRANCH   4  16
ATOM     16  N   UNL     1       8.888  -1.664  22.895  0.00  0.00    -0.280 N 
ATOM     17  H   UNL     1       9.577  -2.225  22.402  0.00  0.00    +0.155 HD
ATOM     18  C   UNL     1       7.568  -2.087  22.889  0.00  0.00    +0.262 C 
ATOM     19  O   UNL     1       6.605  -1.330  23.029  0.00  0.00    -0.269 OA
BRANCH  18  20
ATOM     20  C   UNL     1       7.328  -3.550  22.621  0.00  0.00    +0.150 C 
ATOM     21  C   UNL     1       7.925  -4.483  23.407  0.00  0.00    +0.113 C 
ATOM     22  C   UNL     1       7.812  -5.971  23.230  0.00  0.00    +0.087 C 
BRANCH  21  23
ATOM     23  O   UNL     1       8.747  -4.163  24.483  0.00  0.00    -0.510 OA
ATOM     24  H   UNL     1       8.321  -3.462  25.031  0.00  0.00    +0.292 HD
ENDBRANCH  21  23
BRANCH  20  25
ATOM     25  C   UNL     1       6.470  -3.920  21.545  0.00  0.00    +0.108 C 
ATOM     26  N   UNL     1       5.752  -4.246  20.699  0.00  0.00    -0.191 NA
ENDBRANCH  20  25
ENDBRANCH  18  20
ENDBRANCH   4  16
TORSDOF 6
ENDMDL
MODEL 6
REMARK VINA RESULT:      -6.4      2.490      8.374
REMARK  Name = 
REMARK  8 active torsions:
REMARK  status: ('A' for Active; 'I' for Inactive)
REMARK    1  A    between atoms: C_1  and  O_2
REMARK    2  A    between atoms: O_2  and  C_3
REMARK    3  A    between atoms: C_8  and  C_9
REMARK    4  A    between atoms: C_13  and  N_14
REMARK    5  A    between atoms: C_15  and  C_17
REMARK    6  A    between atoms: C_17  and  C_18
REMARK    7  A    between atoms: C_20  and  C_21
REMARK    8  A    between atoms: C_20  and  O_22
REMARK                            x       y       z     vdW  Elec       q    Type
REMARK                         _______ _______ _______ _____ _____    ______ ____
ROOT
ATOM      1  C   UNL     1       8.296  -1.985  23.328  0.00  0.00    -0.013 A 
ATOM      2  C   UNL     1       9.338  -1.387  22.582  0.00  0.00    +0.010 A 
ATOM      3  C   UNL     1       9.820  -0.098  22.857  0.00  0.00    +0.025 A 
ATOM      4  C   UNL     1       9.322   0.617  23.942  0.00  0.00    +0.052 A 
ATOM      5  C   UNL     1       8.368   0.007  24.763  0.00  0.00    +0.063 A 
ATOM      6 CL   UNL     1       7.726   0.847  26.134  0.00  0.00    -0.082 Cl
ATOM      7  C   UNL     1       7.839  -1.253  24.438  0.00  0.00    +0.030 A 
ENDROOT
BRANCH   1   9
ATOM      8  C   UNL     1       8.070  -4.573  23.371  0.00  0.00    +0.128 A 
ATOM      9  C   UNL     1       7.689  -3.290  22.894  0.00  0.00    +0.024 A 
ATOM     10  C   UNL     1       6.623  -3.263  21.959  0.00  0.00    +0.012 A 
ATOM     11  C   UNL     1       5.996  -4.419  21.487  0.00  0.00    +0.001 A 
ATOM     12  C   UNL     1       6.404  -5.657  21.950  0.00  0.00    +0.004 A 
ATOM     13  C   UNL     1       7.431  -5.733  22.886  0.00  0.00    +0.046 A 
BRANCH   8  15
ATOM     14  C   UNL     1       8.780  -5.199  25.555  0.00  0.00    +0.277 C 
ATOM     15  O   UNL     1       9.105  -4.658  24.274  0.00  0.00    -0.495 OA
ENDBRANCH   8  15
ENDBRANCH   1   9
BRANCH   4  16
ATOM     16  N   UNL     1       9.770   1.935  24.223  0.00  0.00    -0.280 N 
ATOM     17  H   UNL     1      10.289   2.031  25.091  0.00  0.00    +0.155 HD
ATOM     18  C   UNL     1       9.137   3.055  23.707  0.00  0.00    +0.262 C 
ATOM     19  O   UNL     1       8.150   3.004  22.969  0.00  0.00    -0.269 OA
BRANCH  18  20
ATOM     20  C   UNL     1       9.663   4.394  24.151  0.00  0.00    +0.150 C 
ATOM     21  C   UNL     1      10.867   4.826  23.696  0.00  0.00    +0.113 C 
ATOM     22  C   UNL     1      11.533   6.116  24.088  0.00  0.00    +0.087 C 
BRANCH  21  23
ATOM     23  O   UNL     1      11.653   4.102  22.807  0.00  0.00    -0.510 OA
ATOM     24  H   UNL     1      11.987   3.284  23.247  0.00  0.00    +0.292 HD
ENDBRANCH  21  23
BRANCH  20  25
ATOM     25  C   UNL     1       8.875   5.181  25.041  0.00  0.00    +0.108 C 
ATOM     26  N   UNL     1       8.205   5.821  25.733  0.00  0.00    -0.191 NA
ENDBRANCH  20  25
ENDBRANCH  18  20
ENDBRANCH   4  16
TORSDOF 6
ENDMDL
MODEL 7
REMARK VINA RESULT:      -6.4      3.084      8.423
REMARK  Name = 
REMARK  8 active torsions:
REMARK  status: ('A' for Active; 'I' for Inactive)
REMARK    1  A    between atoms: C_1  and  O_2
REMARK    2  A    between atoms: O_2  and  C_3
REMARK    3  A    between atoms: C_8  and  C_9
REMARK    4  A    between atoms: C_13  and  N_14
REMARK    5  A    between atoms: C_15  and  C_17
REMARK    6  A    between atoms: C_17  and  C_18
REMARK    7  A    between atoms: C_20  and  C_21
REMARK    8  A    between atoms: C_20  and  O_22
REMARK                            x       y       z     vdW  Elec       q    Type
REMARK                         _______ _______ _______ _____ _____    ______ ____
ROOT
ATOM      1  C   UNL     1       7.355  -2.005  22.791  0.00  0.00    -0.013 A 
ATOM      2  C   UNL     1       6.485  -1.310  23.663  0.00  0.00    +0.010 A 
ATOM      3  C   UNL     1       6.696   0.027  24.033  0.00  0.00    +0.025 A 
ATOM      4  C   UNL     1       7.755   0.744  23.485  0.00  0.00    +0.052 A 
ATOM      5  C   UNL     1       8.569   0.115  22.537  0.00  0.00    +0.063 A 
ATOM      6 CL   UNL     1       9.891   0.967  21.814  0.00  0.00    -0.082 Cl
ATOM      7  C   UNL     1       8.394  -1.243  22.227  0.00  0.00    +0.030 A 
ENDROOT
BRANCH   1   9
ATOM      8  C   UNL     1       7.944  -4.502  23.200  0.00  0.00    +0.128 A 
ATOM      9  C   UNL     1       7.195  -3.481  22.557  0.00  0.00    +0.024 A 
ATOM     10  C   UNL     1       6.196  -3.918  21.650  0.00  0.00    +0.012 A 
ATOM     11  C   UNL     1       5.971  -5.265  21.357  0.00  0.00    +0.001 A 
ATOM     12  C   UNL     1       6.733  -6.238  21.980  0.00  0.00    +0.004 A 
ATOM     13  C   UNL     1       7.710  -5.859  22.895  0.00  0.00    +0.046 A 
BRANCH   8  15
ATOM     14  C   UNL     1       8.870  -4.728  25.382  0.00  0.00    +0.277 C 
ATOM     15  O   UNL     1       8.933  -4.135  24.084  0.00  0.00    -0.495 OA
ENDBRANCH   8  15
ENDBRANCH   1   9
BRANCH   4  16
ATOM     16  N   UNL     1       8.009   2.088  23.868  0.00  0.00    -0.280 N 
ATOM     17  H   UNL     1       8.322   2.204  24.828  0.00  0.00    +0.155 HD
ATOM     18  C   UNL     1       7.397   3.162  23.241  0.00  0.00    +0.262 C 
ATOM     19  O   UNL     1       6.597   3.046  22.309  0.00  0.00    -0.269 OA
BRANCH  18  20
ATOM     20  C   UNL     1       7.690   4.529  23.800  0.00  0.00    +0.150 C 
ATOM     21  C   UNL     1       7.724   5.601  22.968  0.00  0.00    +0.113 C 
ATOM     22  C   UNL     1       8.046   7.011  23.379  0.00  0.00    +0.087 C 
BRANCH  21  23
ATOM     23  O   UNL     1       7.477   5.517  21.602  0.00  0.00    -0.510 OA
ATOM     24  H   UNL     1       6.589   5.895  21.400  0.00  0.00    +0.292 HD
ENDBRANCH  21  23
BRANCH  20  25
ATOM     25  C   UNL     1       7.922   4.663  25.200  0.00  0.00    +0.108 C 
ATOM     26  N   UNL     1       8.073   4.795  26.339  0.00  0.00    -0.191 NA
ENDBRANCH  20  25
ENDBRANCH  18  20
ENDBRANCH   4  16
TORSDOF 6
ENDMDL
MODEL 8
REMARK VINA RESULT:      -6.0      2.051      2.170
REMARK  Name = 
REMARK  8 active torsions:
REMARK  status: ('A' for Active; 'I' for Inactive)
REMARK    1  A    between atoms: C_1  and  O_2
REMARK    2  A    between atoms: O_2  and  C_3
REMARK    3  A    between atoms: C_8  and  C_9
REMARK    4  A    between atoms: C_13  and  N_14
REMARK    5  A    between atoms: C_15  and  C_17
REMARK    6  A    between atoms: C_17  and  C_18
REMARK    7  A    between atoms: C_20  and  C_21
REMARK    8  A    between atoms: C_20  and  O_22
REMARK                            x       y       z     vdW  Elec       q    Type
REMARK                         _______ _______ _______ _____ _____    ______ ____
ROOT
ATOM      1  C   UNL     1       8.767   2.775  23.730  0.00  0.00    -0.013 A 
ATOM      2  C   UNL     1       8.344   2.230  22.495  0.00  0.00    +0.010 A 
ATOM      3  C   UNL     1       7.531   1.089  22.412  0.00  0.00    +0.025 A 
ATOM      4  C   UNL     1       7.050   0.489  23.572  0.00  0.00    +0.052 A 
ATOM      5  C   UNL     1       7.364   1.070  24.805  0.00  0.00    +0.063 A 
ATOM      6 CL   UNL     1       6.780   0.370  26.277  0.00  0.00    -0.082 Cl
ATOM      7  C   UNL     1       8.237   2.167  24.882  0.00  0.00    +0.030 A 
ENDROOT
BRANCH   1   9
ATOM      8  C   UNL     1       9.531   5.203  24.252  0.00  0.00    +0.128 A 
ATOM      9  C   UNL     1       9.777   3.887  23.775  0.00  0.00    +0.024 A 
ATOM     10  C   UNL     1      11.101   3.617  23.346  0.00  0.00    +0.012 A 
ATOM     11  C   UNL     1      12.111   4.583  23.342  0.00  0.00    +0.001 A 
ATOM     12  C   UNL     1      11.837   5.863  23.788  0.00  0.00    +0.004 A 
ATOM     13  C   UNL     1      10.557   6.169  24.241  0.00  0.00    +0.046 A 
BRANCH   8  15
ATOM     14  C   UNL     1       8.112   5.816  26.063  0.00  0.00    +0.277 C 
ATOM     15  O   UNL     1       8.260   5.522  24.673  0.00  0.00    -0.495 OA
ENDBRANCH   8  15
ENDBRANCH   1   9
BRANCH   4  16
ATOM     16  N   UNL     1       6.252  -0.685  23.516  0.00  0.00    -0.280 N 
ATOM     17  H   UNL     1       5.320  -0.583  23.907  0.00  0.00    +0.155 HD
ATOM     18  C   UNL     1       6.809  -1.953  23.461  0.00  0.00    +0.262 C 
ATOM     19  O   UNL     1       8.024  -2.168  23.450  0.00  0.00    -0.269 OA
BRANCH  18  20
ATOM     20  C   UNL     1       5.850  -3.114  23.490  0.00  0.00    +0.150 C 
ATOM     21  C   UNL     1       6.099  -4.209  22.726  0.00  0.00    +0.113 C 
ATOM     22  C   UNL     1       5.210  -5.417  22.622  0.00  0.00    +0.087 C 
BRANCH  21  23
ATOM     23  O   UNL     1       7.221  -4.336  21.915  0.00  0.00    -0.510 OA
ATOM     24  H   UNL     1       7.596  -5.245  22.003  0.00  0.00    +0.292 HD
ENDBRANCH  21  23
BRANCH  20  25
ATOM     25  C   UNL     1       4.701  -3.036  24.330  0.00  0.00    +0.108 C 
ATOM     26  N   UNL     1       3.746  -2.988  24.979  0.00  0.00    -0.191 NA
ENDBRANCH  20  25
ENDBRANCH  18  20
ENDBRANCH   4  16
TORSDOF 6
ENDMDL
MODEL 9
REMARK VINA RESULT:      -6.0      1.893      3.199
REMARK  Name = 
REMARK  8 active torsions:
REMARK  status: ('A' for Active; 'I' for Inactive)
REMARK    1  A    between atoms: C_1  and  O_2
REMARK    2  A    between atoms: O_2  and  C_3
REMARK    3  A    between atoms: C_8  and  C_9
REMARK    4  A    between atoms: C_13  and  N_14
REMARK    5  A    between atoms: C_15  and  C_17
REMARK    6  A    between atoms: C_17  and  C_18
REMARK    7  A    between atoms: C_20  and  C_21
REMARK    8  A    between atoms: C_20  and  O_22
REMARK                            x       y       z     vdW  Elec       q    Type
REMARK                         _______ _______ _______ _____ _____    ______ ____
ROOT
ATOM      1  C   UNL     1       8.475   2.892  23.485  0.00  0.00    -0.013 A 
ATOM      2  C   UNL     1       8.174   2.305  24.736  0.00  0.00    +0.010 A 
ATOM      3  C   UNL     1       8.252   0.921  24.959  0.00  0.00    +0.025 A 
ATOM      4  C   UNL     1       8.706   0.076  23.951  0.00  0.00    +0.052 A 
ATOM      5  C   UNL     1       9.114   0.641  22.738  0.00  0.00    +0.063 A 
ATOM      6 CL   UNL     1       9.700  -0.364  21.456  0.00  0.00    -0.082 Cl
ATOM      7  C   UNL     1       8.964   2.017  22.499  0.00  0.00    +0.030 A 
ENDROOT
BRANCH   1   9
ATOM      8  C   UNL     1       9.076   5.418  23.600  0.00  0.00    +0.128 A 
ATOM      9  C   UNL     1       8.211   4.351  23.236  0.00  0.00    +0.024 A 
ATOM     10  C   UNL     1       7.025   4.716  22.550  0.00  0.00    +0.012 A 
ATOM     11  C   UNL     1       6.683   6.042  22.275  0.00  0.00    +0.001 A 
ATOM     12  C   UNL     1       7.532   7.064  22.663  0.00  0.00    +0.004 A 
ATOM     13  C   UNL     1       8.719   6.753  23.319  0.00  0.00    +0.046 A 
BRANCH   8  15
ATOM     14  C   UNL     1      11.449   5.241  23.529  0.00  0.00    +0.277 C 
ATOM     15  O   UNL     1      10.237   5.121  24.275  0.00  0.00    -0.495 OA
ENDBRANCH   8  15
ENDBRANCH   1   9
BRANCH   4  16
ATOM     16  N   UNL     1       8.764  -1.330  24.141  0.00  0.00    -0.280 N 
ATOM     17  H   UNL     1       9.702  -1.720  24.137  0.00  0.00    +0.155 HD
ATOM     18  C   UNL     1       7.703  -2.162  23.819  0.00  0.00    +0.262 C 
ATOM     19  O   UNL     1       6.634  -1.760  23.353  0.00  0.00    -0.269 OA
BRANCH  18  20
ATOM     20  C   UNL     1       7.928  -3.641  23.991  0.00  0.00    +0.150 C 
ATOM     21  C   UNL     1       8.468  -4.107  25.147  0.00  0.00    +0.113 C 
ATOM     22  C   UNL     1       8.788  -5.548  25.438  0.00  0.00    +0.087 C 
BRANCH  21  23
ATOM     23  O   UNL     1       8.816  -3.287  26.214  0.00  0.00    -0.510 OA
ATOM     24  H   UNL     1       8.500  -2.368  26.045  0.00  0.00    +0.292 HD
ENDBRANCH  21  23
BRANCH  20  25
ATOM     25  C   UNL     1       7.559  -4.520  22.932  0.00  0.00    +0.108 C 
ATOM     26  N   UNL     1       7.269  -5.266  22.098  0.00  0.00    -0.191 NA
ENDBRANCH  20  25
ENDBRANCH  18  20
ENDBRANCH   4  16
TORSDOF 6
ENDMDL
