MODEL 1
REMARK VINA RESULT:      -7.2      0.000      0.000
REMARK  Name = 
REMARK  8 active torsions:
REMARK  status: ('A' for Active; 'I' for Inactive)
REMARK    1  A    between atoms: C_1  and  O_2
REMARK    2  A    between atoms: O_2  and  C_3
REMARK    3  A    between atoms: C_4  and  O_5
REMARK    4  A    between atoms: O_5  and  C_6
REMARK    5  A    between atoms: C_6  and  C_7
REMARK    6  A    between atoms: C_7  and  C_8
REMARK    7  A    between atoms: C_8  and  N_9
REMARK    8  A    between atoms: N_21  and  C_22
REMARK                            x       y       z     vdW  Elec       q    Type
REMARK                         _______ _______ _______ _____ _____    ______ ____
ROOT
ATOM      1  C   UNL     1       5.719   2.497  23.865  0.00  0.00    +0.162 A 
ATOM      2  C   UNL     1       6.149   1.172  23.846  0.00  0.00    +0.062 A 
ATOM      3  C   UNL     1       7.191   0.741  22.984  0.00  0.00    +0.044 A 
ATOM      4  C   UNL     1       7.811   1.681  22.139  0.00  0.00    +0.080 A 
ATOM      5  N   UNL     1       8.831   1.377  21.342  0.00  0.00    -0.235 NA
ATOM      6  C   UNL     1       9.255   0.116  21.386  0.00  0.00    +0.223 A 
ATOM      7  N   UNL     1       8.724  -0.863  22.116  0.00  0.00    -0.220 NA
ATOM      8  C   UNL     1       7.387   2.996  22.172  0.00  0.00    +0.078 A 
ATOM      9  C   UNL     1       7.684  -0.578  22.905  0.00  0.00    +0.134 A 
ATOM     10  N   UNL     1       7.148  -1.577  23.750  0.00  0.00    -0.295 N 
ATOM     11  H   UNL     1       6.149  -1.484  23.889  0.00  0.00    +0.154 HD
ATOM     12  C   UNL     1       6.379   3.423  23.039  0.00  0.00    +0.164 A 
ENDROOT
BRANCH  10  13
ATOM     13  C   UNL     1       7.605  -2.848  24.170  0.00  0.00    +0.097 A 
ATOM     14  C   UNL     1       7.565  -4.022  23.424  0.00  0.00    +0.189 A 
ATOM     15  O   UNL     1       6.871  -4.247  22.274  0.00  0.00    -0.451 OA
ATOM     16  C   UNL     1       7.323  -5.545  21.889  0.00  0.00    +0.466 C 
ATOM     17  O   UNL     1       8.071  -6.200  22.927  0.00  0.00    -0.453 OA
ATOM     18  C   UNL     1       8.216  -5.178  23.814  0.00  0.00    +0.168 A 
ATOM     19  C   UNL     1       8.934  -5.263  24.987  0.00  0.00    +0.051 A 
ATOM     20  C   UNL     1       8.977  -4.129  25.793  0.00  0.00    +0.025 A 
ATOM     21  C   UNL     1       8.330  -2.944  25.388  0.00  0.00    +0.066 A 
ATOM     22 CL   UNL     1       8.462  -1.567  26.438  0.00  0.00    -0.081 Cl
ENDBRANCH  10  13
BRANCH   1  24
ATOM     23  C   UNL     1       4.245   2.168  25.761  0.00  0.00    +0.277 C 
ATOM     24  O   UNL     1       4.726   2.956  24.680  0.00  0.00    -0.491 OA
ENDBRANCH   1  24
BRANCH  12  25
ATOM     25  O   UNL     1       6.132   4.779  22.978  0.00  0.00    -0.488 OA
BRANCH  25  26
ATOM     26  C   UNL     1       7.150   5.485  22.271  0.00  0.00    +0.230 C 
BRANCH  26  27
ATOM     27  C   UNL     1       7.755   6.609  23.116  0.00  0.00    +0.056 C 
BRANCH  27  28
ATOM     28  C   UNL     1       9.269   6.360  23.138  0.00  0.00    +0.087 C 
BRANCH  28  29
ATOM     29  N   UNL     1       9.844   5.744  24.340  0.00  0.00    -0.302 NA
ATOM     30  C   UNL     1      11.166   6.342  24.628  0.00  0.00    +0.084 C 
ATOM     31  C   UNL     1      12.264   5.947  23.631  0.00  0.00    +0.015 C 
ATOM     32  C   UNL     1      12.363   4.432  23.476  0.00  0.00    +0.002 C 
ATOM     33  C   UNL     1      10.994   3.807  23.223  0.00  0.00    +0.015 C 
ATOM     34  C   UNL     1       9.974   4.282  24.261  0.00  0.00    +0.084 C 
ENDBRANCH  28  29
ENDBRANCH  27  28
ENDBRANCH  26  27
ENDBRANCH  25  26
ENDBRANCH  12  25
TORSDOF 7
ENDMDL
MODEL 2
REMARK VINA RESULT:      -7.1      4.688      7.175
REMARK  Name = 
REMARK  8 active torsions:
REMARK  status: ('A' for Active; 'I' for Inactive)
REMARK    1  A    between atoms: C_1  and  O_2
REMARK    2  A    between atoms: O_2  and  C_3
REMARK    3  A    between atoms: C_4  and  O_5
REMARK    4  A    between atoms: O_5  and  C_6
REMARK    5  A    between atoms: C_6  and  C_7
REMARK    6  A    between atoms: C_7  and  C_8
REMARK    7  A    between atoms: C_8  and  N_9
REMARK    8  A    between atoms: N_21  and  C_22
REMARK                            x       y       z     vdW  Elec       q    Type
REMARK                         _______ _______ _______ _____ _____    ______ ____
ROOT
ATOM      1  C   UNL     1       7.469  -4.192  23.533  0.00  0.00    +0.162 A 
ATOM      2  C   UNL     1       6.400  -4.861  24.125  0.00  0.00    +0.062 A 
ATOM      3  C   UNL     1       6.483  -5.375  25.444  0.00  0.00    +0.044 A 
ATOM      4  C   UNL     1       7.673  -5.192  26.175  0.00  0.00    +0.080 A 
ATOM      5  N   UNL     1       7.819  -5.591  27.435  0.00  0.00    -0.235 NA
ATOM      6  C   UNL     1       6.762  -6.178  27.990  0.00  0.00    +0.223 A 
ATOM      7  N   UNL     1       5.603  -6.437  27.387  0.00  0.00    -0.220 NA
ATOM      8  C   UNL     1       8.726  -4.517  25.586  0.00  0.00    +0.078 A 
ATOM      9  C   UNL     1       5.449  -6.062  26.114  0.00  0.00    +0.134 A 
ATOM     10  N   UNL     1       4.204  -6.252  25.471  0.00  0.00    -0.295 N 
ATOM     11  H   UNL     1       4.297  -6.444  24.480  0.00  0.00    +0.154 HD
ATOM     12  C   UNL     1       8.631  -3.988  24.296  0.00  0.00    +0.164 A 
ENDROOT
BRANCH  10  13
ATOM     13  C   UNL     1       2.905  -6.567  25.932  0.00  0.00    +0.097 A 
ATOM     14  C   UNL     1       2.230  -7.766  25.730  0.00  0.00    +0.189 A 
ATOM     15  O   UNL     1       2.557  -8.762  24.861  0.00  0.00    -0.451 OA
ATOM     16  C   UNL     1       1.619  -9.784  25.195  0.00  0.00    +0.466 C 
ATOM     17  O   UNL     1       0.575  -9.314  26.064  0.00  0.00    -0.453 OA
ATOM     18  C   UNL     1       1.053  -8.081  26.385  0.00  0.00    +0.168 A 
ATOM     19  C   UNL     1       0.444  -7.216  27.269  0.00  0.00    +0.051 A 
ATOM     20  C   UNL     1       1.056  -5.984  27.481  0.00  0.00    +0.025 A 
ATOM     21  C   UNL     1       2.266  -5.670  26.830  0.00  0.00    +0.066 A 
ATOM     22 CL   UNL     1       2.977  -4.123  27.177  0.00  0.00    -0.081 Cl
ENDBRANCH  10  13
BRANCH   1  24
ATOM     23  C   UNL     1       6.190  -3.410  21.627  0.00  0.00    +0.277 C 
ATOM     24  O   UNL     1       7.429  -3.676  22.271  0.00  0.00    -0.491 OA
ENDBRANCH   1  24
BRANCH  12  25
ATOM     25  O   UNL     1       9.755  -3.294  23.898  0.00  0.00    -0.488 OA
BRANCH  25  26
ATOM     26  C   UNL     1       9.646  -1.895  24.149  0.00  0.00    +0.230 C 
BRANCH  26  27
ATOM     27  C   UNL     1      10.043  -1.064  22.926  0.00  0.00    +0.056 C 
BRANCH  27  28
ATOM     28  C   UNL     1       8.810  -0.230  22.556  0.00  0.00    +0.087 C 
BRANCH  28  29
ATOM     29  N   UNL     1       9.008   0.935  21.685  0.00  0.00    -0.302 NA
ATOM     30  C   UNL     1      10.210   1.683  22.113  0.00  0.00    +0.084 C 
ATOM     31  C   UNL     1      10.046   2.428  23.445  0.00  0.00    +0.015 C 
ATOM     32  C   UNL     1       8.809   3.323  23.438  0.00  0.00    +0.002 C 
ATOM     33  C   UNL     1       7.576   2.566  22.954  0.00  0.00    +0.015 C 
ATOM     34  C   UNL     1       7.856   1.848  21.632  0.00  0.00    +0.084 C 
ENDBRANCH  28  29
ENDBRANCH  27  28
ENDBRANCH  26  27
ENDBRANCH  25  26
ENDBRANCH  12  25
TORSDOF 7
ENDMDL
MODEL 3
REMARK VINA RESULT:      -7.1      3.341      9.179
REMARK  Name = 
REMARK  8 active torsions:
REMARK  status: ('A' for Active; 'I' for Inactive)
REMARK    1  A    between atoms: C_1  and  O_2
REMARK    2  A    between atoms: O_2  and  C_3
REMARK    3  A    between atoms: C_4  and  O_5
REMARK    4  A    between atoms: O_5  and  C_6
REMARK    5  A    between atoms: C_6  and  C_7
REMARK    6  A    between atoms: C_7  and  C_8
REMARK    7  A    between atoms: C_8  and  N_9
REMARK    8  A    between atoms: N_21  and  C_22
REMARK                            x       y       z     vdW  Elec       q    Type
REMARK                         _______ _______ _______ _____ _____    ______ ____
ROOT
ATOM      1  C   UNL     1       5.499  -4.201  22.371  0.00  0.00    +0.162 A 
ATOM      2  C   UNL     1       6.120  -2.967  22.556  0.00  0.00    +0.062 A 
ATOM      3  C   UNL     1       5.795  -2.128  23.653  0.00  0.00    +0.044 A 
ATOM      4  C   UNL     1       4.830  -2.561  24.582  0.00  0.00    +0.080 A 
ATOM      5  N   UNL     1       4.506  -1.865  25.668  0.00  0.00    -0.235 NA
ATOM      6  C   UNL     1       5.155  -0.718  25.845  0.00  0.00    +0.223 A 
ATOM      7  N   UNL     1       6.057  -0.192  25.017  0.00  0.00    -0.220 NA
ATOM      8  C   UNL     1       4.226  -3.791  24.399  0.00  0.00    +0.078 A 
ATOM      9  C   UNL     1       6.377  -0.869  23.910  0.00  0.00    +0.134 A 
ATOM     10  N   UNL     1       7.387  -0.376  23.052  0.00  0.00    -0.295 N 
ATOM     11  H   UNL     1       7.221  -0.597  22.077  0.00  0.00    +0.154 HD
ATOM     12  C   UNL     1       4.567  -4.627  23.333  0.00  0.00    +0.164 A 
ENDROOT
BRANCH  10  13
ATOM     13  C   UNL     1       8.380   0.622  23.186  0.00  0.00    +0.097 A 
ATOM     14  C   UNL     1       8.192   1.992  23.035  0.00  0.00    +0.189 A 
ATOM     15  O   UNL     1       7.113   2.624  22.495  0.00  0.00    -0.451 OA
ATOM     16  C   UNL     1       7.404   3.999  22.742  0.00  0.00    +0.466 C 
ATOM     17  O   UNL     1       8.756   4.208  23.183  0.00  0.00    -0.453 OA
ATOM     18  C   UNL     1       9.155   2.922  23.384  0.00  0.00    +0.168 A 
ATOM     19  C   UNL     1      10.386   2.559  23.885  0.00  0.00    +0.051 A 
ATOM     20  C   UNL     1      10.644   1.198  24.023  0.00  0.00    +0.025 A 
ATOM     21  C   UNL     1       9.657   0.250  23.685  0.00  0.00    +0.066 A 
ATOM     22 CL   UNL     1      10.051  -1.426  23.917  0.00  0.00    -0.081 Cl
ENDBRANCH  10  13
BRANCH   1  24
ATOM     23  C   UNL     1       6.916  -5.901  21.382  0.00  0.00    +0.277 C 
ATOM     24  O   UNL     1       5.785  -5.041  21.335  0.00  0.00    -0.491 OA
ENDBRANCH   1  24
BRANCH  12  25
ATOM     25  O   UNL     1       3.908  -5.839  23.346  0.00  0.00    -0.488 OA
BRANCH  25  26
ATOM     26  C   UNL     1       4.582  -6.815  24.139  0.00  0.00    +0.230 C 
BRANCH  26  27
ATOM     27  C   UNL     1       3.659  -7.422  25.199  0.00  0.00    +0.056 C 
BRANCH  27  28
ATOM     28  C   UNL     1       3.920  -6.640  26.493  0.00  0.00    +0.087 C 
BRANCH  28  29
ATOM     29  N   UNL     1       5.226  -6.806  27.141  0.00  0.00    -0.302 NA
ATOM     30  C   UNL     1       5.040  -7.219  28.549  0.00  0.00    +0.084 C 
ATOM     31  C   UNL     1       4.481  -6.115  29.458  0.00  0.00    +0.015 C 
ATOM     32  C   UNL     1       5.308  -4.835  29.360  0.00  0.00    +0.002 C 
ATOM     33  C   UNL     1       5.540  -4.432  27.907  0.00  0.00    +0.015 C 
ATOM     34  C   UNL     1       6.078  -5.609  27.089  0.00  0.00    +0.084 C 
ENDBRANCH  28  29
ENDBRANCH  27  28
ENDBRANCH  26  27
ENDBRANCH  25  26
ENDBRANCH  12  25
TORSDOF 7
ENDMDL
MODEL 4
REMARK VINA RESULT:      -7.1      4.280      5.912
REMARK  Name = 
REMARK  8 active torsions:
REMARK  status: ('A' for Active; 'I' for Inactive)
REMARK    1  A    between atoms: C_1  and  O_2
REMARK    2  A    between atoms: O_2  and  C_3
REMARK    3  A    between atoms: C_4  and  O_5
REMARK    4  A    between atoms: O_5  and  C_6
REMARK    5  A    between atoms: C_6  and  C_7
REMARK    6  A    between atoms: C_7  and  C_8
REMARK    7  A    between atoms: C_8  and  N_9
REMARK    8  A    between atoms: N_21  and  C_22
REMARK                            x       y       z     vdW  Elec       q    Type
REMARK                         _______ _______ _______ _____ _____    ______ ____
ROOT
ATOM      1  C   UNL     1       6.048  -1.875  24.490  0.00  0.00    +0.162 A 
ATOM      2  C   UNL     1       5.220  -2.972  24.261  0.00  0.00    +0.062 A 
ATOM      3  C   UNL     1       5.519  -3.934  23.262  0.00  0.00    +0.044 A 
ATOM      4  C   UNL     1       6.689  -3.780  22.494  0.00  0.00    +0.080 A 
ATOM      5  N   UNL     1       7.075  -4.662  21.577  0.00  0.00    -0.235 NA
ATOM      6  C   UNL     1       6.292  -5.726  21.420  0.00  0.00    +0.223 A 
ATOM      7  N   UNL     1       5.147  -5.958  22.061  0.00  0.00    -0.220 NA
ATOM      8  C   UNL     1       7.512  -2.696  22.734  0.00  0.00    +0.078 A 
ATOM      9  C   UNL     1       4.734  -5.069  22.969  0.00  0.00    +0.134 A 
ATOM     10  N   UNL     1       3.565  -5.325  23.722  0.00  0.00    -0.295 N 
ATOM     11  H   UNL     1       3.055  -4.482  23.959  0.00  0.00    +0.154 HD
ATOM     12  C   UNL     1       7.230  -1.765  23.736  0.00  0.00    +0.164 A 
ENDROOT
BRANCH  10  13
ATOM     13  C   UNL     1       2.771  -6.476  23.930  0.00  0.00    +0.097 A 
ATOM     14  C   UNL     1       1.863  -7.022  23.029  0.00  0.00    +0.189 A 
ATOM     15  O   UNL     1       1.372  -6.443  21.898  0.00  0.00    -0.451 OA
ATOM     16  C   UNL     1       0.622  -7.504  21.309  0.00  0.00    +0.466 C 
ATOM     17  O   UNL     1       0.443  -8.617  22.200  0.00  0.00    -0.453 OA
ATOM     18  C   UNL     1       1.278  -8.262  23.214  0.00  0.00    +0.168 A 
ATOM     19  C   UNL     1       1.532  -9.041  24.323  0.00  0.00    +0.051 A 
ATOM     20  C   UNL     1       2.405  -8.527  25.278  0.00  0.00    +0.025 A 
ATOM     21  C   UNL     1       3.016  -7.273  25.081  0.00  0.00    +0.066 A 
ATOM     22 CL   UNL     1       4.116  -6.723  26.308  0.00  0.00    -0.081 Cl
ENDBRANCH  10  13
BRANCH   1  24
ATOM     23  C   UNL     1       4.830  -1.149  26.456  0.00  0.00    +0.277 C 
ATOM     24  O   UNL     1       5.803  -0.931  25.443  0.00  0.00    -0.491 OA
ENDBRANCH   1  24
BRANCH  12  25
ATOM     25  O   UNL     1       8.193  -0.788  23.873  0.00  0.00    -0.488 OA
BRANCH  25  26
ATOM     26  C   UNL     1       9.481  -1.331  24.158  0.00  0.00    +0.230 C 
BRANCH  26  27
ATOM     27  C   UNL     1      10.523  -0.234  24.389  0.00  0.00    +0.056 C 
BRANCH  27  28
ATOM     28  C   UNL     1       9.741   1.081  24.515  0.00  0.00    +0.087 C 
BRANCH  28  29
ATOM     29  N   UNL     1      10.116   2.187  23.625  0.00  0.00    -0.302 NA
ATOM     30  C   UNL     1       9.191   3.325  23.821  0.00  0.00    +0.084 C 
ATOM     31  C   UNL     1       7.774   3.081  23.286  0.00  0.00    +0.015 C 
ATOM     32  C   UNL     1       7.794   2.628  21.828  0.00  0.00    +0.002 C 
ATOM     33  C   UNL     1       8.781   1.483  21.614  0.00  0.00    +0.015 C 
ATOM     34  C   UNL     1      10.153   1.825  22.200  0.00  0.00    +0.084 C 
ENDBRANCH  28  29
ENDBRANCH  27  28
ENDBRANCH  26  27
ENDBRANCH  25  26
ENDBRANCH  12  25
TORSDOF 7
ENDMDL
MODEL 5
REMARK VINA RESULT:      -7.0      2.531      8.195
REMARK  Name = 
REMARK  8 active torsions:
REMARK  status: ('A' for Active; 'I' for Inactive)
REMARK    1  A    between atoms: C_1  and  O_2
REMARK    2  A    between atoms: O_2  and  C_3
REMARK    3  A    between atoms: C_4  and  O_5
REMARK    4  A    between atoms: O_5  and  C_6
REMARK    5  A    between atoms: C_6  and  C_7
REMARK    6  A    between atoms: C_7  and  C_8
REMARK    7  A    between atoms: C_8  and  N_9
REMARK    8  A    between atoms: N_21  and  C_22
REMARK                            x       y       z     vdW  Elec       q    Type
REMARK                         _______ _______ _______ _____ _____    ______ ____
ROOT
ATOM      1  C   UNL     1       5.994  -1.076  24.353  0.00  0.00    +0.162 A 
ATOM      2  C   UNL     1       6.771   0.080  24.336  0.00  0.00    +0.062 A 
ATOM      3  C   UNL     1       7.847   0.239  23.425  0.00  0.00    +0.044 A 
ATOM      4  C   UNL     1       8.126  -0.793  22.509  0.00  0.00    +0.080 A 
ATOM      5  N   UNL     1       9.077  -0.706  21.585  0.00  0.00    -0.235 NA
ATOM      6  C   UNL     1       9.766   0.432  21.559  0.00  0.00    +0.223 A 
ATOM      7  N   UNL     1       9.617   1.458  22.395  0.00  0.00    -0.220 NA
ATOM      8  C   UNL     1       7.342  -1.933  22.524  0.00  0.00    +0.078 A 
ATOM      9  C   UNL     1       8.680   1.375  23.344  0.00  0.00    +0.134 A 
ATOM     10  N   UNL     1       8.444   2.478  24.197  0.00  0.00    -0.295 N 
ATOM     11  H   UNL     1       8.158   2.203  25.129  0.00  0.00    +0.154 HD
ATOM     12  C   UNL     1       6.267  -2.076  23.404  0.00  0.00    +0.164 A 
ENDROOT
BRANCH  10  13
ATOM     13  C   UNL     1       8.829   3.838  24.162  0.00  0.00    +0.097 A 
ATOM     14  C   UNL     1      10.093   4.325  23.846  0.00  0.00    +0.189 A 
ATOM     15  O   UNL     1      11.252   3.617  23.755  0.00  0.00    -0.451 OA
ATOM     16  C   UNL     1      12.171   4.591  23.259  0.00  0.00    +0.466 C 
ATOM     17  O   UNL     1      11.640   5.926  23.304  0.00  0.00    -0.453 OA
ATOM     18  C   UNL     1      10.344   5.668  23.629  0.00  0.00    +0.168 A 
ATOM     19  C   UNL     1       9.363   6.631  23.736  0.00  0.00    +0.051 A 
ATOM     20  C   UNL     1       8.085   6.204  24.087  0.00  0.00    +0.025 A 
ATOM     21  C   UNL     1       7.824   4.834  24.290  0.00  0.00    +0.066 A 
ATOM     22 CL   UNL     1       6.195   4.387  24.696  0.00  0.00    -0.081 Cl
ENDBRANCH  10  13
BRANCH   1  24
ATOM     23  C   UNL     1       4.813  -0.487  26.387  0.00  0.00    +0.277 C 
ATOM     24  O   UNL     1       4.947  -1.268  25.206  0.00  0.00    -0.491 OA
ENDBRANCH   1  24
BRANCH  12  25
ATOM     25  O   UNL     1       5.563  -3.249  23.233  0.00  0.00    -0.488 OA
BRANCH  25  26
ATOM     26  C   UNL     1       6.224  -4.156  22.353  0.00  0.00    +0.230 C 
BRANCH  26  27
ATOM     27  C   UNL     1       6.643  -5.442  23.071  0.00  0.00    +0.056 C 
BRANCH  27  28
ATOM     28  C   UNL     1       6.254  -5.257  24.544  0.00  0.00    +0.087 C 
BRANCH  28  29
ATOM     29  N   UNL     1       7.249  -5.612  25.563  0.00  0.00    -0.302 NA
ATOM     30  C   UNL     1       6.901  -4.970  26.850  0.00  0.00    +0.084 C 
ATOM     31  C   UNL     1       7.101  -3.448  26.867  0.00  0.00    +0.015 C 
ATOM     32  C   UNL     1       8.508  -3.063  26.417  0.00  0.00    +0.002 C 
ATOM     33  C   UNL     1       8.887  -3.759  25.113  0.00  0.00    +0.015 C 
ATOM     34  C   UNL     1       8.631  -5.266  25.200  0.00  0.00    +0.084 C 
ENDBRANCH  28  29
ENDBRANCH  27  28
ENDBRANCH  26  27
ENDBRANCH  25  26
ENDBRANCH  12  25
TORSDOF 7
ENDMDL
MODEL 6
REMARK VINA RESULT:      -7.0      3.006      9.008
REMARK  Name = 
REMARK  8 active torsions:
REMARK  status: ('A' for Active; 'I' for Inactive)
REMARK    1  A    between atoms: C_1  and  O_2
REMARK    2  A    between atoms: O_2  and  C_3
REMARK    3  A    between atoms: C_4  and  O_5
REMARK    4  A    between atoms: O_5  and  C_6
REMARK    5  A    between atoms: C_6  and  C_7
REMARK    6  A    between atoms: C_7  and  C_8
REMARK    7  A    between atoms: C_8  and  N_9
REMARK    8  A    between atoms: N_21  and  C_22
REMARK                            x       y       z     vdW  Elec       q    Type
REMARK                         _______ _______ _______ _____ _____    ______ ____
ROOT
ATOM      1  C   UNL     1       7.754  -2.117  25.218  0.00  0.00    +0.162 A 
ATOM      2  C   UNL     1       8.216  -0.822  24.987  0.00  0.00    +0.062 A 
ATOM      3  C   UNL     1       8.700  -0.422  23.715  0.00  0.00    +0.044 A 
ATOM      4  C   UNL     1       8.701  -1.354  22.660  0.00  0.00    +0.080 A 
ATOM      5  N   UNL     1       9.084  -1.049  21.423  0.00  0.00    -0.235 NA
ATOM      6  C   UNL     1       9.467   0.209  21.221  0.00  0.00    +0.223 A 
ATOM      7  N   UNL     1       9.542   1.163  22.147  0.00  0.00    -0.220 NA
ATOM      8  C   UNL     1       8.231  -2.633  22.893  0.00  0.00    +0.078 A 
ATOM      9  C   UNL     1       9.183   0.866  23.399  0.00  0.00    +0.134 A 
ATOM     10  N   UNL     1       9.176   1.877  24.388  0.00  0.00    -0.295 N 
ATOM     11  H   UNL     1       9.409   1.529  25.311  0.00  0.00    +0.154 HD
ATOM     12  C   UNL     1       7.730  -3.017  24.139  0.00  0.00    +0.164 A 
ENDROOT
BRANCH  10  13
ATOM     13  C   UNL     1       9.252   3.288  24.340  0.00  0.00    +0.097 A 
ATOM     14  C   UNL     1      10.340   4.037  23.903  0.00  0.00    +0.189 A 
ATOM     15  O   UNL     1      11.608   3.598  23.676  0.00  0.00    -0.451 OA
ATOM     16  C   UNL     1      12.236   4.745  23.106  0.00  0.00    +0.466 C 
ATOM     17  O   UNL     1      11.438   5.933  23.233  0.00  0.00    -0.453 OA
ATOM     18  C   UNL     1      10.270   5.402  23.687  0.00  0.00    +0.168 A 
ATOM     19  C   UNL     1       9.121   6.129  23.916  0.00  0.00    +0.051 A 
ATOM     20  C   UNL     1       8.011   5.436  24.391  0.00  0.00    +0.025 A 
ATOM     21  C   UNL     1       8.076   4.043  24.593  0.00  0.00    +0.066 A 
ATOM     22 CL   UNL     1       6.635   3.254  25.158  0.00  0.00    -0.081 Cl
ENDBRANCH  10  13
BRANCH   1  24
ATOM     23  C   UNL     1       5.935  -2.272  26.812  0.00  0.00    +0.277 C 
ATOM     24  O   UNL     1       7.275  -2.541  26.422  0.00  0.00    -0.491 OA
ENDBRANCH   1  24
BRANCH  12  25
ATOM     25  O   UNL     1       7.248  -4.309  24.169  0.00  0.00    -0.488 OA
BRANCH  25  26
ATOM     26  C   UNL     1       7.634  -5.059  23.019  0.00  0.00    +0.230 C 
BRANCH  26  27
ATOM     27  C   UNL     1       6.527  -6.014  22.566  0.00  0.00    +0.056 C 
BRANCH  27  28
ATOM     28  C   UNL     1       5.208  -5.244  22.714  0.00  0.00    +0.087 C 
BRANCH  28  29
ATOM     29  N   UNL     1       4.029  -5.989  23.173  0.00  0.00    -0.302 NA
ATOM     30  C   UNL     1       2.935  -5.047  23.497  0.00  0.00    +0.084 C 
ATOM     31  C   UNL     1       3.177  -4.216  24.765  0.00  0.00    +0.015 C 
ATOM     32  C   UNL     1       3.520  -5.103  25.960  0.00  0.00    +0.002 C 
ATOM     33  C   UNL     1       4.618  -6.105  25.614  0.00  0.00    +0.015 C 
ATOM     34  C   UNL     1       4.283  -6.863  24.327  0.00  0.00    +0.084 C 
ENDBRANCH  28  29
ENDBRANCH  27  28
ENDBRANCH  26  27
ENDBRANCH  25  26
ENDBRANCH  12  25
TORSDOF 7
ENDMDL
MODEL 7
REMARK VINA RESULT:      -6.9      2.724      9.112
REMARK  Name = 
REMARK  8 active torsions:
REMARK  status: ('A' for Active; 'I' for Inactive)
REMARK    1  A    between atoms: C_1  and  O_2
REMARK    2  A    between atoms: O_2  and  C_3
REMARK    3  A    between atoms: C_4  and  O_5
REMARK    4  A    between atoms: O_5  and  C_6
REMARK    5  A    between atoms: C_6  and  C_7
REMARK    6  A    between atoms: C_7  and  C_8
REMARK    7  A    between atoms: C_8  and  N_9
REMARK    8  A    between atoms: N_21  and  C_22
REMARK                            x       y       z     vdW  Elec       q    Type
REMARK                         _______ _______ _______ _____ _____    ______ ____
ROOT
ATOM      1  C   UNL     1       8.988  -1.522  24.613  0.00  0.00    +0.162 A 
ATOM      2  C   UNL     1       8.526  -0.238  24.331  0.00  0.00    +0.062 A 
ATOM      3  C   UNL     1       7.638   0.442  25.204  0.00  0.00    +0.044 A 
ATOM      4  C   UNL     1       7.225  -0.195  26.390  0.00  0.00    +0.080 A 
ATOM      5  N   UNL     1       6.441   0.388  27.291  0.00  0.00    -0.235 NA
ATOM      6  C   UNL     1       6.061   1.634  27.019  0.00  0.00    +0.223 A 
ATOM      7  N   UNL     1       6.358   2.320  25.917  0.00  0.00    -0.220 NA
ATOM      8  C   UNL     1       7.697  -1.465  26.669  0.00  0.00    +0.078 A 
ATOM      9  C   UNL     1       7.127   1.739  24.992  0.00  0.00    +0.134 A 
ATOM     10  N   UNL     1       7.524   2.469  23.848  0.00  0.00    -0.295 N 
ATOM     11  H   UNL     1       7.621   1.889  23.022  0.00  0.00    +0.154 HD
ATOM     12  C   UNL     1       8.592  -2.121  25.821  0.00  0.00    +0.164 A 
ENDROOT
BRANCH  10  13
ATOM     13  C   UNL     1       7.492   3.841  23.506  0.00  0.00    +0.097 A 
ATOM     14  C   UNL     1       8.517   4.760  23.703  0.00  0.00    +0.189 A 
ATOM     15  O   UNL     1       9.632   4.603  24.468  0.00  0.00    -0.451 OA
ATOM     16  C   UNL     1      10.380   5.782  24.171  0.00  0.00    +0.466 C 
ATOM     17  O   UNL     1       9.610   6.758  23.448  0.00  0.00    -0.453 OA
ATOM     18  C   UNL     1       8.496   6.032  23.157  0.00  0.00    +0.168 A 
ATOM     19  C   UNL     1       7.443   6.494  22.398  0.00  0.00    +0.051 A 
ATOM     20  C   UNL     1       6.370   5.629  22.201  0.00  0.00    +0.025 A 
ATOM     21  C   UNL     1       6.399   4.327  22.740  0.00  0.00    +0.066 A 
ATOM     22 CL   UNL     1       5.032   3.303  22.418  0.00  0.00    -0.081 Cl
ENDBRANCH  10  13
BRANCH   1  24
ATOM     23  C   UNL     1      10.373  -1.616  22.626  0.00  0.00    +0.277 C 
ATOM     24  O   UNL     1       9.847  -2.208  23.805  0.00  0.00    -0.491 OA
ENDBRANCH   1  24
BRANCH  12  25
ATOM     25  O   UNL     1       9.001  -3.351  26.291  0.00  0.00    -0.488 OA
BRANCH  25  26
ATOM     26  C   UNL     1       7.906  -4.168  26.701  0.00  0.00    +0.230 C 
BRANCH  26  27
ATOM     27  C   UNL     1       7.754  -5.405  25.813  0.00  0.00    +0.056 C 
BRANCH  27  28
ATOM     28  C   UNL     1       6.422  -5.238  25.069  0.00  0.00    +0.087 C 
BRANCH  28  29
ATOM     29  N   UNL     1       6.387  -4.312  23.931  0.00  0.00    -0.302 NA
ATOM     30  C   UNL     1       5.061  -4.369  23.278  0.00  0.00    +0.084 C 
ATOM     31  C   UNL     1       4.794  -5.671  22.511  0.00  0.00    +0.015 C 
ATOM     32  C   UNL     1       5.914  -5.979  21.520  0.00  0.00    +0.002 C 
ATOM     33  C   UNL     1       7.286  -5.877  22.180  0.00  0.00    +0.015 C 
ATOM     34  C   UNL     1       7.438  -4.551  22.930  0.00  0.00    +0.084 C 
ENDBRANCH  28  29
ENDBRANCH  27  28
ENDBRANCH  26  27
ENDBRANCH  25  26
ENDBRANCH  12  25
TORSDOF 7
ENDMDL
MODEL 8
REMARK VINA RESULT:      -6.9      3.662      5.093
REMARK  Name = 
REMARK  8 active torsions:
REMARK  status: ('A' for Active; 'I' for Inactive)
REMARK    1  A    between atoms: C_1  and  O_2
REMARK    2  A    between atoms: O_2  and  C_3
REMARK    3  A    between atoms: C_4  and  O_5
REMARK    4  A    between atoms: O_5  and  C_6
REMARK    5  A    between atoms: C_6  and  C_7
REMARK    6  A    between atoms: C_7  and  C_8
REMARK    7  A    between atoms: C_8  and  N_9
REMARK    8  A    between atoms: N_21  and  C_22
REMARK                            x       y       z     vdW  Elec       q    Type
REMARK                         _______ _______ _______ _____ _____    ______ ____
ROOT
ATOM      1  C   UNL     1       7.703  -0.811  23.397  0.00  0.00    +0.162 A 
ATOM      2  C   UNL     1       7.068  -1.957  23.873  0.00  0.00    +0.062 A 
ATOM      3  C   UNL     1       7.802  -3.103  24.274  0.00  0.00    +0.044 A 
ATOM      4  C   UNL     1       9.208  -3.074  24.199  0.00  0.00    +0.080 A 
ATOM      5  N   UNL     1       9.977  -4.080  24.605  0.00  0.00    -0.235 NA
ATOM      6  C   UNL     1       9.343  -5.137  25.105  0.00  0.00    +0.223 A 
ATOM      7  N   UNL     1       8.022  -5.291  25.190  0.00  0.00    -0.220 NA
ATOM      8  C   UNL     1       9.832  -1.930  23.737  0.00  0.00    +0.078 A 
ATOM      9  C   UNL     1       7.236  -4.298  24.765  0.00  0.00    +0.134 A 
ATOM     10  N   UNL     1       5.834  -4.398  24.914  0.00  0.00    -0.295 N 
ATOM     11  H   UNL     1       5.323  -3.938  24.170  0.00  0.00    +0.154 HD
ATOM     12  C   UNL     1       9.108  -0.794  23.369  0.00  0.00    +0.164 A 
ENDROOT
BRANCH  10  13
ATOM     13  C   UNL     1       4.990  -5.257  25.656  0.00  0.00    +0.097 A 
ATOM     14  C   UNL     1       4.985  -5.409  27.039  0.00  0.00    +0.189 A 
ATOM     15  O   UNL     1       5.925  -4.973  27.922  0.00  0.00    -0.451 OA
ATOM     16  C   UNL     1       5.326  -5.269  29.183  0.00  0.00    +0.466 C 
ATOM     17  O   UNL     1       4.167  -6.110  29.061  0.00  0.00    -0.453 OA
ATOM     18  C   UNL     1       3.997  -6.108  27.710  0.00  0.00    +0.168 A 
ATOM     19  C   UNL     1       2.956  -6.729  27.056  0.00  0.00    +0.051 A 
ATOM     20  C   UNL     1       2.931  -6.642  25.667  0.00  0.00    +0.025 A 
ATOM     21  C   UNL     1       3.926  -5.915  24.983  0.00  0.00    +0.066 A 
ATOM     22 CL   UNL     1       3.802  -5.831  23.252  0.00  0.00    -0.081 Cl
ENDBRANCH  10  13
BRANCH   1  24
ATOM     23  C   UNL     1       6.263   1.063  23.936  0.00  0.00    +0.277 C 
ATOM     24  O   UNL     1       7.037   0.314  23.009  0.00  0.00    -0.491 OA
ENDBRANCH   1  24
BRANCH  12  25
ATOM     25  O   UNL     1       9.900   0.271  22.993  0.00  0.00    -0.488 OA
BRANCH  25  26
ATOM     26  C   UNL     1      10.291   1.076  24.104  0.00  0.00    +0.230 C 
BRANCH  26  27
ATOM     27  C   UNL     1      10.601   2.515  23.684  0.00  0.00    +0.056 C 
BRANCH  27  28
ATOM     28  C   UNL     1       9.268   3.125  23.230  0.00  0.00    +0.087 C 
BRANCH  28  29
ATOM     29  N   UNL     1       8.556   3.993  24.176  0.00  0.00    -0.302 NA
ATOM     30  C   UNL     1       7.263   4.414  23.595  0.00  0.00    +0.084 C 
ATOM     31  C   UNL     1       7.391   5.412  22.436  0.00  0.00    +0.015 C 
ATOM     32  C   UNL     1       8.244   6.617  22.823  0.00  0.00    +0.002 C 
ATOM     33  C   UNL     1       9.561   6.185  23.464  0.00  0.00    +0.015 C 
ATOM     34  C   UNL     1       9.318   5.180  24.593  0.00  0.00    +0.084 C 
ENDBRANCH  28  29
ENDBRANCH  27  28
ENDBRANCH  26  27
ENDBRANCH  25  26
ENDBRANCH  12  25
TORSDOF 7
ENDMDL
MODEL 9
REMARK VINA RESULT:      -6.9      3.810      5.488
REMARK  Name = 
REMARK  8 active torsions:
REMARK  status: ('A' for Active; 'I' for Inactive)
REMARK    1  A    between atoms: C_1  and  O_2
REMARK    2  A    between atoms: O_2  and  C_3
REMARK    3  A    between atoms: C_4  and  O_5
REMARK    4  A    between atoms: O_5  and  C_6
REMARK    5  A    between atoms: C_6  and  C_7
REMARK    6  A    between atoms: C_7  and  C_8
REMARK    7  A    between atoms: C_8  and  N_9
REMARK    8  A    between atoms: N_21  and  C_22
REMARK                            x       y       z     vdW  Elec       q    Type
REMARK                         _______ _______ _______ _____ _____    ______ ____
ROOT
ATOM      1  C   UNL     1       8.299  -1.506  24.271  0.00  0.00    +0.162 A 
ATOM      2  C   UNL     1       7.327  -2.392  24.734  0.00  0.00    +0.062 A 
ATOM      3  C   UNL     1       6.898  -3.497  23.955  0.00  0.00    +0.044 A 
ATOM      4  C   UNL     1       7.478  -3.708  22.690  0.00  0.00    +0.080 A 
ATOM      5  N   UNL     1       7.177  -4.748  21.918  0.00  0.00    -0.235 NA
ATOM      6  C   UNL     1       6.286  -5.606  22.411  0.00  0.00    +0.223 A 
ATOM      7  N   UNL     1       5.647  -5.489  23.574  0.00  0.00    -0.220 NA
ATOM      8  C   UNL     1       8.450  -2.832  22.242  0.00  0.00    +0.078 A 
ATOM      9  C   UNL     1       5.923  -4.437  24.350  0.00  0.00    +0.134 A 
ATOM     10  N   UNL     1       5.320  -4.326  25.624  0.00  0.00    -0.295 N 
ATOM     11  H   UNL     1       5.147  -3.366  25.898  0.00  0.00    +0.154 HD
ATOM     12  C   UNL     1       8.890  -1.760  23.021  0.00  0.00    +0.164 A 
ENDROOT
BRANCH  10  13
ATOM     13  C   UNL     1       4.605  -5.227  26.447  0.00  0.00    +0.097 A 
ATOM     14  C   UNL     1       5.112  -5.916  27.544  0.00  0.00    +0.189 A 
ATOM     15  O   UNL     1       6.419  -6.063  27.895  0.00  0.00    -0.451 OA
ATOM     16  C   UNL     1       6.327  -6.715  29.161  0.00  0.00    +0.466 C 
ATOM     17  O   UNL     1       5.001  -7.192  29.444  0.00  0.00    -0.453 OA
ATOM     18  C   UNL     1       4.306  -6.616  28.425  0.00  0.00    +0.168 A 
ATOM     19  C   UNL     1       2.940  -6.706  28.266  0.00  0.00    +0.051 A 
ATOM     20  C   UNL     1       2.382  -6.067  27.162  0.00  0.00    +0.025 A 
ATOM     21  C   UNL     1       3.199  -5.338  26.275  0.00  0.00    +0.066 A 
ATOM     22 CL   UNL     1       2.415  -4.545  24.942  0.00  0.00    -0.081 Cl
ENDBRANCH  10  13
BRANCH   1  24
ATOM     23  C   UNL     1       8.993  -0.542  26.384  0.00  0.00    +0.277 C 
ATOM     24  O   UNL     1       8.745  -0.435  24.988  0.00  0.00    -0.491 OA
ENDBRANCH   1  24
BRANCH  12  25
ATOM     25  O   UNL     1       9.906  -1.032  22.440  0.00  0.00    -0.488 OA
BRANCH  25  26
ATOM     26  C   UNL     1       9.418  -0.056  21.521  0.00  0.00    +0.230 C 
BRANCH  26  27
ATOM     27  C   UNL     1       9.828   1.362  21.926  0.00  0.00    +0.056 C 
BRANCH  27  28
ATOM     28  C   UNL     1       8.534   2.186  21.971  0.00  0.00    +0.087 C 
BRANCH  28  29
ATOM     29  N   UNL     1       8.006   2.558  23.289  0.00  0.00    -0.302 NA
ATOM     30  C   UNL     1       6.960   3.592  23.138  0.00  0.00    +0.084 C 
ATOM     31  C   UNL     1       7.494   4.969  22.718  0.00  0.00    +0.015 C 
ATOM     32  C   UNL     1       8.612   5.442  23.642  0.00  0.00    +0.002 C 
ATOM     33  C   UNL     1       9.671   4.360  23.836  0.00  0.00    +0.015 C 
ATOM     34  C   UNL     1       9.029   3.029  24.235  0.00  0.00    +0.084 C 
ENDBRANCH  28  29
ENDBRANCH  27  28
ENDBRANCH  26  27
ENDBRANCH  25  26
ENDBRANCH  12  25
TORSDOF 7
ENDMDL
