MODEL 1
REMARK VINA RESULT:      -3.4      0.000      0.000
REMARK  Name = 
REMARK  5 active torsions:
REMARK  status: ('A' for Active; 'I' for Inactive)
REMARK    1  A    between atoms: N_1  and  CA_2
REMARK    2  A    between atoms: CA_2  and  CB_4
REMARK    3  A    between atoms: CA_2  and  C_6
REMARK    4  A    between atoms: CB_4  and  SG_5
REMARK    5  A    between atoms: C_6  and  O_7
REMARK                            x       y       z     vdW  Elec       q    Type
REMARK                         _______ _______ _______ _____ _____    ______ ____
ROOT
ATOM      1  CA  CYS A   1       9.058  -4.637  25.524  0.00  0.00    +0.170 C 
ENDROOT
BRANCH   1   2
ATOM      2  N   CYS A   1      10.150  -5.658  25.374  0.00  0.00    -0.318 NA
ATOM      3  H1  CYS A   1      10.970  -5.319  25.889  0.00  0.00    +0.119 HD
ATOM      4  H2  CYS A   1       9.862  -6.473  25.933  0.00  0.00    +0.119 HD
ENDBRANCH   1   2
BRANCH   1   5
ATOM      5  C   CYS A   1       7.829  -5.334  26.125  0.00  0.00    +0.323 C 
ATOM      6  OXT CYS A   1       6.751  -5.465  25.566  0.00  0.00    -0.249 OA
BRANCH   5   7
ATOM      7  O   CYS A   1       8.079  -5.783  27.383  0.00  0.00    -0.480 OA
ATOM      8  H   CYS A   1       8.473  -5.013  27.869  0.00  0.00    +0.295 HD
ENDBRANCH   5   7
ENDBRANCH   1   5
BRANCH   1   9
ATOM      9  CB  CYS A   1       8.659  -3.975  24.200  0.00  0.00    +0.095 C 
BRANCH   9  10
ATOM     10  SG  CYS A   1       9.628  -2.462  23.877  0.00  0.00    -0.176 S 
ATOM     11  HG  CYS A   1      10.802  -3.075  23.657  0.00  0.00    +0.102 HD
ENDBRANCH   9  10
ENDBRANCH   1   9
TORSDOF 5
ENDMDL
MODEL 2
REMARK VINA RESULT:      -3.3      2.063      2.249
REMARK  Name = 
REMARK  5 active torsions:
REMARK  status: ('A' for Active; 'I' for Inactive)
REMARK    1  A    between atoms: N_1  and  CA_2
REMARK    2  A    between atoms: CA_2  and  CB_4
REMARK    3  A    between atoms: CA_2  and  C_6
REMARK    4  A    between atoms: CB_4  and  SG_5
REMARK    5  A    between atoms: C_6  and  O_7
REMARK                            x       y       z     vdW  Elec       q    Type
REMARK                         _______ _______ _______ _____ _____    ______ ____
ROOT
ATOM      1  CA  CYS A   1       8.085  -4.763  26.078  0.00  0.00    +0.170 C 
ENDROOT
BRANCH   1   2
ATOM      2  N   CYS A   1       8.085  -5.733  27.226  0.00  0.00    -0.318 NA
ATOM      3  H1  CYS A   1       7.248  -6.319  27.142  0.00  0.00    +0.119 HD
ATOM      4  H2  CYS A   1       8.842  -6.405  27.036  0.00  0.00    +0.119 HD
ENDBRANCH   1   2
BRANCH   1   5
ATOM      5  C   CYS A   1       9.011  -5.313  24.984  0.00  0.00    +0.323 C 
ATOM      6  OXT CYS A   1       8.682  -5.536  23.830  0.00  0.00    -0.249 OA
BRANCH   5   7
ATOM      7  O   CYS A   1      10.262  -5.541  25.462  0.00  0.00    -0.480 OA
ATOM      8  H   CYS A   1      10.278  -5.147  26.372  0.00  0.00    +0.295 HD
ENDBRANCH   5   7
ENDBRANCH   1   5
BRANCH   1   9
ATOM      9  CB  CYS A   1       8.556  -3.357  26.471  0.00  0.00    +0.095 C 
BRANCH   9  10
ATOM     10  SG  CYS A   1       8.440  -2.187  25.074  0.00  0.00    -0.176 S 
ATOM     11  HG  CYS A   1       9.628  -1.594  25.271  0.00  0.00    +0.102 HD
ENDBRANCH   9  10
ENDBRANCH   1   9
TORSDOF 5
ENDMDL
MODEL 3
REMARK VINA RESULT:      -3.2      2.598      2.768
REMARK  Name = 
REMARK  5 active torsions:
REMARK  status: ('A' for Active; 'I' for Inactive)
REMARK    1  A    between atoms: N_1  and  CA_2
REMARK    2  A    between atoms: CA_2  and  CB_4
REMARK    3  A    between atoms: CA_2  and  C_6
REMARK    4  A    between atoms: CB_4  and  SG_5
REMARK    5  A    between atoms: C_6  and  O_7
REMARK                            x       y       z     vdW  Elec       q    Type
REMARK                         _______ _______ _______ _____ _____    ______ ____
ROOT
ATOM      1  CA  CYS A   1       8.001  -5.258  25.740  0.00  0.00    +0.170 C 
ENDROOT
BRANCH   1   2
ATOM      2  N   CYS A   1       8.135  -5.643  27.185  0.00  0.00    -0.318 NA
ATOM      3  H1  CYS A   1       8.064  -6.665  27.247  0.00  0.00    +0.119 HD
ATOM      4  H2  CYS A   1       9.120  -5.478  27.438  0.00  0.00    +0.119 HD
ENDBRANCH   1   2
BRANCH   1   5
ATOM      5  C   CYS A   1       9.391  -4.877  25.213  0.00  0.00    +0.323 C 
ATOM      6  OXT CYS A   1       9.619  -3.988  24.407  0.00  0.00    -0.249 OA
BRANCH   5   7
ATOM      7  O   CYS A   1      10.358  -5.668  25.746  0.00  0.00    -0.480 OA
ATOM      8  H   CYS A   1      11.140  -5.578  25.143  0.00  0.00    +0.295 HD
ENDBRANCH   5   7
ENDBRANCH   1   5
BRANCH   1   9
ATOM      9  CB  CYS A   1       7.040  -4.085  25.510  0.00  0.00    +0.095 C 
BRANCH   9  10
ATOM     10  SG  CYS A   1       5.944  -4.375  24.079  0.00  0.00    -0.176 S 
ATOM     11  HG  CYS A   1       6.159  -5.696  23.985  0.00  0.00    +0.102 HD
ENDBRANCH   9  10
ENDBRANCH   1   9
TORSDOF 5
ENDMDL
MODEL 4
REMARK VINA RESULT:      -3.2      6.626      6.965
REMARK  Name = 
REMARK  5 active torsions:
REMARK  status: ('A' for Active; 'I' for Inactive)
REMARK    1  A    between atoms: N_1  and  CA_2
REMARK    2  A    between atoms: CA_2  and  CB_4
REMARK    3  A    between atoms: CA_2  and  C_6
REMARK    4  A    between atoms: CB_4  and  SG_5
REMARK    5  A    between atoms: C_6  and  O_7
REMARK                            x       y       z     vdW  Elec       q    Type
REMARK                         _______ _______ _______ _____ _____    ______ ____
ROOT
ATOM      1  CA  CYS A   1       9.316  -0.001  22.276  0.00  0.00    +0.170 C 
ENDROOT
BRANCH   1   2
ATOM      2  N   CYS A   1       9.631  -0.921  21.130  0.00  0.00    -0.318 NA
ATOM      3  H1  CYS A   1      10.633  -0.840  20.928  0.00  0.00    +0.119 HD
ATOM      4  H2  CYS A   1       9.559  -1.879  21.500  0.00  0.00    +0.119 HD
ENDBRANCH   1   2
BRANCH   1   5
ATOM      5  C   CYS A   1       9.018   1.392  21.706  0.00  0.00    +0.323 C 
ATOM      6  OXT CYS A   1       7.912   1.800  21.387  0.00  0.00    -0.249 OA
BRANCH   5   7
ATOM      7  O   CYS A   1      10.152   2.130  21.579  0.00  0.00    -0.480 OA
ATOM      8  H   CYS A   1      10.499   2.247  22.500  0.00  0.00    +0.295 HD
ENDBRANCH   5   7
ENDBRANCH   1   5
BRANCH   1   9
ATOM      9  CB  CYS A   1      10.455   0.110  23.296  0.00  0.00    +0.095 C 
BRANCH   9  10
ATOM     10  SG  CYS A   1       9.838   0.052  25.013  0.00  0.00    -0.176 S 
ATOM     11  HG  CYS A   1       9.715  -1.282  25.087  0.00  0.00    +0.102 HD
ENDBRANCH   9  10
ENDBRANCH   1   9
TORSDOF 5
ENDMDL
MODEL 5
REMARK VINA RESULT:      -3.2      6.194      6.825
REMARK  Name = 
REMARK  5 active torsions:
REMARK  status: ('A' for Active; 'I' for Inactive)
REMARK    1  A    between atoms: N_1  and  CA_2
REMARK    2  A    between atoms: CA_2  and  CB_4
REMARK    3  A    between atoms: CA_2  and  C_6
REMARK    4  A    between atoms: CB_4  and  SG_5
REMARK    5  A    between atoms: C_6  and  O_7
REMARK                            x       y       z     vdW  Elec       q    Type
REMARK                         _______ _______ _______ _____ _____    ______ ____
ROOT
ATOM      1  CA  CYS A   1       9.484   0.079  22.668  0.00  0.00    +0.170 C 
ENDROOT
BRANCH   1   2
ATOM      2  N   CYS A   1       9.782  -0.589  21.356  0.00  0.00    -0.318 NA
ATOM      3  H1  CYS A   1      10.549  -0.076  20.908  0.00  0.00    +0.119 HD
ATOM      4  H2  CYS A   1      10.226  -1.490  21.585  0.00  0.00    +0.119 HD
ENDBRANCH   1   2
BRANCH   1   5
ATOM      5  C   CYS A   1      10.055   1.503  22.622  0.00  0.00    +0.323 C 
ATOM      6  OXT CYS A   1      10.623   2.064  23.546  0.00  0.00    -0.249 OA
BRANCH   5   7
ATOM      7  O   CYS A   1       9.839   2.086  21.414  0.00  0.00    -0.480 OA
ATOM      8  H   CYS A   1       8.878   2.329  21.402  0.00  0.00    +0.295 HD
ENDBRANCH   5   7
ENDBRANCH   1   5
BRANCH   1   9
ATOM      9  CB  CYS A   1      10.077  -0.658  23.875  0.00  0.00    +0.095 C 
BRANCH   9  10
ATOM     10  SG  CYS A   1       9.704  -2.445  23.830  0.00  0.00    -0.176 S 
ATOM     11  HG  CYS A   1       9.887  -2.608  22.511  0.00  0.00    +0.102 HD
ENDBRANCH   9  10
ENDBRANCH   1   9
TORSDOF 5
ENDMDL
MODEL 6
REMARK VINA RESULT:      -3.1      1.944      2.049
REMARK  Name = 
REMARK  5 active torsions:
REMARK  status: ('A' for Active; 'I' for Inactive)
REMARK    1  A    between atoms: N_1  and  CA_2
REMARK    2  A    between atoms: CA_2  and  CB_4
REMARK    3  A    between atoms: CA_2  and  C_6
REMARK    4  A    between atoms: CB_4  and  SG_5
REMARK    5  A    between atoms: C_6  and  O_7
REMARK                            x       y       z     vdW  Elec       q    Type
REMARK                         _______ _______ _______ _____ _____    ______ ____
ROOT
ATOM      1  CA  CYS A   1       8.513  -4.220  24.648  0.00  0.00    +0.170 C 
ENDROOT
BRANCH   1   2
ATOM      2  N   CYS A   1       9.829  -3.594  24.284  0.00  0.00    -0.318 NA
ATOM      3  H1  CYS A   1      10.442  -4.335  23.928  0.00  0.00    +0.119 HD
ATOM      4  H2  CYS A   1       9.656  -3.029  23.440  0.00  0.00    +0.119 HD
ENDBRANCH   1   2
BRANCH   1   5
ATOM      5  C   CYS A   1       8.775  -5.316  25.690  0.00  0.00    +0.323 C 
ATOM      6  OXT CYS A   1       7.945  -5.761  26.468  0.00  0.00    -0.249 OA
BRANCH   5   7
ATOM      7  O   CYS A   1      10.067  -5.733  25.657  0.00  0.00    -0.480 OA
ATOM      8  H   CYS A   1      10.502  -5.203  24.941  0.00  0.00    +0.295 HD
ENDBRANCH   5   7
ENDBRANCH   1   5
BRANCH   1   9
ATOM      9  CB  CYS A   1       7.779  -4.835  23.450  0.00  0.00    +0.095 C 
BRANCH   9  10
ATOM     10  SG  CYS A   1       7.026  -3.557  22.386  0.00  0.00    -0.176 S 
ATOM     11  HG  CYS A   1       6.795  -2.662  23.359  0.00  0.00    +0.102 HD
ENDBRANCH   9  10
ENDBRANCH   1   9
TORSDOF 5
ENDMDL
MODEL 7
REMARK VINA RESULT:      -3.1      5.200      5.764
REMARK  Name = 
REMARK  5 active torsions:
REMARK  status: ('A' for Active; 'I' for Inactive)
REMARK    1  A    between atoms: N_1  and  CA_2
REMARK    2  A    between atoms: CA_2  and  CB_4
REMARK    3  A    between atoms: CA_2  and  C_6
REMARK    4  A    between atoms: CB_4  and  SG_5
REMARK    5  A    between atoms: C_6  and  O_7
REMARK                            x       y       z     vdW  Elec       q    Type
REMARK                         _______ _______ _______ _____ _____    ______ ____
ROOT
ATOM      1  CA  CYS A   1       9.816  -0.025  23.242  0.00  0.00    +0.170 C 
ENDROOT
BRANCH   1   2
ATOM      2  N   CYS A   1      10.815   0.355  24.298  0.00  0.00    -0.318 NA
ATOM      3  H1  CYS A   1      10.585  -0.165  25.151  0.00  0.00    +0.119 HD
ATOM      4  H2  CYS A   1      11.709  -0.073  24.016  0.00  0.00    +0.119 HD
ENDBRANCH   1   2
BRANCH   1   5
ATOM      5  C   CYS A   1      10.101  -1.469  22.808  0.00  0.00    +0.323 C 
ATOM      6  OXT CYS A   1      10.217  -2.422  23.563  0.00  0.00    -0.249 OA
BRANCH   5   7
ATOM      7  O   CYS A   1      10.229  -1.565  21.459  0.00  0.00    -0.480 OA
ATOM      8  H   CYS A   1       9.746  -0.783  21.087  0.00  0.00    +0.295 HD
ENDBRANCH   5   7
ENDBRANCH   1   5
BRANCH   1   9
ATOM      9  CB  CYS A   1       9.858   0.885  22.009  0.00  0.00    +0.095 C 
BRANCH   9  10
ATOM     10  SG  CYS A   1       8.266   1.736  21.737  0.00  0.00    -0.176 S 
ATOM     11  HG  CYS A   1       7.834   0.941  20.746  0.00  0.00    +0.102 HD
ENDBRANCH   9  10
ENDBRANCH   1   9
TORSDOF 5
ENDMDL
MODEL 8
REMARK VINA RESULT:      -3.0      6.240      6.684
REMARK  Name = 
REMARK  5 active torsions:
REMARK  status: ('A' for Active; 'I' for Inactive)
REMARK    1  A    between atoms: N_1  and  CA_2
REMARK    2  A    between atoms: CA_2  and  CB_4
REMARK    3  A    between atoms: CA_2  and  C_6
REMARK    4  A    between atoms: CB_4  and  SG_5
REMARK    5  A    between atoms: C_6  and  O_7
REMARK                            x       y       z     vdW  Elec       q    Type
REMARK                         _______ _______ _______ _____ _____    ______ ____
ROOT
ATOM      1  CA  CYS A   1       9.795   0.863  22.665  0.00  0.00    +0.170 C 
ENDROOT
BRANCH   1   2
ATOM      2  N   CYS A   1       9.797   1.847  21.530  0.00  0.00    -0.318 NA
ATOM      3  H1  CYS A   1       9.984   2.777  21.920  0.00  0.00    +0.119 HD
ATOM      4  H2  CYS A   1      10.653   1.661  20.989  0.00  0.00    +0.119 HD
ENDBRANCH   1   2
BRANCH   1   5
ATOM      5  C   CYS A   1       9.970  -0.545  22.080  0.00  0.00    +0.323 C 
ATOM      6  OXT CYS A   1      10.523  -1.477  22.644  0.00  0.00    -0.249 OA
BRANCH   5   7
ATOM      7  O   CYS A   1       9.443  -0.634  20.832  0.00  0.00    -0.480 OA
ATOM      8  H   CYS A   1       9.321   0.301  20.525  0.00  0.00    +0.295 HD
ENDBRANCH   5   7
ENDBRANCH   1   5
BRANCH   1   9
ATOM      9  CB  CYS A   1       8.508   0.901  23.499  0.00  0.00    +0.095 C 
BRANCH   9  10
ATOM     10  SG  CYS A   1       7.103   1.577  22.550  0.00  0.00    -0.176 S 
ATOM     11  HG  CYS A   1       6.284   0.527  22.718  0.00  0.00    +0.102 HD
ENDBRANCH   9  10
ENDBRANCH   1   9
TORSDOF 5
ENDMDL
MODEL 9
REMARK VINA RESULT:      -3.0      1.858      2.158
REMARK  Name = 
REMARK  5 active torsions:
REMARK  status: ('A' for Active; 'I' for Inactive)
REMARK    1  A    between atoms: N_1  and  CA_2
REMARK    2  A    between atoms: CA_2  and  CB_4
REMARK    3  A    between atoms: CA_2  and  C_6
REMARK    4  A    between atoms: CB_4  and  SG_5
REMARK    5  A    between atoms: C_6  and  O_7
REMARK                            x       y       z     vdW  Elec       q    Type
REMARK                         _______ _______ _______ _____ _____    ______ ____
ROOT
ATOM      1  CA  CYS A   1       8.402  -4.533  24.549  0.00  0.00    +0.170 C 
ENDROOT
BRANCH   1   2
ATOM      2  N   CYS A   1       7.072  -5.201  24.749  0.00  0.00    -0.318 NA
ATOM      3  H1  CYS A   1       6.506  -4.600  25.358  0.00  0.00    +0.119 HD
ATOM      4  H2  CYS A   1       6.575  -5.130  23.850  0.00  0.00    +0.119 HD
ENDBRANCH   1   2
BRANCH   1   5
ATOM      5  C   CYS A   1       9.293  -4.866  25.754  0.00  0.00    +0.323 C 
ATOM      6  OXT CYS A   1       9.072  -4.531  26.907  0.00  0.00    -0.249 OA
BRANCH   5   7
ATOM      7  O   CYS A   1      10.388  -5.578  25.379  0.00  0.00    -0.480 OA
ATOM      8  H   CYS A   1      10.816  -5.875  26.223  0.00  0.00    +0.295 HD
ENDBRANCH   5   7
ENDBRANCH   1   5
BRANCH   1   9
ATOM      9  CB  CYS A   1       8.302  -3.009  24.409  0.00  0.00    +0.095 C 
BRANCH   9  10
ATOM     10  SG  CYS A   1       9.829  -2.287  23.717  0.00  0.00    -0.176 S 
ATOM     11  HG  CYS A   1       9.444  -2.314  22.432  0.00  0.00    +0.102 HD
ENDBRANCH   9  10
ENDBRANCH   1   9
TORSDOF 5
ENDMDL
