MODEL 1
REMARK VINA RESULT:      -5.1      0.000      0.000
REMARK  Name = 
REMARK  6 active torsions:
REMARK  status: ('A' for Active; 'I' for Inactive)
REMARK    1  A    between atoms: C_1  and  C_2
REMARK    2  A    between atoms: C_2  and  C_3
REMARK    3  A    between atoms: C_5  and  C_6
REMARK    4  A    between atoms: C_6  and  C_7
REMARK    5  A    between atoms: C_11  and  C_12
REMARK    6  A    between atoms: C_13  and  O_14
REMARK                            x       y       z     vdW  Elec       q    Type
REMARK                         _______ _______ _______ _____ _____    ______ ____
ROOT
ATOM      1  C   UNL     1       7.567  -2.596  24.352  0.00  0.00    +0.097 C 
ATOM      2  C   UNL     1       6.662  -2.976  25.533  0.00  0.00    +0.036 C 
ATOM      3  C   UNL     1       8.031  -3.891  23.697  0.00  0.00    +0.121 C 
ATOM      4  C   UNL     1       7.324  -4.360  22.656  0.00  0.00    +0.042 C 
ATOM      5  C   UNL     1       7.444  -5.680  21.982  0.00  0.00    +0.052 C 
ATOM      6  C   UNL     1       6.257  -3.417  22.267  0.00  0.00    +0.220 C 
ATOM      7  O   UNL     1       5.353  -3.670  21.490  0.00  0.00    -0.280 OA
ATOM      8  S   UNL     1       6.447  -1.875  23.071  0.00  0.00    -0.065 S 
ENDROOT
BRANCH   1  11
ATOM      9  C   UNL     1       9.780  -1.489  22.300  0.00  0.00    +0.043 C 
ATOM     10  C   UNL     1       9.663  -1.114  23.753  0.00  0.00    -0.053 C 
ATOM     11  C   UNL     1       8.703  -1.606  24.578  0.00  0.00    +0.001 C 
BRANCH  10  12
ATOM     12  C   UNL     1      10.637  -0.169  24.311  0.00  0.00    -0.005 C 
ATOM     13  C   UNL     1      10.646   1.167  24.205  0.00  0.00    +0.009 C 
ENDBRANCH  10  12
ENDBRANCH   1  11
BRANCH   3  14
ATOM     14  O   UNL     1       9.095  -4.552  24.275  0.00  0.00    -0.509 OA
ATOM     15  H   UNL     1       9.547  -5.094  23.604  0.00  0.00    +0.292 HD
ENDBRANCH   3  14
TORSDOF 3
ENDMDL
MODEL 2
REMARK VINA RESULT:      -5.1      2.708      5.055
REMARK  Name = 
REMARK  6 active torsions:
REMARK  status: ('A' for Active; 'I' for Inactive)
REMARK    1  A    between atoms: C_1  and  C_2
REMARK    2  A    between atoms: C_2  and  C_3
REMARK    3  A    between atoms: C_5  and  C_6
REMARK    4  A    between atoms: C_6  and  C_7
REMARK    5  A    between atoms: C_11  and  C_12
REMARK    6  A    between atoms: C_13  and  O_14
REMARK                            x       y       z     vdW  Elec       q    Type
REMARK                         _______ _______ _______ _____ _____    ______ ____
ROOT
ATOM      1  C   UNL     1       8.454  -1.961  23.219  0.00  0.00    +0.097 C 
ATOM      2  C   UNL     1       8.929  -1.851  24.675  0.00  0.00    +0.036 C 
ATOM      3  C   UNL     1       7.401  -0.882  23.001  0.00  0.00    +0.121 C 
ATOM      4  C   UNL     1       7.802   0.297  22.499  0.00  0.00    +0.042 C 
ATOM      5  C   UNL     1       7.024   1.559  22.381  0.00  0.00    +0.052 C 
ATOM      6  C   UNL     1       9.232   0.265  22.134  0.00  0.00    +0.220 C 
ATOM      7  O   UNL     1       9.898   1.241  21.840  0.00  0.00    -0.280 OA
ATOM      8  S   UNL     1       9.863  -1.366  22.183  0.00  0.00    -0.065 S 
ENDROOT
BRANCH   1  11
ATOM      9  C   UNL     1       6.910  -4.373  24.681  0.00  0.00    +0.043 C 
ATOM     10  C   UNL     1       7.386  -4.371  23.253  0.00  0.00    -0.053 C 
ATOM     11  C   UNL     1       8.029  -3.321  22.680  0.00  0.00    +0.001 C 
BRANCH  10  12
ATOM     12  C   UNL     1       7.147  -5.566  22.436  0.00  0.00    -0.005 C 
ATOM     13  C   UNL     1       6.507  -5.648  21.260  0.00  0.00    +0.009 C 
ENDBRANCH  10  12
ENDBRANCH   1  11
BRANCH   3  14
ATOM     14  O   UNL     1       6.115  -1.151  23.422  0.00  0.00    -0.509 OA
ATOM     15  H   UNL     1       6.134  -1.828  24.122  0.00  0.00    +0.292 HD
ENDBRANCH   3  14
TORSDOF 3
ENDMDL
MODEL 3
REMARK VINA RESULT:      -5.0      2.614      4.263
REMARK  Name = 
REMARK  6 active torsions:
REMARK  status: ('A' for Active; 'I' for Inactive)
REMARK    1  A    between atoms: C_1  and  C_2
REMARK    2  A    between atoms: C_2  and  C_3
REMARK    3  A    between atoms: C_5  and  C_6
REMARK    4  A    between atoms: C_6  and  C_7
REMARK    5  A    between atoms: C_11  and  C_12
REMARK    6  A    between atoms: C_13  and  O_14
REMARK                            x       y       z     vdW  Elec       q    Type
REMARK                         _______ _______ _______ _____ _____    ______ ____
ROOT
ATOM      1  C   UNL     1       8.914   0.433  23.041  0.00  0.00    +0.097 C 
ATOM      2  C   UNL     1       9.332   0.519  21.566  0.00  0.00    +0.036 C 
ATOM      3  C   UNL     1       7.799  -0.601  23.139  0.00  0.00    +0.121 C 
ATOM      4  C   UNL     1       8.136  -1.866  23.439  0.00  0.00    +0.042 C 
ATOM      5  C   UNL     1       7.279  -3.081  23.397  0.00  0.00    +0.052 C 
ATOM      6  C   UNL     1       9.577  -1.978  23.741  0.00  0.00    +0.220 C 
ATOM      7  O   UNL     1      10.185  -3.027  23.854  0.00  0.00    -0.280 OA
ATOM      8  S   UNL     1      10.315  -0.401  23.913  0.00  0.00    -0.065 S 
ENDROOT
BRANCH   1  11
ATOM      9  C   UNL     1      10.672   3.100  23.399  0.00  0.00    +0.043 C 
ATOM     10  C   UNL     1       9.307   2.861  23.986  0.00  0.00    -0.053 C 
ATOM     11  C   UNL     1       8.601   1.716  23.799  0.00  0.00    +0.001 C 
BRANCH  10  12
ATOM     12  C   UNL     1       8.705   3.919  24.806  0.00  0.00    -0.005 C 
ATOM     13  C   UNL     1       7.757   3.797  25.746  0.00  0.00    +0.009 C 
ENDBRANCH  10  12
ENDBRANCH   1  11
BRANCH   3  14
ATOM     14  O   UNL     1       6.521  -0.192  22.821  0.00  0.00    -0.509 OA
ATOM     15  H   UNL     1       6.282  -0.521  21.936  0.00  0.00    +0.292 HD
ENDBRANCH   3  14
TORSDOF 3
ENDMDL
MODEL 4
REMARK VINA RESULT:      -5.0      2.865      4.580
REMARK  Name = 
REMARK  6 active torsions:
REMARK  status: ('A' for Active; 'I' for Inactive)
REMARK    1  A    between atoms: C_1  and  C_2
REMARK    2  A    between atoms: C_2  and  C_3
REMARK    3  A    between atoms: C_5  and  C_6
REMARK    4  A    between atoms: C_6  and  C_7
REMARK    5  A    between atoms: C_11  and  C_12
REMARK    6  A    between atoms: C_13  and  O_14
REMARK                            x       y       z     vdW  Elec       q    Type
REMARK                         _______ _______ _______ _____ _____    ______ ____
ROOT
ATOM      1  C   UNL     1       9.444   0.505  23.442  0.00  0.00    +0.097 C 
ATOM      2  C   UNL     1       8.133   0.648  22.655  0.00  0.00    +0.036 C 
ATOM      3  C   UNL     1       9.081   0.068  24.855  0.00  0.00    +0.121 C 
ATOM      4  C   UNL     1       9.086  -1.246  25.130  0.00  0.00    +0.042 C 
ATOM      5  C   UNL     1       8.586  -1.933  26.351  0.00  0.00    +0.052 C 
ATOM      6  C   UNL     1       9.579  -2.031  23.981  0.00  0.00    +0.220 C 
ATOM      7  O   UNL     1       9.508  -3.243  23.883  0.00  0.00    -0.280 OA
ATOM      8  S   UNL     1      10.281  -0.994  22.758  0.00  0.00    -0.065 S 
ENDROOT
BRANCH   1  11
ATOM      9  C   UNL     1       8.973   3.682  23.578  0.00  0.00    +0.043 C 
ATOM     10  C   UNL     1      10.307   2.995  23.461  0.00  0.00    -0.053 C 
ATOM     11  C   UNL     1      10.453   1.646  23.414  0.00  0.00    +0.001 C 
BRANCH  10  12
ATOM     12  C   UNL     1      11.515   3.825  23.391  0.00  0.00    -0.005 C 
ATOM     13  C   UNL     1      11.610   5.158  23.505  0.00  0.00    +0.009 C 
ENDBRANCH  10  12
ENDBRANCH   1  11
BRANCH   3  14
ATOM     14  O   UNL     1       8.679   1.046  25.741  0.00  0.00    -0.509 OA
ATOM     15  H   UNL     1       8.974   1.918  25.424  0.00  0.00    +0.292 HD
ENDBRANCH   3  14
TORSDOF 3
ENDMDL
MODEL 5
REMARK VINA RESULT:      -4.9      2.456      2.920
REMARK  Name = 
REMARK  6 active torsions:
REMARK  status: ('A' for Active; 'I' for Inactive)
REMARK    1  A    between atoms: C_1  and  C_2
REMARK    2  A    between atoms: C_2  and  C_3
REMARK    3  A    between atoms: C_5  and  C_6
REMARK    4  A    between atoms: C_6  and  C_7
REMARK    5  A    between atoms: C_11  and  C_12
REMARK    6  A    between atoms: C_13  and  O_14
REMARK                            x       y       z     vdW  Elec       q    Type
REMARK                         _______ _______ _______ _____ _____    ______ ____
ROOT
ATOM      1  C   UNL     1       8.309  -4.084  25.256  0.00  0.00    +0.097 C 
ATOM      2  C   UNL     1       9.501  -5.036  25.079  0.00  0.00    +0.036 C 
ATOM      3  C   UNL     1       7.260  -4.469  24.220  0.00  0.00    +0.121 C 
ATOM      4  C   UNL     1       6.290  -5.320  24.591  0.00  0.00    +0.042 C 
ATOM      5  C   UNL     1       5.283  -5.998  23.732  0.00  0.00    +0.052 C 
ATOM      6  C   UNL     1       6.376  -5.634  26.031  0.00  0.00    +0.220 C 
ATOM      7  O   UNL     1       5.751  -6.517  26.590  0.00  0.00    -0.280 OA
ATOM      8  S   UNL     1       7.504  -4.574  26.846  0.00  0.00    -0.065 S 
ENDROOT
BRANCH   1  11
ATOM      9  C   UNL     1      10.175  -2.232  23.407  0.00  0.00    +0.043 C 
ATOM     10  C   UNL     1       9.341  -1.759  24.567  0.00  0.00    -0.053 C 
ATOM     11  C   UNL     1       8.562  -2.583  25.314  0.00  0.00    +0.001 C 
BRANCH  10  12
ATOM     12  C   UNL     1       9.371  -0.334  24.912  0.00  0.00    -0.005 C 
ATOM     13  C   UNL     1      10.424   0.497  24.906  0.00  0.00    +0.009 C 
ENDBRANCH  10  12
ENDBRANCH   1  11
BRANCH   3  14
ATOM     14  O   UNL     1       7.427  -3.991  22.937  0.00  0.00    -0.509 OA
ATOM     15  H   UNL     1       7.202  -3.044  22.908  0.00  0.00    +0.292 HD
ENDBRANCH   3  14
TORSDOF 3
ENDMDL
MODEL 6
REMARK VINA RESULT:      -4.9      1.841      2.334
REMARK  Name = 
REMARK  6 active torsions:
REMARK  status: ('A' for Active; 'I' for Inactive)
REMARK    1  A    between atoms: C_1  and  C_2
REMARK    2  A    between atoms: C_2  and  C_3
REMARK    3  A    between atoms: C_5  and  C_6
REMARK    4  A    between atoms: C_6  and  C_7
REMARK    5  A    between atoms: C_11  and  C_12
REMARK    6  A    between atoms: C_13  and  O_14
REMARK                            x       y       z     vdW  Elec       q    Type
REMARK                         _______ _______ _______ _____ _____    ______ ____
ROOT
ATOM      1  C   UNL     1       7.267  -1.892  23.559  0.00  0.00    +0.097 C 
ATOM      2  C   UNL     1       5.951  -1.822  24.346  0.00  0.00    +0.036 C 
ATOM      3  C   UNL     1       8.301  -2.557  24.459  0.00  0.00    +0.121 C 
ATOM      4  C   UNL     1       8.475  -3.884  24.346  0.00  0.00    +0.042 C 
ATOM      5  C   UNL     1       9.260  -4.788  25.229  0.00  0.00    +0.052 C 
ATOM      6  C   UNL     1       7.672  -4.436  23.237  0.00  0.00    +0.220 C 
ATOM      7  O   UNL     1       7.489  -5.623  23.033  0.00  0.00    -0.280 OA
ATOM      8  S   UNL     1       7.001  -3.162  22.244  0.00  0.00    -0.065 S 
ENDROOT
BRANCH   1  11
ATOM      9  C   UNL     1      10.049  -1.377  22.033  0.00  0.00    +0.043 C 
ATOM     10  C   UNL     1       8.956  -0.363  22.234  0.00  0.00    -0.053 C 
ATOM     11  C   UNL     1       7.793  -0.633  22.881  0.00  0.00    +0.001 C 
BRANCH  10  12
ATOM     12  C   UNL     1       9.154   0.992  21.705  0.00  0.00    -0.005 C 
ATOM     13  C   UNL     1      10.052   1.907  22.094  0.00  0.00    +0.009 C 
ENDBRANCH  10  12
ENDBRANCH   1  11
BRANCH   3  14
ATOM     14  O   UNL     1       8.928  -1.769  25.401  0.00  0.00    -0.509 OA
ATOM     15  H   UNL     1       8.609  -2.003  26.291  0.00  0.00    +0.292 HD
ENDBRANCH   3  14
TORSDOF 3
ENDMDL
MODEL 7
REMARK VINA RESULT:      -4.9      2.564      5.246
REMARK  Name = 
REMARK  6 active torsions:
REMARK  status: ('A' for Active; 'I' for Inactive)
REMARK    1  A    between atoms: C_1  and  C_2
REMARK    2  A    between atoms: C_2  and  C_3
REMARK    3  A    between atoms: C_5  and  C_6
REMARK    4  A    between atoms: C_6  and  C_7
REMARK    5  A    between atoms: C_11  and  C_12
REMARK    6  A    between atoms: C_13  and  O_14
REMARK                            x       y       z     vdW  Elec       q    Type
REMARK                         _______ _______ _______ _____ _____    ______ ____
ROOT
ATOM      1  C   UNL     1       6.771  -4.727  23.260  0.00  0.00    +0.097 C 
ATOM      2  C   UNL     1       6.934  -5.279  21.836  0.00  0.00    +0.036 C 
ATOM      3  C   UNL     1       8.155  -4.325  23.753  0.00  0.00    +0.121 C 
ATOM      4  C   UNL     1       8.536  -3.047  23.590  0.00  0.00    +0.042 C 
ATOM      5  C   UNL     1       9.885  -2.455  23.798  0.00  0.00    +0.052 C 
ATOM      6  C   UNL     1       7.436  -2.227  23.044  0.00  0.00    +0.220 C 
ATOM      7  O   UNL     1       7.558  -1.092  22.620  0.00  0.00    -0.280 OA
ATOM      8  S   UNL     1       5.919  -3.098  23.074  0.00  0.00    -0.065 S 
ENDROOT
BRANCH   1  11
ATOM      9  C   UNL     1       3.809  -5.963  23.089  0.00  0.00    +0.043 C 
ATOM     10  C   UNL     1       4.742  -6.075  24.265  0.00  0.00    -0.053 C 
ATOM     11  C   UNL     1       5.989  -5.540  24.284  0.00  0.00    +0.001 C 
BRANCH  10  12
ATOM     12  C   UNL     1       4.281  -6.799  25.455  0.00  0.00    -0.005 C 
ATOM     13  C   UNL     1       4.810  -6.785  26.687  0.00  0.00    +0.009 C 
ENDBRANCH  10  12
ENDBRANCH   1  11
BRANCH   3  14
ATOM     14  O   UNL     1       8.969  -5.320  24.253  0.00  0.00    -0.509 OA
ATOM     15  H   UNL     1       8.888  -6.118  23.700  0.00  0.00    +0.292 HD
ENDBRANCH   3  14
TORSDOF 3
ENDMDL
MODEL 8
REMARK VINA RESULT:      -4.8      4.100      6.429
REMARK  Name = 
REMARK  6 active torsions:
REMARK  status: ('A' for Active; 'I' for Inactive)
REMARK    1  A    between atoms: C_1  and  C_2
REMARK    2  A    between atoms: C_2  and  C_3
REMARK    3  A    between atoms: C_5  and  C_6
REMARK    4  A    between atoms: C_6  and  C_7
REMARK    5  A    between atoms: C_11  and  C_12
REMARK    6  A    between atoms: C_13  and  O_14
REMARK                            x       y       z     vdW  Elec       q    Type
REMARK                         _______ _______ _______ _____ _____    ______ ____
ROOT
ATOM      1  C   UNL     1       8.219   1.871  23.016  0.00  0.00    +0.097 C 
ATOM      2  C   UNL     1       7.183   2.500  22.073  0.00  0.00    +0.036 C 
ATOM      3  C   UNL     1       9.519   2.649  22.847  0.00  0.00    +0.121 C 
ATOM      4  C   UNL     1       9.761   3.663  23.692  0.00  0.00    +0.042 C 
ATOM      5  C   UNL     1      10.838   4.686  23.617  0.00  0.00    +0.052 C 
ATOM      6  C   UNL     1       8.722   3.748  24.737  0.00  0.00    +0.220 C 
ATOM      7  O   UNL     1       8.586   4.680  25.510  0.00  0.00    -0.280 OA
ATOM      8  S   UNL     1       7.691   2.335  24.725  0.00  0.00    -0.065 S 
ENDROOT
BRANCH   1  11
ATOM      9  C   UNL     1      10.241   0.034  24.709  0.00  0.00    +0.043 C 
ATOM     10  C   UNL     1       9.263  -0.457  23.677  0.00  0.00    -0.053 C 
ATOM     11  C   UNL     1       8.423   0.362  22.992  0.00  0.00    +0.001 C 
BRANCH  10  12
ATOM     12  C   UNL     1       9.212  -1.895  23.390  0.00  0.00    -0.005 C 
ATOM     13  C   UNL     1       9.748  -2.898  24.100  0.00  0.00    +0.009 C 
ENDBRANCH  10  12
ENDBRANCH   1  11
BRANCH   3  14
ATOM     14  O   UNL     1      10.323   2.320  21.775  0.00  0.00    -0.509 OA
ATOM     15  H   UNL     1       9.845   2.486  20.943  0.00  0.00    +0.292 HD
ENDBRANCH   3  14
TORSDOF 3
ENDMDL
MODEL 9
REMARK VINA RESULT:      -4.8      2.628      5.010
REMARK  Name = 
REMARK  6 active torsions:
REMARK  status: ('A' for Active; 'I' for Inactive)
REMARK    1  A    between atoms: C_1  and  C_2
REMARK    2  A    between atoms: C_2  and  C_3
REMARK    3  A    between atoms: C_5  and  C_6
REMARK    4  A    between atoms: C_6  and  C_7
REMARK    5  A    between atoms: C_11  and  C_12
REMARK    6  A    between atoms: C_13  and  O_14
REMARK                            x       y       z     vdW  Elec       q    Type
REMARK                         _______ _______ _______ _____ _____    ______ ____
ROOT
ATOM      1  C   UNL     1       9.234  -1.033  23.918  0.00  0.00    +0.097 C 
ATOM      2  C   UNL     1      10.243  -1.499  22.858  0.00  0.00    +0.036 C 
ATOM      3  C   UNL     1       9.651   0.364  24.359  0.00  0.00    +0.121 C 
ATOM      4  C   UNL     1       9.083   1.415  23.745  0.00  0.00    +0.042 C 
ATOM      5  C   UNL     1       9.456   2.852  23.847  0.00  0.00    +0.052 C 
ATOM      6  C   UNL     1       8.035   0.980  22.801  0.00  0.00    +0.220 C 
ATOM      7  O   UNL     1       7.498   1.699  21.977  0.00  0.00    -0.280 OA
ATOM      8  S   UNL     1       7.657  -0.715  23.008  0.00  0.00    -0.065 S 
ENDROOT
BRANCH   1  11
ATOM      9  C   UNL     1       8.330  -4.118  23.931  0.00  0.00    +0.043 C 
ATOM     10  C   UNL     1       8.520  -3.252  25.148  0.00  0.00    -0.053 C 
ATOM     11  C   UNL     1       8.911  -1.953  25.088  0.00  0.00    +0.001 C 
BRANCH  10  12
ATOM     12  C   UNL     1       8.268  -3.839  26.468  0.00  0.00    -0.005 C 
ATOM     13  C   UNL     1       7.960  -5.111  26.763  0.00  0.00    +0.009 C 
ENDBRANCH  10  12
ENDBRANCH   1  11
BRANCH   3  14
ATOM     14  O   UNL     1      10.655   0.463  25.299  0.00  0.00    -0.509 OA
ATOM     15  H   UNL     1      11.216   1.234  25.100  0.00  0.00    +0.292 HD
ENDBRANCH   3  14
TORSDOF 3
ENDMDL
