MODEL 1
REMARK VINA RESULT:      -7.1      0.000      0.000
REMARK  Name = 
REMARK  3 active torsions:
REMARK  status: ('A' for Active; 'I' for Inactive)
REMARK    1  A    between atoms: C_1  and  C_2
REMARK    2  A    between atoms: C_3  and  C_8
REMARK    3  A    between atoms: C_15  and  C_17
REMARK                            x       y       z     vdW  Elec       q    Type
REMARK                         _______ _______ _______ _____ _____    ______ ____
ROOT
ATOM      1  C   UNL     1       7.822  -1.462  22.902  0.00  0.00    +0.048 A 
ATOM      2  N   UNL     1       8.178  -2.638  22.274  0.00  0.00    -0.354 N 
ATOM      3  H   UNL     1       9.070  -2.802  21.834  0.00  0.00    +0.166 HD
ATOM      4  C   UNL     1       7.192  -3.590  22.402  0.00  0.00    +0.047 A 
ATOM      5  C   UNL     1       7.184  -4.942  22.045  0.00  0.00    +0.027 A 
ATOM      6  C   UNL     1       6.019  -5.671  22.308  0.00  0.00    +0.018 A 
ATOM      7  C   UNL     1       4.893  -5.062  22.873  0.00  0.00    +0.065 A 
ATOM      8  C   UNL     1       4.920  -3.697  23.203  0.00  0.00    +0.026 A 
ATOM      9  C   UNL     1       6.099  -2.959  22.988  0.00  0.00    +0.001 A 
ATOM     10  C   UNL     1       6.493  -1.622  23.267  0.00  0.00    +0.036 A 
ENDROOT
BRANCH   1  17
ATOM     11  C   UNL     1       9.096  -0.592  25.584  0.00  0.00    +0.044 C 
ATOM     12  C   UNL     1       9.315   0.092  24.261  0.00  0.00    -0.041 A 
ATOM     13  C   UNL     1      10.192   1.197  24.271  0.00  0.00    +0.004 A 
ATOM     14  C   UNL     1      10.432   1.943  23.119  0.00  0.00    +0.000 A 
ATOM     15  C   UNL     1       9.800   1.595  21.934  0.00  0.00    +0.001 A 
ATOM     16  C   UNL     1       8.957   0.483  21.897  0.00  0.00    +0.010 A 
ATOM     17  C   UNL     1       8.714  -0.300  23.043  0.00  0.00    +0.001 A 
ENDBRANCH   1  17
BRANCH   7  18
ATOM     18  C   UNL     1       3.662  -5.848  23.176  0.00  0.00    +0.308 C 
ATOM     19  N   UNL     1       2.463  -5.411  22.948  0.00  0.00    -0.099 NA
ATOM     20  H   UNL     1       2.476  -4.451  22.594  0.00  0.00    +0.363 HD
ATOM     21  N   UNL     1       3.759  -7.103  23.698  0.00  0.00    -0.247 N 
ATOM     22  H   UNL     1       2.868  -7.588  23.638  0.00  0.00    +0.288 HD
ATOM     23  H   UNL     1       4.532  -7.665  23.360  0.00  0.00    +0.288 HD
ENDBRANCH   7  18
TORSDOF 2
ENDMDL
MODEL 2
REMARK VINA RESULT:      -7.0      3.067      5.189
REMARK  Name = 
REMARK  3 active torsions:
REMARK  status: ('A' for Active; 'I' for Inactive)
REMARK    1  A    between atoms: C_1  and  C_2
REMARK    2  A    between atoms: C_3  and  C_8
REMARK    3  A    between atoms: C_15  and  C_17
REMARK                            x       y       z     vdW  Elec       q    Type
REMARK                         _______ _______ _______ _____ _____    ______ ____
ROOT
ATOM      1  C   UNL     1      10.276   2.468  23.503  0.00  0.00    +0.048 A 
ATOM      2  N   UNL     1       9.961   1.900  22.286  0.00  0.00    -0.354 N 
ATOM      3  H   UNL     1       9.998   2.386  21.403  0.00  0.00    +0.166 HD
ATOM      4  C   UNL     1       9.675   0.560  22.419  0.00  0.00    +0.047 A 
ATOM      5  C   UNL     1       9.442  -0.419  21.448  0.00  0.00    +0.027 A 
ATOM      6  C   UNL     1       9.178  -1.719  21.894  0.00  0.00    +0.018 A 
ATOM      7  C   UNL     1       9.114  -2.019  23.260  0.00  0.00    +0.065 A 
ATOM      8  C   UNL     1       9.332  -1.012  24.214  0.00  0.00    +0.026 A 
ATOM      9  C   UNL     1       9.645   0.291  23.783  0.00  0.00    +0.001 A 
ATOM     10  C   UNL     1       9.990   1.497  24.452  0.00  0.00    +0.036 A 
ENDROOT
BRANCH   1  17
ATOM     11  C   UNL     1       8.455   4.794  24.425  0.00  0.00    +0.044 C 
ATOM     12  C   UNL     1       9.922   4.917  24.111  0.00  0.00    -0.041 A 
ATOM     13  C   UNL     1      10.488   6.198  24.281  0.00  0.00    +0.004 A 
ATOM     14  C   UNL     1      11.822   6.448  23.970  0.00  0.00    +0.000 A 
ATOM     15  C   UNL     1      12.618   5.419  23.485  0.00  0.00    +0.001 A 
ATOM     16  C   UNL     1      12.084   4.137  23.344  0.00  0.00    +0.010 A 
ATOM     17  C   UNL     1      10.743   3.854  23.671  0.00  0.00    +0.001 A 
ENDBRANCH   1  17
BRANCH   7  18
ATOM     18  C   UNL     1       8.858  -3.411  23.731  0.00  0.00    +0.308 C 
ATOM     19  N   UNL     1       9.653  -4.050  24.531  0.00  0.00    -0.099 NA
ATOM     20  H   UNL     1      10.490  -3.502  24.743  0.00  0.00    +0.363 HD
ATOM     21  N   UNL     1       7.731  -4.071  23.343  0.00  0.00    -0.247 N 
ATOM     22  H   UNL     1       7.586  -4.901  23.911  0.00  0.00    +0.288 HD
ATOM     23  H   UNL     1       6.894  -3.507  23.257  0.00  0.00    +0.288 HD
ENDBRANCH   7  18
TORSDOF 2
ENDMDL
MODEL 3
REMARK VINA RESULT:      -6.8      3.387      4.642
REMARK  Name = 
REMARK  3 active torsions:
REMARK  status: ('A' for Active; 'I' for Inactive)
REMARK    1  A    between atoms: C_1  and  C_2
REMARK    2  A    between atoms: C_3  and  C_8
REMARK    3  A    between atoms: C_15  and  C_17
REMARK                            x       y       z     vdW  Elec       q    Type
REMARK                         _______ _______ _______ _____ _____    ______ ____
ROOT
ATOM      1  C   UNL     1       9.800   1.216  24.405  0.00  0.00    +0.048 A 
ATOM      2  N   UNL     1       9.315   0.748  25.609  0.00  0.00    -0.354 N 
ATOM      3  H   UNL     1       9.067   1.335  26.391  0.00  0.00    +0.166 HD
ATOM      4  C   UNL     1       9.133  -0.616  25.578  0.00  0.00    +0.047 A 
ATOM      5  C   UNL     1       8.545  -1.474  26.512  0.00  0.00    +0.027 A 
ATOM      6  C   UNL     1       8.496  -2.836  26.195  0.00  0.00    +0.018 A 
ATOM      7  C   UNL     1       9.048  -3.325  25.005  0.00  0.00    +0.065 A 
ATOM      8  C   UNL     1       9.651  -2.443  24.094  0.00  0.00    +0.026 A 
ATOM      9  C   UNL     1       9.667  -1.064  24.375  0.00  0.00    +0.001 A 
ATOM     10  C   UNL     1      10.110   0.084  23.664  0.00  0.00    +0.036 A 
ENDROOT
BRANCH   1  17
ATOM     11  C   UNL     1       7.554   3.332  24.637  0.00  0.00    +0.044 C 
ATOM     12  C   UNL     1       8.969   3.616  24.210  0.00  0.00    -0.041 A 
ATOM     13  C   UNL     1       9.271   4.964  23.922  0.00  0.00    +0.004 A 
ATOM     14  C   UNL     1      10.531   5.343  23.466  0.00  0.00    +0.000 A 
ATOM     15  C   UNL     1      11.516   4.380  23.291  0.00  0.00    +0.001 A 
ATOM     16  C   UNL     1      11.245   3.047  23.605  0.00  0.00    +0.010 A 
ATOM     17  C   UNL     1       9.984   2.641  24.088  0.00  0.00    +0.001 A 
ENDBRANCH   1  17
BRANCH   7  18
ATOM     18  C   UNL     1       8.972  -4.774  24.659  0.00  0.00    +0.308 C 
ATOM     19  N   UNL     1       8.266  -5.235  23.675  0.00  0.00    -0.099 NA
ATOM     20  H   UNL     1       7.734  -4.492  23.216  0.00  0.00    +0.363 HD
ATOM     21  N   UNL     1       9.685  -5.689  25.375  0.00  0.00    -0.247 N 
ATOM     22  H   UNL     1       9.710  -6.583  24.892  0.00  0.00    +0.288 HD
ATOM     23  H   UNL     1      10.600  -5.391  25.691  0.00  0.00    +0.288 HD
ENDBRANCH   7  18
TORSDOF 2
ENDMDL
MODEL 4
REMARK VINA RESULT:      -6.8      2.418      7.066
REMARK  Name = 
REMARK  3 active torsions:
REMARK  status: ('A' for Active; 'I' for Inactive)
REMARK    1  A    between atoms: C_1  and  C_2
REMARK    2  A    between atoms: C_3  and  C_8
REMARK    3  A    between atoms: C_15  and  C_17
REMARK                            x       y       z     vdW  Elec       q    Type
REMARK                         _______ _______ _______ _____ _____    ______ ____
ROOT
ATOM      1  C   UNL     1       6.851  -3.466  23.906  0.00  0.00    +0.048 A 
ATOM      2  N   UNL     1       8.221  -3.466  23.740  0.00  0.00    -0.354 N 
ATOM      3  H   UNL     1       8.815  -4.264  23.903  0.00  0.00    +0.166 HD
ATOM      4  C   UNL     1       8.663  -2.262  23.240  0.00  0.00    +0.047 A 
ATOM      5  C   UNL     1       9.932  -1.873  22.800  0.00  0.00    +0.027 A 
ATOM      6  C   UNL     1      10.078  -0.563  22.332  0.00  0.00    +0.018 A 
ATOM      7  C   UNL     1       9.004   0.335  22.338  0.00  0.00    +0.065 A 
ATOM      8  C   UNL     1       7.745  -0.076  22.805  0.00  0.00    +0.026 A 
ATOM      9  C   UNL     1       7.568  -1.404  23.236  0.00  0.00    +0.001 A 
ATOM     10  C   UNL     1       6.449  -2.157  23.683  0.00  0.00    +0.036 A 
ENDROOT
BRANCH   1  17
ATOM     11  C   UNL     1       5.752  -5.561  21.911  0.00  0.00    +0.044 C 
ATOM     12  C   UNL     1       5.580  -5.617  23.406  0.00  0.00    -0.041 A 
ATOM     13  C   UNL     1       4.881  -6.735  23.909  0.00  0.00    +0.004 A 
ATOM     14  C   UNL     1       4.613  -6.870  25.269  0.00  0.00    +0.000 A 
ATOM     15  C   UNL     1       5.043  -5.890  26.153  0.00  0.00    +0.001 A 
ATOM     16  C   UNL     1       5.768  -4.796  25.677  0.00  0.00    +0.010 A 
ATOM     17  C   UNL     1       6.069  -4.646  24.309  0.00  0.00    +0.001 A 
ENDBRANCH   1  17
BRANCH   7  18
ATOM     18  C   UNL     1       9.157   1.723  21.814  0.00  0.00    +0.308 C 
ATOM     19  N   UNL     1       8.157   2.458  21.442  0.00  0.00    -0.099 NA
ATOM     20  H   UNL     1       7.274   1.946  21.501  0.00  0.00    +0.363 HD
ATOM     21  N   UNL     1      10.393   2.292  21.728  0.00  0.00    -0.247 N 
ATOM     22  H   UNL     1      10.318   3.293  21.572  0.00  0.00    +0.288 HD
ATOM     23  H   UNL     1      11.041   2.061  22.472  0.00  0.00    +0.288 HD
ENDBRANCH   7  18
TORSDOF 2
ENDMDL
MODEL 5
REMARK VINA RESULT:      -6.7      3.713      7.554
REMARK  Name = 
REMARK  3 active torsions:
REMARK  status: ('A' for Active; 'I' for Inactive)
REMARK    1  A    between atoms: C_1  and  C_2
REMARK    2  A    between atoms: C_3  and  C_8
REMARK    3  A    between atoms: C_15  and  C_17
REMARK                            x       y       z     vdW  Elec       q    Type
REMARK                         _______ _______ _______ _____ _____    ______ ____
ROOT
ATOM      1  C   UNL     1       9.024  -1.692  24.840  0.00  0.00    +0.048 A 
ATOM      2  N   UNL     1       9.207  -1.506  23.485  0.00  0.00    -0.354 N 
ATOM      3  H   UNL     1       9.040  -2.211  22.785  0.00  0.00    +0.166 HD
ATOM      4  C   UNL     1       9.563  -0.206  23.205  0.00  0.00    +0.047 A 
ATOM      5  C   UNL     1       9.714   0.449  21.978  0.00  0.00    +0.027 A 
ATOM      6  C   UNL     1      10.085   1.798  22.010  0.00  0.00    +0.018 A 
ATOM      7  C   UNL     1      10.332   2.456  23.220  0.00  0.00    +0.065 A 
ATOM      8  C   UNL     1      10.193   1.768  24.437  0.00  0.00    +0.026 A 
ATOM      9  C   UNL     1       9.775   0.424  24.426  0.00  0.00    +0.001 A 
ATOM     10  C   UNL     1       9.466  -0.523  25.440  0.00  0.00    +0.036 A 
ENDROOT
BRANCH   1  17
ATOM     11  C   UNL     1       6.552  -1.835  26.696  0.00  0.00    +0.044 C 
ATOM     12  C   UNL     1       7.384  -3.016  26.273  0.00  0.00    -0.041 A 
ATOM     13  C   UNL     1       6.968  -4.275  26.756  0.00  0.00    +0.004 A 
ATOM     14  C   UNL     1       7.689  -5.433  26.477  0.00  0.00    +0.000 A 
ATOM     15  C   UNL     1       8.840  -5.355  25.706  0.00  0.00    +0.001 A 
ATOM     16  C   UNL     1       9.247  -4.123  25.189  0.00  0.00    +0.010 A 
ATOM     17  C   UNL     1       8.524  -2.940  25.440  0.00  0.00    +0.001 A 
ENDBRANCH   1  17
BRANCH   7  18
ATOM     18  C   UNL     1      10.703   3.900  23.250  0.00  0.00    +0.308 C 
ATOM     19  N   UNL     1      11.904   4.332  23.029  0.00  0.00    -0.099 NA
ATOM     20  H   UNL     1      12.560   3.559  22.890  0.00  0.00    +0.363 HD
ATOM     21  N   UNL     1       9.755   4.848  23.498  0.00  0.00    -0.247 N 
ATOM     22  H   UNL     1      10.103   5.774  23.267  0.00  0.00    +0.288 HD
ATOM     23  H   UNL     1       8.836   4.669  23.110  0.00  0.00    +0.288 HD
ENDBRANCH   7  18
TORSDOF 2
ENDMDL
MODEL 6
REMARK VINA RESULT:      -6.7      3.067      4.293
REMARK  Name = 
REMARK  3 active torsions:
REMARK  status: ('A' for Active; 'I' for Inactive)
REMARK    1  A    between atoms: C_1  and  C_2
REMARK    2  A    between atoms: C_3  and  C_8
REMARK    3  A    between atoms: C_15  and  C_17
REMARK                            x       y       z     vdW  Elec       q    Type
REMARK                         _______ _______ _______ _____ _____    ______ ____
ROOT
ATOM      1  C   UNL     1       8.536   0.779  24.786  0.00  0.00    +0.048 A 
ATOM      2  N   UNL     1       8.068   0.015  23.737  0.00  0.00    -0.354 N 
ATOM      3  H   UNL     1       7.729   0.391  22.865  0.00  0.00    +0.166 HD
ATOM      4  C   UNL     1       8.203  -1.329  23.999  0.00  0.00    +0.047 A 
ATOM      5  C   UNL     1       7.988  -2.440  23.177  0.00  0.00    +0.027 A 
ATOM      6  C   UNL     1       8.218  -3.705  23.730  0.00  0.00    +0.018 A 
ATOM      7  C   UNL     1       8.613  -3.853  25.064  0.00  0.00    +0.065 A 
ATOM      8  C   UNL     1       8.802  -2.721  25.874  0.00  0.00    +0.026 A 
ATOM      9  C   UNL     1       8.620  -1.440  25.321  0.00  0.00    +0.001 A 
ATOM     10  C   UNL     1       8.794  -0.118  25.813  0.00  0.00    +0.036 A 
ENDROOT
BRANCH   1  17
ATOM     11  C   UNL     1      10.431   2.332  22.896  0.00  0.00    +0.044 C 
ATOM     12  C   UNL     1       9.486   2.964  23.883  0.00  0.00    -0.041 A 
ATOM     13  C   UNL     1       9.467   4.374  23.910  0.00  0.00    +0.004 A 
ATOM     14  C   UNL     1       8.674   5.072  24.817  0.00  0.00    +0.000 A 
ATOM     15  C   UNL     1       7.881   4.371  25.715  0.00  0.00    +0.001 A 
ATOM     16  C   UNL     1       7.859   2.975  25.678  0.00  0.00    +0.010 A 
ATOM     17  C   UNL     1       8.637   2.247  24.757  0.00  0.00    +0.001 A 
ENDBRANCH   1  17
BRANCH   7  18
ATOM     18  C   UNL     1       8.882  -5.202  25.642  0.00  0.00    +0.308 C 
ATOM     19  N   UNL     1       9.812  -5.992  25.205  0.00  0.00    -0.099 NA
ATOM     20  H   UNL     1      10.286  -5.596  24.390  0.00  0.00    +0.363 HD
ATOM     21  N   UNL     1       8.151  -5.654  26.700  0.00  0.00    -0.247 N 
ATOM     22  H   UNL     1       8.589  -6.471  27.117  0.00  0.00    +0.288 HD
ATOM     23  H   UNL     1       7.888  -4.958  27.388  0.00  0.00    +0.288 HD
ENDBRANCH   7  18
TORSDOF 2
ENDMDL
MODEL 7
REMARK VINA RESULT:      -6.7      2.878      4.071
REMARK  Name = 
REMARK  3 active torsions:
REMARK  status: ('A' for Active; 'I' for Inactive)
REMARK    1  A    between atoms: C_1  and  C_2
REMARK    2  A    between atoms: C_3  and  C_8
REMARK    3  A    between atoms: C_15  and  C_17
REMARK                            x       y       z     vdW  Elec       q    Type
REMARK                         _______ _______ _______ _____ _____    ______ ____
ROOT
ATOM      1  C   UNL     1       9.273   0.823  24.246  0.00  0.00    +0.048 A 
ATOM      2  N   UNL     1       8.478   0.128  23.358  0.00  0.00    -0.354 N 
ATOM      3  H   UNL     1       8.026   0.537  22.556  0.00  0.00    +0.166 HD
ATOM      4  C   UNL     1       8.453  -1.216  23.658  0.00  0.00    +0.047 A 
ATOM      5  C   UNL     1       7.897  -2.291  22.959  0.00  0.00    +0.027 A 
ATOM      6  C   UNL     1       8.037  -3.566  23.519  0.00  0.00    +0.018 A 
ATOM      7  C   UNL     1       8.678  -3.752  24.749  0.00  0.00    +0.065 A 
ATOM      8  C   UNL     1       9.209  -2.651  25.441  0.00  0.00    +0.026 A 
ATOM      9  C   UNL     1       9.118  -1.368  24.870  0.00  0.00    +0.001 A 
ATOM     10  C   UNL     1       9.598  -0.084  25.244  0.00  0.00    +0.036 A 
ENDROOT
BRANCH   1  17
ATOM     11  C   UNL     1       7.447   3.095  25.286  0.00  0.00    +0.044 C 
ATOM     12  C   UNL     1       8.775   3.296  24.608  0.00  0.00    -0.041 A 
ATOM     13  C   UNL     1       9.207   4.632  24.472  0.00  0.00    +0.004 A 
ATOM     14  C   UNL     1      10.394   4.948  23.815  0.00  0.00    +0.000 A 
ATOM     15  C   UNL     1      11.174   3.930  23.283  0.00  0.00    +0.001 A 
ATOM     16  C   UNL     1      10.781   2.600  23.440  0.00  0.00    +0.010 A 
ATOM     17  C   UNL     1       9.595   2.254  24.118  0.00  0.00    +0.001 A 
ENDBRANCH   1  17
BRANCH   7  18
ATOM     18  C   UNL     1       8.848  -5.115  25.331  0.00  0.00    +0.308 C 
ATOM     19  N   UNL     1       9.914  -5.833  25.164  0.00  0.00    -0.099 NA
ATOM     20  H   UNL     1      10.583  -5.370  24.544  0.00  0.00    +0.363 HD
ATOM     21  N   UNL     1       7.865  -5.660  26.102  0.00  0.00    -0.247 N 
ATOM     22  H   UNL     1       8.210  -6.476  26.600  0.00  0.00    +0.288 HD
ATOM     23  H   UNL     1       7.366  -5.017  26.705  0.00  0.00    +0.288 HD
ENDBRANCH   7  18
TORSDOF 2
ENDMDL
MODEL 8
REMARK VINA RESULT:      -6.7      2.961      6.946
REMARK  Name = 
REMARK  3 active torsions:
REMARK  status: ('A' for Active; 'I' for Inactive)
REMARK    1  A    between atoms: C_1  and  C_2
REMARK    2  A    between atoms: C_3  and  C_8
REMARK    3  A    between atoms: C_15  and  C_17
REMARK                            x       y       z     vdW  Elec       q    Type
REMARK                         _______ _______ _______ _____ _____    ______ ____
ROOT
ATOM      1  C   UNL     1       7.572  -2.183  22.476  0.00  0.00    +0.048 A 
ATOM      2  N   UNL     1       8.800  -1.642  22.158  0.00  0.00    -0.354 N 
ATOM      3  H   UNL     1       9.608  -2.181  21.888  0.00  0.00    +0.166 HD
ATOM      4  C   UNL     1       8.758  -0.266  22.172  0.00  0.00    +0.047 A 
ATOM      5  C   UNL     1       9.718   0.675  21.787  0.00  0.00    +0.027 A 
ATOM      6  C   UNL     1       9.381   2.027  21.911  0.00  0.00    +0.018 A 
ATOM      7  C   UNL     1       8.144   2.423  22.435  0.00  0.00    +0.065 A 
ATOM      8  C   UNL     1       7.207   1.456  22.833  0.00  0.00    +0.026 A 
ATOM      9  C   UNL     1       7.510   0.092  22.672  0.00  0.00    +0.001 A 
ATOM     10  C   UNL     1       6.790  -1.114  22.889  0.00  0.00    +0.036 A 
ENDROOT
BRANCH   1  17
ATOM     11  C   UNL     1       8.717  -4.248  24.476  0.00  0.00    +0.044 C 
ATOM     12  C   UNL     1       7.770  -4.568  23.350  0.00  0.00    -0.041 A 
ATOM     13  C   UNL     1       7.373  -5.917  23.237  0.00  0.00    +0.004 A 
ATOM     14  C   UNL     1       6.544  -6.345  22.203  0.00  0.00    +0.000 A 
ATOM     15  C   UNL     1       6.092  -5.429  21.264  0.00  0.00    +0.001 A 
ATOM     16  C   UNL     1       6.445  -4.083  21.381  0.00  0.00    +0.010 A 
ATOM     17  C   UNL     1       7.267  -3.622  22.429  0.00  0.00    +0.001 A 
ENDBRANCH   1  17
BRANCH   7  18
ATOM     18  C   UNL     1       7.779   3.865  22.542  0.00  0.00    +0.308 C 
ATOM     19  N   UNL     1       8.561   4.762  23.055  0.00  0.00    -0.099 NA
ATOM     20  H   UNL     1       9.421   4.344  23.419  0.00  0.00    +0.363 HD
ATOM     21  N   UNL     1       6.579   4.306  22.068  0.00  0.00    -0.247 N 
ATOM     22  H   UNL     1       6.568   5.321  22.007  0.00  0.00    +0.288 HD
ATOM     23  H   UNL     1       6.245   3.861  21.222  0.00  0.00    +0.288 HD
ENDBRANCH   7  18
TORSDOF 2
ENDMDL
MODEL 9
REMARK VINA RESULT:      -6.6      2.551      3.089
REMARK  Name = 
REMARK  3 active torsions:
REMARK  status: ('A' for Active; 'I' for Inactive)
REMARK    1  A    between atoms: C_1  and  C_2
REMARK    2  A    between atoms: C_3  and  C_8
REMARK    3  A    between atoms: C_15  and  C_17
REMARK                            x       y       z     vdW  Elec       q    Type
REMARK                         _______ _______ _______ _____ _____    ______ ____
ROOT
ATOM      1  C   UNL     1       8.455  -1.493  24.391  0.00  0.00    +0.048 A 
ATOM      2  N   UNL     1       9.165  -2.338  25.218  0.00  0.00    -0.354 N 
ATOM      3  H   UNL     1      10.106  -2.167  25.537  0.00  0.00    +0.166 HD
ATOM      4  C   UNL     1       8.393  -3.404  25.623  0.00  0.00    +0.047 A 
ATOM      5  C   UNL     1       8.657  -4.413  26.554  0.00  0.00    +0.027 A 
ATOM      6  C   UNL     1       7.661  -5.373  26.763  0.00  0.00    +0.018 A 
ATOM      7  C   UNL     1       6.462  -5.345  26.041  0.00  0.00    +0.065 A 
ATOM      8  C   UNL     1       6.231  -4.332  25.097  0.00  0.00    +0.026 A 
ATOM      9  C   UNL     1       7.202  -3.331  24.907  0.00  0.00    +0.001 A 
ATOM     10  C   UNL     1       7.265  -2.151  24.117  0.00  0.00    +0.036 A 
ENDROOT
BRANCH   1  17
ATOM     11  C   UNL     1       9.629  -1.095  21.555  0.00  0.00    +0.044 C 
ATOM     12  C   UNL     1       9.486  -0.012  22.591  0.00  0.00    -0.041 A 
ATOM     13  C   UNL     1       9.905   1.278  22.203  0.00  0.00    +0.004 A 
ATOM     14  C   UNL     1       9.872   2.350  23.093  0.00  0.00    +0.000 A 
ATOM     15  C   UNL     1       9.414   2.151  24.388  0.00  0.00    +0.001 A 
ATOM     16  C   UNL     1       8.961   0.889  24.778  0.00  0.00    +0.010 A 
ATOM     17  C   UNL     1       8.966  -0.206  23.891  0.00  0.00    +0.001 A 
ENDBRANCH   1  17
BRANCH   7  18
ATOM     18  C   UNL     1       5.392  -6.356  26.285  0.00  0.00    +0.308 C 
ATOM     19  N   UNL     1       5.288  -7.031  27.386  0.00  0.00    -0.099 NA
ATOM     20  H   UNL     1       6.056  -6.821  28.028  0.00  0.00    +0.363 HD
ATOM     21  N   UNL     1       4.445  -6.596  25.335  0.00  0.00    -0.247 N 
ATOM     22  H   UNL     1       3.672  -7.129  25.724  0.00  0.00    +0.288 HD
ATOM     23  H   UNL     1       4.134  -5.790  24.805  0.00  0.00    +0.288 HD
ENDBRANCH   7  18
TORSDOF 2
ENDMDL
