MODEL 1
REMARK VINA RESULT:      -7.0      0.000      0.000
REMARK  Name = 
REMARK  2 active torsions:
REMARK  status: ('A' for Active; 'I' for Inactive)
REMARK    1  A    between atoms: O_1  and  C_2
REMARK    2  A    between atoms: C_5  and  C_8
REMARK                            x       y       z     vdW  Elec       q    Type
REMARK                         _______ _______ _______ _____ _____    ______ ____
ROOT
ATOM      1  C   UNL     1       8.662  -1.304  23.747  0.00  0.00    +0.211 C 
ATOM      2  O   UNL     1       7.820  -1.674  22.640  0.00  0.00    -0.483 OA
ATOM      3  C   UNL     1       7.406  -2.979  22.689  0.00  0.00    +0.132 A 
ATOM      4  C   UNL     1       8.057  -3.971  23.424  0.00  0.00    +0.059 A 
ATOM      5  C   UNL     1       7.573  -5.282  23.436  0.00  0.00    +0.015 A 
ATOM      6  C   UNL     1       6.444  -5.606  22.683  0.00  0.00    +0.001 A 
ATOM      7  C   UNL     1       5.807  -4.622  21.923  0.00  0.00    +0.004 A 
ATOM      8  C   UNL     1       9.296  -3.618  24.145  0.00  0.00    +0.170 C 
ATOM      9  O   UNL     1       9.857  -4.424  24.878  0.00  0.00    -0.292 OA
ATOM     10  C   UNL     1       6.286  -3.310  21.926  0.00  0.00    +0.046 A 
ATOM     11  C   UNL     1       9.849  -2.250  23.861  0.00  0.00    +0.129 C 
ENDROOT
BRANCH   1  15
ATOM     12  C   UNL     1      10.017   2.763  23.204  0.00  0.00    +0.117 A 
ATOM     13  C   UNL     1      10.140   1.845  22.171  0.00  0.00    +0.046 A 
ATOM     14  C   UNL     1       9.691   0.535  22.350  0.00  0.00    +0.011 A 
ATOM     15  C   UNL     1       9.121   0.134  23.570  0.00  0.00    -0.007 A 
ATOM     16  C   UNL     1       8.981   1.088  24.591  0.00  0.00    +0.011 A 
ATOM     17  C   UNL     1       9.434   2.399  24.412  0.00  0.00    +0.046 A 
BRANCH  12  18
ATOM     18  O   UNL     1      10.495   4.023  22.994  0.00  0.00    -0.507 OA
ATOM     19  H   UNL     1      10.392   4.533  23.814  0.00  0.00    +0.292 HD
ENDBRANCH  12  18
ENDBRANCH   1  15
TORSDOF 2
ENDMDL
MODEL 2
REMARK VINA RESULT:      -6.7      1.860      6.319
REMARK  Name = 
REMARK  2 active torsions:
REMARK  status: ('A' for Active; 'I' for Inactive)
REMARK    1  A    between atoms: O_1  and  C_2
REMARK    2  A    between atoms: C_5  and  C_8
REMARK                            x       y       z     vdW  Elec       q    Type
REMARK                         _______ _______ _______ _____ _____    ______ ____
ROOT
ATOM      1  C   UNL     1       8.569  -2.175  23.422  0.00  0.00    +0.211 C 
ATOM      2  O   UNL     1       8.523  -1.115  22.449  0.00  0.00    -0.483 OA
ATOM      3  C   UNL     1       9.192   0.013  22.848  0.00  0.00    +0.132 A 
ATOM      4  C   UNL     1       9.486   0.308  24.180  0.00  0.00    +0.059 A 
ATOM      5  C   UNL     1      10.181   1.474  24.513  0.00  0.00    +0.015 A 
ATOM      6  C   UNL     1      10.558   2.363  23.506  0.00  0.00    +0.001 A 
ATOM      7  C   UNL     1      10.240   2.084  22.175  0.00  0.00    +0.004 A 
ATOM      8  C   UNL     1       9.002  -0.608  25.231  0.00  0.00    +0.170 C 
ATOM      9  O   UNL     1       9.309  -0.447  26.406  0.00  0.00    -0.292 OA
ATOM     10  C   UNL     1       9.558   0.911  21.845  0.00  0.00    +0.046 A 
ATOM     11  C   UNL     1       8.064  -1.689  24.773  0.00  0.00    +0.129 C 
ENDROOT
BRANCH   1  15
ATOM     12  C   UNL     1       6.182  -5.481  21.991  0.00  0.00    +0.117 A 
ATOM     13  C   UNL     1       5.967  -4.202  21.496  0.00  0.00    +0.046 A 
ATOM     14  C   UNL     1       6.748  -3.141  21.956  0.00  0.00    +0.011 A 
ATOM     15  C   UNL     1       7.748  -3.352  22.921  0.00  0.00    -0.007 A 
ATOM     16  C   UNL     1       7.967  -4.659  23.385  0.00  0.00    +0.011 A 
ATOM     17  C   UNL     1       7.181  -5.722  22.926  0.00  0.00    +0.046 A 
BRANCH  12  18
ATOM     18  O   UNL     1       5.377  -6.482  21.534  0.00  0.00    -0.507 OA
ATOM     19  H   UNL     1       4.452  -6.214  21.655  0.00  0.00    +0.292 HD
ENDBRANCH  12  18
ENDBRANCH   1  15
TORSDOF 2
ENDMDL
MODEL 3
REMARK VINA RESULT:      -6.7      1.804      2.659
REMARK  Name = 
REMARK  2 active torsions:
REMARK  status: ('A' for Active; 'I' for Inactive)
REMARK    1  A    between atoms: O_1  and  C_2
REMARK    2  A    between atoms: C_5  and  C_8
REMARK                            x       y       z     vdW  Elec       q    Type
REMARK                         _______ _______ _______ _____ _____    ______ ____
ROOT
ATOM      1  C   UNL     1       8.928  -1.821  23.604  0.00  0.00    +0.211 C 
ATOM      2  O   UNL     1       8.340  -1.858  24.917  0.00  0.00    -0.483 OA
ATOM      3  C   UNL     1       7.773  -3.068  25.222  0.00  0.00    +0.132 A 
ATOM      4  C   UNL     1       7.383  -4.003  24.263  0.00  0.00    +0.059 A 
ATOM      5  C   UNL     1       6.819  -5.224  24.647  0.00  0.00    +0.015 A 
ATOM      6  C   UNL     1       6.622  -5.495  26.001  0.00  0.00    +0.001 A 
ATOM      7  C   UNL     1       6.986  -4.549  26.962  0.00  0.00    +0.004 A 
ATOM      8  C   UNL     1       7.527  -3.655  22.835  0.00  0.00    +0.170 C 
ATOM      9  O   UNL     1       7.286  -4.471  21.954  0.00  0.00    -0.292 OA
ATOM     10  C   UNL     1       7.561  -3.337  26.574  0.00  0.00    +0.046 A 
ATOM     11  C   UNL     1       7.912  -2.231  22.547  0.00  0.00    +0.129 C 
ENDROOT
BRANCH   1  15
ATOM     12  C   UNL     1      10.446   2.163  22.902  0.00  0.00    +0.117 A 
ATOM     13  C   UNL     1      10.579   1.579  24.153  0.00  0.00    +0.046 A 
ATOM     14  C   UNL     1      10.095   0.287  24.370  0.00  0.00    +0.011 A 
ATOM     15  C   UNL     1       9.468  -0.426  23.335  0.00  0.00    -0.007 A 
ATOM     16  C   UNL     1       9.370   0.175  22.069  0.00  0.00    +0.011 A 
ATOM     17  C   UNL     1       9.852   1.470  21.853  0.00  0.00    +0.046 A 
BRANCH  12  18
ATOM     18  O   UNL     1      10.908   3.436  22.743  0.00  0.00    -0.507 OA
ATOM     19  H   UNL     1      11.752   3.520  23.217  0.00  0.00    +0.292 HD
ENDBRANCH  12  18
ENDBRANCH   1  15
TORSDOF 2
ENDMDL
MODEL 4
REMARK VINA RESULT:      -6.6      2.366      3.361
REMARK  Name = 
REMARK  2 active torsions:
REMARK  status: ('A' for Active; 'I' for Inactive)
REMARK    1  A    between atoms: O_1  and  C_2
REMARK    2  A    between atoms: C_5  and  C_8
REMARK                            x       y       z     vdW  Elec       q    Type
REMARK                         _______ _______ _______ _____ _____    ______ ____
ROOT
ATOM      1  C   UNL     1       7.288  -2.747  23.109  0.00  0.00    +0.211 C 
ATOM      2  O   UNL     1       7.298  -2.802  24.548  0.00  0.00    -0.483 OA
ATOM      3  C   UNL     1       6.694  -3.925  25.050  0.00  0.00    +0.132 A 
ATOM      4  C   UNL     1       5.778  -4.697  24.334  0.00  0.00    +0.059 A 
ATOM      5  C   UNL     1       5.208  -5.838  24.906  0.00  0.00    +0.015 A 
ATOM      6  C   UNL     1       5.539  -6.191  26.215  0.00  0.00    +0.001 A 
ATOM      7  C   UNL     1       6.435  -5.404  26.943  0.00  0.00    +0.004 A 
ATOM      8  C   UNL     1       5.383  -4.254  22.982  0.00  0.00    +0.170 C 
ATOM      9  O   UNL     1       4.654  -4.939  22.275  0.00  0.00    -0.292 OA
ATOM     10  C   UNL     1       7.012  -4.273  26.363  0.00  0.00    +0.046 A 
ATOM     11  C   UNL     1       5.871  -2.892  22.574  0.00  0.00    +0.129 C 
ENDROOT
BRANCH   1  15
ATOM     12  C   UNL     1       9.136   0.940  21.822  0.00  0.00    +0.117 A 
ATOM     13  C   UNL     1       9.725  -0.277  21.513  0.00  0.00    +0.046 A 
ATOM     14  C   UNL     1       9.118  -1.465  21.924  0.00  0.00    +0.011 A 
ATOM     15  C   UNL     1       7.917  -1.440  22.653  0.00  0.00    -0.007 A 
ATOM     16  C   UNL     1       7.324  -0.198  22.929  0.00  0.00    +0.011 A 
ATOM     17  C   UNL     1       7.936   0.993  22.520  0.00  0.00    +0.046 A 
BRANCH  12  18
ATOM     18  O   UNL     1       9.779   2.075  21.424  0.00  0.00    -0.507 OA
ATOM     19  H   UNL     1      10.714   1.863  21.268  0.00  0.00    +0.292 HD
ENDBRANCH  12  18
ENDBRANCH   1  15
TORSDOF 2
ENDMDL
MODEL 5
REMARK VINA RESULT:      -6.6      2.164      6.510
REMARK  Name = 
REMARK  2 active torsions:
REMARK  status: ('A' for Active; 'I' for Inactive)
REMARK    1  A    between atoms: O_1  and  C_2
REMARK    2  A    between atoms: C_5  and  C_8
REMARK                            x       y       z     vdW  Elec       q    Type
REMARK                         _______ _______ _______ _____ _____    ______ ____
ROOT
ATOM      1  C   UNL     1       7.497  -2.471  22.228  0.00  0.00    +0.211 C 
ATOM      2  O   UNL     1       6.907  -1.250  22.709  0.00  0.00    -0.483 OA
ATOM      3  C   UNL     1       7.732  -0.163  22.581  0.00  0.00    +0.132 A 
ATOM      4  C   UNL     1       9.119  -0.256  22.448  0.00  0.00    +0.059 A 
ATOM      5  C   UNL     1       9.899   0.895  22.311  0.00  0.00    +0.015 A 
ATOM      6  C   UNL     1       9.287   2.149  22.337  0.00  0.00    +0.001 A 
ATOM      7  C   UNL     1       7.903   2.246  22.498  0.00  0.00    +0.004 A 
ATOM      8  C   UNL     1       9.747  -1.591  22.508  0.00  0.00    +0.170 C 
ATOM      9  O   UNL     1      10.946  -1.739  22.306  0.00  0.00    -0.292 OA
ATOM     10  C   UNL     1       7.126   1.092  22.620  0.00  0.00    +0.046 A 
ATOM     11  C   UNL     1       8.839  -2.722  22.900  0.00  0.00    +0.129 C 
ENDROOT
BRANCH   1  15
ATOM     12  C   UNL     1       4.742  -5.714  22.979  0.00  0.00    +0.117 A 
ATOM     13  C   UNL     1       4.380  -4.410  23.284  0.00  0.00    +0.046 A 
ATOM     14  C   UNL     1       5.271  -3.366  23.029  0.00  0.00    +0.011 A 
ATOM     15  C   UNL     1       6.536  -3.623  22.472  0.00  0.00    -0.007 A 
ATOM     16  C   UNL     1       6.868  -4.948  22.145  0.00  0.00    +0.011 A 
ATOM     17  C   UNL     1       5.976  -5.994  22.404  0.00  0.00    +0.046 A 
BRANCH  12  18
ATOM     18  O   UNL     1       3.851  -6.705  23.270  0.00  0.00    -0.507 OA
ATOM     19  H   UNL     1       3.654  -6.674  24.220  0.00  0.00    +0.292 HD
ENDBRANCH  12  18
ENDBRANCH   1  15
TORSDOF 2
ENDMDL
MODEL 6
REMARK VINA RESULT:      -6.6      2.394      6.259
REMARK  Name = 
REMARK  2 active torsions:
REMARK  status: ('A' for Active; 'I' for Inactive)
REMARK    1  A    between atoms: O_1  and  C_2
REMARK    2  A    between atoms: C_5  and  C_8
REMARK                            x       y       z     vdW  Elec       q    Type
REMARK                         _______ _______ _______ _____ _____    ______ ____
ROOT
ATOM      1  C   UNL     1       7.820  -2.787  23.612  0.00  0.00    +0.211 C 
ATOM      2  O   UNL     1       7.160  -1.525  23.818  0.00  0.00    -0.483 OA
ATOM      3  C   UNL     1       7.683  -0.511  23.059  0.00  0.00    +0.132 A 
ATOM      4  C   UNL     1       8.965  -0.540  22.507  0.00  0.00    +0.059 A 
ATOM      5  C   UNL     1       9.431   0.527  21.734  0.00  0.00    +0.015 A 
ATOM      6  C   UNL     1       8.616   1.642  21.536  0.00  0.00    +0.001 A 
ATOM      7  C   UNL     1       7.343   1.685  22.110  0.00  0.00    +0.004 A 
ATOM      8  C   UNL     1       9.837  -1.694  22.803  0.00  0.00    +0.170 C 
ATOM      9  O   UNL     1      10.934  -1.815  22.273  0.00  0.00    -0.292 OA
ATOM     10  C   UNL     1       6.877   0.611  22.871  0.00  0.00    +0.046 A 
ATOM     11  C   UNL     1       9.319  -2.654  23.837  0.00  0.00    +0.129 C 
ENDROOT
BRANCH   1  15
ATOM     12  C   UNL     1       6.162  -5.768  26.266  0.00  0.00    +0.117 A 
ATOM     13  C   UNL     1       7.405  -5.213  26.533  0.00  0.00    +0.046 A 
ATOM     14  C   UNL     1       7.931  -4.243  25.677  0.00  0.00    +0.011 A 
ATOM     15  C   UNL     1       7.215  -3.827  24.542  0.00  0.00    -0.007 A 
ATOM     16  C   UNL     1       5.946  -4.381  24.307  0.00  0.00    +0.011 A 
ATOM     17  C   UNL     1       5.422  -5.356  25.164  0.00  0.00    +0.046 A 
BRANCH  12  18
ATOM     18  O   UNL     1       5.701  -6.731  27.114  0.00  0.00    -0.507 OA
ATOM     19  H   UNL     1       5.941  -7.600  26.754  0.00  0.00    +0.292 HD
ENDBRANCH  12  18
ENDBRANCH   1  15
TORSDOF 2
ENDMDL
MODEL 7
REMARK VINA RESULT:      -6.5      2.641      6.382
REMARK  Name = 
REMARK  2 active torsions:
REMARK  status: ('A' for Active; 'I' for Inactive)
REMARK    1  A    between atoms: O_1  and  C_2
REMARK    2  A    between atoms: C_5  and  C_8
REMARK                            x       y       z     vdW  Elec       q    Type
REMARK                         _______ _______ _______ _____ _____    ______ ____
ROOT
ATOM      1  C   UNL     1       8.558  -1.981  24.404  0.00  0.00    +0.211 C 
ATOM      2  O   UNL     1       8.821  -0.762  25.123  0.00  0.00    -0.483 OA
ATOM      3  C   UNL     1       9.196   0.275  24.310  0.00  0.00    +0.132 A 
ATOM      4  C   UNL     1       9.716   0.103  23.026  0.00  0.00    +0.059 A 
ATOM      5  C   UNL     1      10.069   1.208  22.247  0.00  0.00    +0.015 A 
ATOM      6  C   UNL     1       9.925   2.494  22.770  0.00  0.00    +0.001 A 
ATOM      7  C   UNL     1       9.431   2.668  24.065  0.00  0.00    +0.004 A 
ATOM      8  C   UNL     1       9.936  -1.270  22.530  0.00  0.00    +0.170 C 
ATOM      9  O   UNL     1      10.304  -1.480  21.380  0.00  0.00    -0.292 OA
ATOM     10  C   UNL     1       9.067   1.560  24.835  0.00  0.00    +0.046 A 
ATOM     11  C   UNL     1       9.751  -2.367  23.541  0.00  0.00    +0.129 C 
ENDROOT
BRANCH   1  15
ATOM     12  C   UNL     1       7.610  -5.160  27.172  0.00  0.00    +0.117 A 
ATOM     13  C   UNL     1       8.746  -5.244  26.381  0.00  0.00    +0.046 A 
ATOM     14  C   UNL     1       9.051  -4.208  25.495  0.00  0.00    +0.011 A 
ATOM     15  C   UNL     1       8.216  -3.084  25.393  0.00  0.00    -0.007 A 
ATOM     16  C   UNL     1       7.087  -3.008  26.225  0.00  0.00    +0.011 A 
ATOM     17  C   UNL     1       6.779  -4.048  27.109  0.00  0.00    +0.046 A 
BRANCH  12  18
ATOM     18  O   UNL     1       7.336  -6.208  28.002  0.00  0.00    -0.507 OA
ATOM     19  H   UNL     1       7.461  -7.034  27.508  0.00  0.00    +0.292 HD
ENDBRANCH  12  18
ENDBRANCH   1  15
TORSDOF 2
ENDMDL
MODEL 8
REMARK VINA RESULT:      -6.5      1.793      2.284
REMARK  Name = 
REMARK  2 active torsions:
REMARK  status: ('A' for Active; 'I' for Inactive)
REMARK    1  A    between atoms: O_1  and  C_2
REMARK    2  A    between atoms: C_5  and  C_8
REMARK                            x       y       z     vdW  Elec       q    Type
REMARK                         _______ _______ _______ _____ _____    ______ ____
ROOT
ATOM      1  C   UNL     1       8.140  -2.111  24.427  0.00  0.00    +0.211 C 
ATOM      2  O   UNL     1       7.134  -2.776  23.641  0.00  0.00    -0.483 OA
ATOM      3  C   UNL     1       6.577  -3.854  24.278  0.00  0.00    +0.132 A 
ATOM      4  C   UNL     1       7.189  -4.531  25.335  0.00  0.00    +0.059 A 
ATOM      5  C   UNL     1       6.558  -5.618  25.945  0.00  0.00    +0.015 A 
ATOM      6  C   UNL     1       5.317  -6.047  25.473  0.00  0.00    +0.001 A 
ATOM      7  C   UNL     1       4.715  -5.390  24.397  0.00  0.00    +0.004 A 
ATOM      8  C   UNL     1       8.539  -4.107  25.758  0.00  0.00    +0.170 C 
ATOM      9  O   UNL     1       9.084  -4.604  26.736  0.00  0.00    -0.292 OA
ATOM     10  C   UNL     1       5.343  -4.295  23.800  0.00  0.00    +0.046 A 
ATOM     11  C   UNL     1       9.212  -3.095  24.875  0.00  0.00    +0.129 C 
ENDROOT
BRANCH   1  15
ATOM     12  C   UNL     1       9.822   1.160  22.158  0.00  0.00    +0.117 A 
ATOM     13  C   UNL     1       9.705   1.258  23.537  0.00  0.00    +0.046 A 
ATOM     14  C   UNL     1       9.170   0.193  24.265  0.00  0.00    +0.011 A 
ATOM     15  C   UNL     1       8.742  -0.976  23.614  0.00  0.00    -0.007 A 
ATOM     16  C   UNL     1       8.896  -1.064  22.221  0.00  0.00    +0.011 A 
ATOM     17  C   UNL     1       9.429   0.005  21.492  0.00  0.00    +0.046 A 
BRANCH  12  18
ATOM     18  O   UNL     1      10.324   2.235  21.486  0.00  0.00    -0.507 OA
ATOM     19  H   UNL     1      11.270   2.312  21.689  0.00  0.00    +0.292 HD
ENDBRANCH  12  18
ENDBRANCH   1  15
TORSDOF 2
ENDMDL
MODEL 9
REMARK VINA RESULT:      -6.4      2.360      6.547
REMARK  Name = 
REMARK  2 active torsions:
REMARK  status: ('A' for Active; 'I' for Inactive)
REMARK    1  A    between atoms: O_1  and  C_2
REMARK    2  A    between atoms: C_5  and  C_8
REMARK                            x       y       z     vdW  Elec       q    Type
REMARK                         _______ _______ _______ _____ _____    ______ ____
ROOT
ATOM      1  C   UNL     1       7.877  -3.243  24.424  0.00  0.00    +0.211 C 
ATOM      2  O   UNL     1       7.868  -2.498  23.193  0.00  0.00    -0.483 OA
ATOM      3  C   UNL     1       8.678  -1.393  23.224  0.00  0.00    +0.132 A 
ATOM      4  C   UNL     1       9.102  -0.777  24.403  0.00  0.00    +0.059 A 
ATOM      5  C   UNL     1       9.938   0.343  24.360  0.00  0.00    +0.015 A 
ATOM      6  C   UNL     1      10.328   0.864  23.126  0.00  0.00    +0.001 A 
ATOM      7  C   UNL     1       9.882   0.267  21.944  0.00  0.00    +0.004 A 
ATOM      8  C   UNL     1       8.607  -1.299  25.692  0.00  0.00    +0.170 C 
ATOM      9  O   UNL     1       9.017  -0.857  26.758  0.00  0.00    -0.292 OA
ATOM     10  C   UNL     1       9.058  -0.860  21.993  0.00  0.00    +0.046 A 
ATOM     11  C   UNL     1       7.529  -2.343  25.601  0.00  0.00    +0.129 C 
ENDROOT
BRANCH   1  15
ATOM     12  C   UNL     1       5.088  -6.523  24.052  0.00  0.00    +0.117 A 
ATOM     13  C   UNL     1       5.750  -6.043  22.931  0.00  0.00    +0.046 A 
ATOM     14  C   UNL     1       6.658  -4.989  23.060  0.00  0.00    +0.011 A 
ATOM     15  C   UNL     1       6.903  -4.405  24.315  0.00  0.00    -0.007 A 
ATOM     16  C   UNL     1       6.242  -4.927  25.439  0.00  0.00    +0.011 A 
ATOM     17  C   UNL     1       5.331  -5.980  25.308  0.00  0.00    +0.046 A 
BRANCH  12  18
ATOM     18  O   UNL     1       4.191  -7.534  23.874  0.00  0.00    -0.507 OA
ATOM     19  H   UNL     1       3.323  -7.146  23.677  0.00  0.00    +0.292 HD
ENDBRANCH  12  18
ENDBRANCH   1  15
TORSDOF 2
ENDMDL
