MODEL 1
REMARK VINA RESULT:      -7.1      0.000      0.000
REMARK  Name = 
REMARK  11 active torsions:
REMARK  status: ('A' for Active; 'I' for Inactive)
REMARK    1  A    between atoms: C_2  and  C_3
REMARK    2  A    between atoms: C_3  and  O_4
REMARK    3  A    between atoms: N_7  and  O_8
REMARK    4  A    between atoms: O_8  and  C_9
REMARK    5  A    between atoms: N_11  and  C_12
REMARK    6  A    between atoms: C_18  and  N_20
REMARK    7  A    between atoms: C_21  and  C_23
REMARK    8  A    between atoms: C_23  and  C_24
REMARK    9  A    between atoms: C_24  and  C_25
REMARK   10  A    between atoms: C_26  and  O_28
REMARK   11  A    between atoms: C_29  and  O_31
REMARK                            x       y       z     vdW  Elec       q    Type
REMARK                         _______ _______ _______ _____ _____    ______ ____
ROOT
ATOM      1  C   UNL     1       9.482  -1.205  24.523  0.00  0.00    +0.231 C 
ATOM      2  C   UNL     1       9.550  -2.513  23.720  0.00  0.00    +0.188 C 
ATOM      3  C   UNL     1       8.900  -2.339  22.338  0.00  0.00    +0.176 C 
ATOM      4  C   UNL     1       7.450  -1.837  22.491  0.00  0.00    +0.193 C 
ATOM      5  C   UNL     1       7.494  -0.564  23.328  0.00  0.00    +0.251 C 
ATOM      6  N   UNL     1       6.876   0.495  22.923  0.00  0.00    -0.037 NA
ATOM      7  O   UNL     1       8.148  -0.623  24.508  0.00  0.00    -0.468 OA
ENDROOT
BRANCH   4   8
ATOM      8  N   UNL     1       6.548  -2.842  23.082  0.00  0.00    -0.302 N 
ATOM      9  H   UNL     1       6.252  -2.708  24.044  0.00  0.00    +0.150 HD
ATOM     10  C   UNL     1       5.667  -3.522  22.255  0.00  0.00    +0.214 C 
ATOM     11  O   UNL     1       5.578  -3.286  21.055  0.00  0.00    -0.276 OA
BRANCH  10  12
ATOM     12  C   UNL     1       4.845  -4.593  22.947  0.00  0.00    +0.095 C 
BRANCH  12  13
ATOM     13  C   UNL     1       5.733  -5.782  23.330  0.00  0.00    +0.006 C 
ATOM     14  C   UNL     1       6.461  -6.373  22.133  0.00  0.00    +0.004 C 
ENDBRANCH  12  13
ENDBRANCH  10  12
ENDBRANCH   4   8
BRANCH   2  15
ATOM     15  O   UNL     1       8.908  -3.553  24.473  0.00  0.00    -0.385 OA
ATOM     16  H   UNL     1       9.562  -4.261  24.619  0.00  0.00    +0.210 HD
ENDBRANCH   2  15
BRANCH   3  17
ATOM     17  O   UNL     1       9.696  -1.443  21.550  0.00  0.00    -0.387 OA
ATOM     18  H   UNL     1       9.279  -0.562  21.538  0.00  0.00    +0.210 HD
ENDBRANCH   3  17
BRANCH   1  19
ATOM     19  C   UNL     1      10.505  -0.157  24.049  0.00  0.00    +0.203 C 
BRANCH  19  20
ATOM     20  O   UNL     1      10.879   0.706  25.126  0.00  0.00    -0.391 OA
ATOM     21  H   UNL     1      10.064   0.996  25.566  0.00  0.00    +0.210 HD
ENDBRANCH  19  20
ENDBRANCH   1  19
BRANCH   6  22
ATOM     22  O   UNL     1       7.070   1.597  23.791  0.00  0.00    -0.296 OA
BRANCH  22  23
ATOM     23  C   UNL     1       7.931   2.494  23.188  0.00  0.00    +0.430 C 
ATOM     24  N   UNL     1       8.957   2.827  24.047  0.00  0.00    -0.249 N 
ATOM     25  H   UNL     1       9.017   2.262  24.883  0.00  0.00    +0.158 HD
ATOM     26  O   UNL     1       7.777   2.927  22.050  0.00  0.00    -0.224 OA
BRANCH  24  27
ATOM     27  C   UNL     1       9.866   3.897  23.898  0.00  0.00    +0.037 A 
ATOM     28  C   UNL     1      11.138   3.624  23.378  0.00  0.00    +0.023 A 
ATOM     29  C   UNL     1      12.103   4.633  23.284  0.00  0.00    +0.002 A 
ATOM     30  C   UNL     1      11.810   5.928  23.713  0.00  0.00    +0.000 A 
ATOM     31  C   UNL     1      10.546   6.211  24.219  0.00  0.00    +0.002 A 
ATOM     32  C   UNL     1       9.582   5.206  24.306  0.00  0.00    +0.023 A 
ENDBRANCH  24  27
ENDBRANCH  22  23
ENDBRANCH   6  22
TORSDOF 10
ENDMDL
MODEL 2
REMARK VINA RESULT:      -6.8      1.841      7.827
REMARK  Name = 
REMARK  11 active torsions:
REMARK  status: ('A' for Active; 'I' for Inactive)
REMARK    1  A    between atoms: C_2  and  C_3
REMARK    2  A    between atoms: C_3  and  O_4
REMARK    3  A    between atoms: N_7  and  O_8
REMARK    4  A    between atoms: O_8  and  C_9
REMARK    5  A    between atoms: N_11  and  C_12
REMARK    6  A    between atoms: C_18  and  N_20
REMARK    7  A    between atoms: C_21  and  C_23
REMARK    8  A    between atoms: C_23  and  C_24
REMARK    9  A    between atoms: C_24  and  C_25
REMARK   10  A    between atoms: C_26  and  O_28
REMARK   11  A    between atoms: C_29  and  O_31
REMARK                            x       y       z     vdW  Elec       q    Type
REMARK                         _______ _______ _______ _____ _____    ______ ____
ROOT
ATOM      1  C   UNL     1       8.942   0.442  21.835  0.00  0.00    +0.231 C 
ATOM      2  C   UNL     1      10.236   1.159  22.251  0.00  0.00    +0.188 C 
ATOM      3  C   UNL     1      10.355   1.223  23.782  0.00  0.00    +0.176 C 
ATOM      4  C   UNL     1       9.106   1.897  24.386  0.00  0.00    +0.193 C 
ATOM      5  C   UNL     1       7.887   1.134  23.884  0.00  0.00    +0.251 C 
ATOM      6  N   UNL     1       6.984   0.741  24.719  0.00  0.00    -0.037 NA
ATOM      7  O   UNL     1       7.781   0.949  22.550  0.00  0.00    -0.468 OA
ENDROOT
BRANCH   4   8
ATOM      8  N   UNL     1       9.014   3.335  24.068  0.00  0.00    -0.302 N 
ATOM      9  H   UNL     1       8.933   3.601  23.091  0.00  0.00    +0.150 HD
ATOM     10  C   UNL     1       8.430   4.190  24.990  0.00  0.00    +0.214 C 
ATOM     11  O   UNL     1       7.947   3.789  26.044  0.00  0.00    -0.276 OA
BRANCH  10  12
ATOM     12  C   UNL     1       8.462   5.656  24.604  0.00  0.00    +0.095 C 
BRANCH  12  13
ATOM     13  C   UNL     1       9.662   5.943  23.696  0.00  0.00    +0.006 C 
ATOM     14  C   UNL     1      10.895   6.367  24.478  0.00  0.00    +0.004 C 
ENDBRANCH  12  13
ENDBRANCH  10  12
ENDBRANCH   4   8
BRANCH   2  15
ATOM     15  O   UNL     1      10.244   2.472  21.671  0.00  0.00    -0.385 OA
ATOM     16  H   UNL     1       9.880   3.091  22.330  0.00  0.00    +0.210 HD
ENDBRANCH   2  15
BRANCH   3  17
ATOM     17  O   UNL     1      10.549  -0.101  24.298  0.00  0.00    -0.387 OA
ATOM     18  H   UNL     1      11.414  -0.154  24.743  0.00  0.00    +0.210 HD
ENDBRANCH   3  17
BRANCH   1  19
ATOM     19  C   UNL     1       9.024  -1.087  22.005  0.00  0.00    +0.203 C 
BRANCH  19  20
ATOM     20  O   UNL     1      10.305  -1.573  21.598  0.00  0.00    -0.391 OA
ATOM     21  H   UNL     1      10.283  -1.685  20.634  0.00  0.00    +0.210 HD
ENDBRANCH  19  20
ENDBRANCH   1  19
BRANCH   6  22
ATOM     22  O   UNL     1       5.955  -0.001  24.089  0.00  0.00    -0.296 OA
BRANCH  22  23
ATOM     23  C   UNL     1       6.234  -1.349  24.215  0.00  0.00    +0.430 C 
ATOM     24  N   UNL     1       6.024  -1.996  23.016  0.00  0.00    -0.249 N 
ATOM     25  H   UNL     1       5.871  -1.390  22.221  0.00  0.00    +0.158 HD
ATOM     26  O   UNL     1       6.606  -1.873  25.261  0.00  0.00    -0.224 OA
BRANCH  24  27
ATOM     27  C   UNL     1       5.943  -3.392  22.817  0.00  0.00    +0.037 A 
ATOM     28  C   UNL     1       7.043  -4.050  22.252  0.00  0.00    +0.023 A 
ATOM     29  C   UNL     1       6.985  -5.417  21.959  0.00  0.00    +0.002 A 
ATOM     30  C   UNL     1       5.824  -6.143  22.225  0.00  0.00    +0.000 A 
ATOM     31  C   UNL     1       4.731  -5.502  22.798  0.00  0.00    +0.002 A 
ATOM     32  C   UNL     1       4.792  -4.139  23.095  0.00  0.00    +0.023 A 
ENDBRANCH  24  27
ENDBRANCH  22  23
ENDBRANCH   6  22
TORSDOF 10
ENDMDL
MODEL 3
REMARK VINA RESULT:      -6.6      1.549      1.996
REMARK  Name = 
REMARK  11 active torsions:
REMARK  status: ('A' for Active; 'I' for Inactive)
REMARK    1  A    between atoms: C_2  and  C_3
REMARK    2  A    between atoms: C_3  and  O_4
REMARK    3  A    between atoms: N_7  and  O_8
REMARK    4  A    between atoms: O_8  and  C_9
REMARK    5  A    between atoms: N_11  and  C_12
REMARK    6  A    between atoms: C_18  and  N_20
REMARK    7  A    between atoms: C_21  and  C_23
REMARK    8  A    between atoms: C_23  and  C_24
REMARK    9  A    between atoms: C_24  and  C_25
REMARK   10  A    between atoms: C_26  and  O_28
REMARK   11  A    between atoms: C_29  and  O_31
REMARK                            x       y       z     vdW  Elec       q    Type
REMARK                         _______ _______ _______ _____ _____    ______ ____
ROOT
ATOM      1  C   UNL     1       9.791  -1.068  24.459  0.00  0.00    +0.231 C 
ATOM      2  C   UNL     1      10.261  -2.051  23.376  0.00  0.00    +0.188 C 
ATOM      3  C   UNL     1       9.458  -1.861  22.080  0.00  0.00    +0.176 C 
ATOM      4  C   UNL     1       7.949  -2.000  22.363  0.00  0.00    +0.193 C 
ATOM      5  C   UNL     1       7.598  -1.011  23.468  0.00  0.00    +0.251 C 
ATOM      6  N   UNL     1       6.593  -0.215  23.325  0.00  0.00    -0.037 NA
ATOM      7  O   UNL     1       8.342  -1.056  24.595  0.00  0.00    -0.468 OA
ENDROOT
BRANCH   4   8
ATOM      8  N   UNL     1       7.551  -3.375  22.720  0.00  0.00    -0.302 N 
ATOM      9  H   UNL     1       7.836  -3.731  23.627  0.00  0.00    +0.150 HD
ATOM     10  C   UNL     1       6.375  -3.890  22.197  0.00  0.00    +0.214 C 
ATOM     11  O   UNL     1       5.629  -3.230  21.482  0.00  0.00    -0.276 OA
BRANCH  10  12
ATOM     12  C   UNL     1       6.102  -5.338  22.557  0.00  0.00    +0.095 C 
BRANCH  12  13
ATOM     13  C   UNL     1       5.784  -5.465  24.051  0.00  0.00    +0.006 C 
ATOM     14  C   UNL     1       4.586  -4.625  24.464  0.00  0.00    +0.004 C 
ENDBRANCH  12  13
ENDBRANCH  10  12
ENDBRANCH   4   8
BRANCH   2  15
ATOM     15  O   UNL     1      10.132  -3.390  23.880  0.00  0.00    -0.385 OA
ATOM     16  H   UNL     1      11.030  -3.751  23.997  0.00  0.00    +0.210 HD
ENDBRANCH   2  15
BRANCH   3  17
ATOM     17  O   UNL     1       9.779  -0.586  21.508  0.00  0.00    -0.387 OA
ATOM     18  H   UNL     1       9.185  -0.407  20.755  0.00  0.00    +0.210 HD
ENDBRANCH   3  17
BRANCH   1  19
ATOM     19  C   UNL     1      10.296   0.368  24.224  0.00  0.00    +0.203 C 
BRANCH  19  20
ATOM     20  O   UNL     1       9.641   1.284  25.104  0.00  0.00    -0.391 OA
ATOM     21  H   UNL     1       8.786   1.514  24.706  0.00  0.00    +0.210 HD
ENDBRANCH  19  20
ENDBRANCH   1  19
BRANCH   6  22
ATOM     22  O   UNL     1       6.448   0.672  24.419  0.00  0.00    -0.296 OA
BRANCH  22  23
ATOM     23  C   UNL     1       6.276   1.955  23.935  0.00  0.00    +0.430 C 
ATOM     24  N   UNL     1       7.484   2.479  23.526  0.00  0.00    -0.249 N 
ATOM     25  H   UNL     1       8.248   1.818  23.484  0.00  0.00    +0.158 HD
ATOM     26  O   UNL     1       5.192   2.529  23.895  0.00  0.00    -0.224 OA
BRANCH  24  27
ATOM     27  C   UNL     1       7.757   3.833  23.231  0.00  0.00    +0.037 A 
ATOM     28  C   UNL     1       8.656   4.527  24.051  0.00  0.00    +0.023 A 
ATOM     29  C   UNL     1       8.900   5.890  23.851  0.00  0.00    +0.002 A 
ATOM     30  C   UNL     1       8.245   6.578  22.829  0.00  0.00    +0.000 A 
ATOM     31  C   UNL     1       7.361   5.895  22.001  0.00  0.00    +0.002 A 
ATOM     32  C   UNL     1       7.123   4.534  22.198  0.00  0.00    +0.023 A 
ENDBRANCH  24  27
ENDBRANCH  22  23
ENDBRANCH   6  22
TORSDOF 10
ENDMDL
MODEL 4
REMARK VINA RESULT:      -6.5      2.305      7.363
REMARK  Name = 
REMARK  11 active torsions:
REMARK  status: ('A' for Active; 'I' for Inactive)
REMARK    1  A    between atoms: C_2  and  C_3
REMARK    2  A    between atoms: C_3  and  O_4
REMARK    3  A    between atoms: N_7  and  O_8
REMARK    4  A    between atoms: O_8  and  C_9
REMARK    5  A    between atoms: N_11  and  C_12
REMARK    6  A    between atoms: C_18  and  N_20
REMARK    7  A    between atoms: C_21  and  C_23
REMARK    8  A    between atoms: C_23  and  C_24
REMARK    9  A    between atoms: C_24  and  C_25
REMARK   10  A    between atoms: C_26  and  O_28
REMARK   11  A    between atoms: C_29  and  O_31
REMARK                            x       y       z     vdW  Elec       q    Type
REMARK                         _______ _______ _______ _____ _____    ______ ____
ROOT
ATOM      1  C   UNL     1       8.876   0.435  21.791  0.00  0.00    +0.231 C 
ATOM      2  C   UNL     1      10.189   1.124  22.193  0.00  0.00    +0.188 C 
ATOM      3  C   UNL     1      10.357   1.128  23.721  0.00  0.00    +0.176 C 
ATOM      4  C   UNL     1       9.135   1.789  24.390  0.00  0.00    +0.193 C 
ATOM      5  C   UNL     1       7.893   1.057  23.898  0.00  0.00    +0.251 C 
ATOM      6  N   UNL     1       7.013   0.640  24.745  0.00  0.00    -0.037 NA
ATOM      7  O   UNL     1       7.743   0.924  22.562  0.00  0.00    -0.468 OA
ENDROOT
BRANCH   4   8
ATOM      8  N   UNL     1       9.047   3.239  24.131  0.00  0.00    -0.302 N 
ATOM      9  H   UNL     1       8.993   3.546  23.164  0.00  0.00    +0.150 HD
ATOM     10  C   UNL     1       8.436   4.053  25.072  0.00  0.00    +0.214 C 
ATOM     11  O   UNL     1       7.924   3.607  26.093  0.00  0.00    -0.276 OA
BRANCH  10  12
ATOM     12  C   UNL     1       8.473   5.535  24.748  0.00  0.00    +0.095 C 
BRANCH  12  13
ATOM     13  C   UNL     1       9.589   5.832  23.741  0.00  0.00    +0.006 C 
ATOM     14  C   UNL     1      10.855   6.344  24.410  0.00  0.00    +0.004 C 
ENDBRANCH  12  13
ENDBRANCH  10  12
ENDBRANCH   4   8
BRANCH   2  15
ATOM     15  O   UNL     1      10.192   2.459  21.663  0.00  0.00    -0.385 OA
ATOM     16  H   UNL     1      11.015   2.574  21.153  0.00  0.00    +0.210 HD
ENDBRANCH   2  15
BRANCH   3  17
ATOM     17  O   UNL     1      10.554  -0.217  24.178  0.00  0.00    -0.387 OA
ATOM     18  H   UNL     1      11.363  -0.262  24.721  0.00  0.00    +0.210 HD
ENDBRANCH   3  17
BRANCH   1  19
ATOM     19  C   UNL     1       8.947  -1.099  21.899  0.00  0.00    +0.203 C 
BRANCH  19  20
ATOM     20  O   UNL     1      10.236  -1.574  21.504  0.00  0.00    -0.391 OA
ATOM     21  H   UNL     1      10.121  -2.470  21.147  0.00  0.00    +0.210 HD
ENDBRANCH  19  20
ENDBRANCH   1  19
BRANCH   6  22
ATOM     22  O   UNL     1       5.957  -0.068  24.121  0.00  0.00    -0.296 OA
BRANCH  22  23
ATOM     23  C   UNL     1       6.176  -1.424  24.274  0.00  0.00    +0.430 C 
ATOM     24  N   UNL     1       7.000  -1.658  25.355  0.00  0.00    -0.249 N 
ATOM     25  H   UNL     1       7.171  -0.857  25.946  0.00  0.00    +0.158 HD
ATOM     26  O   UNL     1       5.701  -2.279  23.532  0.00  0.00    -0.224 OA
BRANCH  24  27
ATOM     27  C   UNL     1       7.657  -2.869  25.664  0.00  0.00    +0.037 A 
ATOM     28  C   UNL     1       8.800  -3.214  24.931  0.00  0.00    +0.023 A 
ATOM     29  C   UNL     1       9.443  -4.439  25.142  0.00  0.00    +0.002 A 
ATOM     30  C   UNL     1       8.948  -5.337  26.088  0.00  0.00    +0.000 A 
ATOM     31  C   UNL     1       7.821  -4.998  26.830  0.00  0.00    +0.002 A 
ATOM     32  C   UNL     1       7.185  -3.773  26.623  0.00  0.00    +0.023 A 
ENDBRANCH  24  27
ENDBRANCH  22  23
ENDBRANCH   6  22
TORSDOF 10
ENDMDL
MODEL 5
REMARK VINA RESULT:      -6.4      3.074      5.588
REMARK  Name = 
REMARK  11 active torsions:
REMARK  status: ('A' for Active; 'I' for Inactive)
REMARK    1  A    between atoms: C_2  and  C_3
REMARK    2  A    between atoms: C_3  and  O_4
REMARK    3  A    between atoms: N_7  and  O_8
REMARK    4  A    between atoms: O_8  and  C_9
REMARK    5  A    between atoms: N_11  and  C_12
REMARK    6  A    between atoms: C_18  and  N_20
REMARK    7  A    between atoms: C_21  and  C_23
REMARK    8  A    between atoms: C_23  and  C_24
REMARK    9  A    between atoms: C_24  and  C_25
REMARK   10  A    between atoms: C_26  and  O_28
REMARK   11  A    between atoms: C_29  and  O_31
REMARK                            x       y       z     vdW  Elec       q    Type
REMARK                         _______ _______ _______ _____ _____    ______ ____
ROOT
ATOM      1  C   UNL     1       6.655  -5.814  22.629  0.00  0.00    +0.231 C 
ATOM      2  C   UNL     1       5.198  -5.839  23.117  0.00  0.00    +0.188 C 
ATOM      3  C   UNL     1       4.921  -4.662  24.066  0.00  0.00    +0.176 C 
ATOM      4  C   UNL     1       5.919  -4.680  25.242  0.00  0.00    +0.193 C 
ATOM      5  C   UNL     1       7.323  -4.689  24.649  0.00  0.00    +0.251 C 
ATOM      6  N   UNL     1       8.207  -3.850  25.073  0.00  0.00    -0.037 NA
ATOM      7  O   UNL     1       7.596  -5.635  23.724  0.00  0.00    -0.468 OA
ENDROOT
BRANCH   4   8
ATOM      8  N   UNL     1       5.712  -5.815  26.160  0.00  0.00    -0.302 N 
ATOM      9  H   UNL     1       5.841  -6.753  25.793  0.00  0.00    +0.150 HD
ATOM     10  C   UNL     1       5.970  -5.641  27.511  0.00  0.00    +0.214 C 
ATOM     11  O   UNL     1       6.409  -4.590  27.966  0.00  0.00    -0.276 OA
BRANCH  10  12
ATOM     12  C   UNL     1       5.644  -6.842  28.379  0.00  0.00    +0.095 C 
BRANCH  12  13
ATOM     13  C   UNL     1       4.724  -6.432  29.534  0.00  0.00    +0.006 C 
ATOM     14  C   UNL     1       3.378  -7.136  29.483  0.00  0.00    +0.004 C 
ENDBRANCH  12  13
ENDBRANCH  10  12
ENDBRANCH   4   8
BRANCH   2  15
ATOM     15  O   UNL     1       4.946  -7.099  23.758  0.00  0.00    -0.385 OA
ATOM     16  H   UNL     1       4.034  -7.366  23.540  0.00  0.00    +0.210 HD
ENDBRANCH   2  15
BRANCH   3  17
ATOM     17  O   UNL     1       4.985  -3.434  23.330  0.00  0.00    -0.387 OA
ATOM     18  H   UNL     1       4.249  -2.854  23.597  0.00  0.00    +0.210 HD
ENDBRANCH   3  17
BRANCH   1  19
ATOM     19  C   UNL     1       6.908  -4.740  21.554  0.00  0.00    +0.203 C 
BRANCH  19  20
ATOM     20  O   UNL     1       5.769  -4.600  20.701  0.00  0.00    -0.391 OA
ATOM     21  H   UNL     1       5.535  -5.485  20.378  0.00  0.00    +0.210 HD
ENDBRANCH  19  20
ENDBRANCH   1  19
BRANCH   6  22
ATOM     22  O   UNL     1       9.434  -3.960  24.374  0.00  0.00    -0.296 OA
BRANCH  22  23
ATOM     23  C   UNL     1       9.805  -2.708  23.923  0.00  0.00    +0.430 C 
ATOM     24  N   UNL     1       9.416  -1.739  24.823  0.00  0.00    -0.249 N 
ATOM     25  H   UNL     1       9.088  -2.086  25.714  0.00  0.00    +0.158 HD
ATOM     26  O   UNL     1      10.389  -2.512  22.862  0.00  0.00    -0.224 OA
BRANCH  24  27
ATOM     27  C   UNL     1       9.377  -0.346  24.595  0.00  0.00    +0.037 A 
ATOM     28  C   UNL     1       8.141   0.251  24.317  0.00  0.00    +0.023 A 
ATOM     29  C   UNL     1       8.057   1.612  24.005  0.00  0.00    +0.002 A 
ATOM     30  C   UNL     1       9.212   2.394  23.964  0.00  0.00    +0.000 A 
ATOM     31  C   UNL     1      10.443   1.814  24.250  0.00  0.00    +0.002 A 
ATOM     32  C   UNL     1      10.524   0.458  24.568  0.00  0.00    +0.023 A 
ENDBRANCH  24  27
ENDBRANCH  22  23
ENDBRANCH   6  22
TORSDOF 10
ENDMDL
MODEL 6
REMARK VINA RESULT:      -6.3      2.280      8.102
REMARK  Name = 
REMARK  11 active torsions:
REMARK  status: ('A' for Active; 'I' for Inactive)
REMARK    1  A    between atoms: C_2  and  C_3
REMARK    2  A    between atoms: C_3  and  O_4
REMARK    3  A    between atoms: N_7  and  O_8
REMARK    4  A    between atoms: O_8  and  C_9
REMARK    5  A    between atoms: N_11  and  C_12
REMARK    6  A    between atoms: C_18  and  N_20
REMARK    7  A    between atoms: C_21  and  C_23
REMARK    8  A    between atoms: C_23  and  C_24
REMARK    9  A    between atoms: C_24  and  C_25
REMARK   10  A    between atoms: C_26  and  O_28
REMARK   11  A    between atoms: C_29  and  O_31
REMARK                            x       y       z     vdW  Elec       q    Type
REMARK                         _______ _______ _______ _____ _____    ______ ____
ROOT
ATOM      1  C   UNL     1       9.351  -0.031  21.761  0.00  0.00    +0.231 C 
ATOM      2  C   UNL     1      10.248   1.067  22.354  0.00  0.00    +0.188 C 
ATOM      3  C   UNL     1      10.007   1.212  23.864  0.00  0.00    +0.176 C 
ATOM      4  C   UNL     1       8.514   1.483  24.141  0.00  0.00    +0.193 C 
ATOM      5  C   UNL     1       7.717   0.362  23.484  0.00  0.00    +0.251 C 
ATOM      6  N   UNL     1       6.813  -0.267  24.158  0.00  0.00    -0.037 NA
ATOM      7  O   UNL     1       7.964   0.111  22.180  0.00  0.00    -0.468 OA
ENDROOT
BRANCH   4   8
ATOM      8  N   UNL     1       8.069   2.809  23.673  0.00  0.00    -0.302 N 
ATOM      9  H   UNL     1       7.509   2.851  22.827  0.00  0.00    +0.150 HD
ATOM     10  C   UNL     1       7.853   3.812  24.606  0.00  0.00    +0.214 C 
ATOM     11  O   UNL     1       7.975   3.625  25.812  0.00  0.00    -0.276 OA
BRANCH  10  12
ATOM     12  C   UNL     1       7.480   5.158  24.015  0.00  0.00    +0.095 C 
BRANCH  12  13
ATOM     13  C   UNL     1       7.372   5.059  22.489  0.00  0.00    +0.006 C 
ATOM     14  C   UNL     1       7.272   6.422  21.823  0.00  0.00    +0.004 C 
ENDBRANCH  12  13
ENDBRANCH  10  12
ENDBRANCH   4   8
BRANCH   2  15
ATOM     15  O   UNL     1       9.992   2.298  21.661  0.00  0.00    -0.385 OA
ATOM     16  H   UNL     1       9.757   2.079  20.741  0.00  0.00    +0.210 HD
ENDBRANCH   2  15
BRANCH   3  17
ATOM     17  O   UNL     1      10.469   0.032  24.534  0.00  0.00    -0.387 OA
ATOM     18  H   UNL     1      10.162  -0.758  24.052  0.00  0.00    +0.210 HD
ENDBRANCH   3  17
BRANCH   1  19
ATOM     19  C   UNL     1       9.844  -1.452  22.091  0.00  0.00    +0.203 C 
BRANCH  19  20
ATOM     20  O   UNL     1       8.742  -2.317  22.373  0.00  0.00    -0.391 OA
ATOM     21  H   UNL     1       7.941  -1.769  22.409  0.00  0.00    +0.210 HD
ENDBRANCH  19  20
ENDBRANCH   1  19
BRANCH   6  22
ATOM     22  O   UNL     1       6.215  -1.312  23.413  0.00  0.00    -0.296 OA
BRANCH  22  23
ATOM     23  C   UNL     1       5.640  -2.213  24.289  0.00  0.00    +0.430 C 
ATOM     24  N   UNL     1       6.216  -3.457  24.145  0.00  0.00    -0.249 N 
ATOM     25  H   UNL     1       7.048  -3.481  23.571  0.00  0.00    +0.158 HD
ATOM     26  O   UNL     1       4.737  -1.924  25.068  0.00  0.00    -0.224 OA
BRANCH  24  27
ATOM     27  C   UNL     1       5.726  -4.676  24.661  0.00  0.00    +0.037 A 
ATOM     28  C   UNL     1       4.942  -5.486  23.829  0.00  0.00    +0.023 A 
ATOM     29  C   UNL     1       4.365  -6.664  24.315  0.00  0.00    +0.002 A 
ATOM     30  C   UNL     1       4.562  -7.047  25.642  0.00  0.00    +0.000 A 
ATOM     31  C   UNL     1       5.348  -6.256  26.473  0.00  0.00    +0.002 A 
ATOM     32  C   UNL     1       5.929  -5.084  25.985  0.00  0.00    +0.023 A 
ENDBRANCH  24  27
ENDBRANCH  22  23
ENDBRANCH   6  22
TORSDOF 10
ENDMDL
MODEL 7
REMARK VINA RESULT:      -6.2      2.743      6.922
REMARK  Name = 
REMARK  11 active torsions:
REMARK  status: ('A' for Active; 'I' for Inactive)
REMARK    1  A    between atoms: C_2  and  C_3
REMARK    2  A    between atoms: C_3  and  O_4
REMARK    3  A    between atoms: N_7  and  O_8
REMARK    4  A    between atoms: O_8  and  C_9
REMARK    5  A    between atoms: N_11  and  C_12
REMARK    6  A    between atoms: C_18  and  N_20
REMARK    7  A    between atoms: C_21  and  C_23
REMARK    8  A    between atoms: C_23  and  C_24
REMARK    9  A    between atoms: C_24  and  C_25
REMARK   10  A    between atoms: C_26  and  O_28
REMARK   11  A    between atoms: C_29  and  O_31
REMARK                            x       y       z     vdW  Elec       q    Type
REMARK                         _______ _______ _______ _____ _____    ______ ____
ROOT
ATOM      1  C   UNL     1       8.363   0.629  22.191  0.00  0.00    +0.231 C 
ATOM      2  C   UNL     1       7.561   1.752  22.865  0.00  0.00    +0.188 C 
ATOM      3  C   UNL     1       7.942   1.882  24.348  0.00  0.00    +0.176 C 
ATOM      4  C   UNL     1       7.751   0.531  25.067  0.00  0.00    +0.193 C 
ATOM      5  C   UNL     1       8.556  -0.512  24.301  0.00  0.00    +0.251 C 
ATOM      6  N   UNL     1       9.358  -1.300  24.935  0.00  0.00    -0.037 NA
ATOM      7  O   UNL     1       8.344  -0.600  22.970  0.00  0.00    -0.468 OA
ENDROOT
BRANCH   4   8
ATOM      8  N   UNL     1       6.335   0.137  25.192  0.00  0.00    -0.302 N 
ATOM      9  H   UNL     1       5.788   0.053  24.340  0.00  0.00    +0.150 HD
ATOM     10  C   UNL     1       5.955  -0.673  26.251  0.00  0.00    +0.214 C 
ATOM     11  O   UNL     1       6.761  -1.113  27.064  0.00  0.00    -0.276 OA
BRANCH  10  12
ATOM     12  C   UNL     1       4.466  -0.949  26.335  0.00  0.00    +0.095 C 
BRANCH  12  13
ATOM     13  C   UNL     1       4.214  -2.426  26.659  0.00  0.00    +0.006 C 
ATOM     14  C   UNL     1       2.954  -2.961  25.997  0.00  0.00    +0.004 C 
ENDBRANCH  12  13
ENDBRANCH  10  12
ENDBRANCH   4   8
BRANCH   2  15
ATOM     15  O   UNL     1       6.160   1.479  22.707  0.00  0.00    -0.385 OA
ATOM     16  H   UNL     1       5.875   1.868  21.860  0.00  0.00    +0.210 HD
ENDBRANCH   2  15
BRANCH   3  17
ATOM     17  O   UNL     1       9.292   2.354  24.450  0.00  0.00    -0.387 OA
ATOM     18  H   UNL     1       9.764   1.848  25.136  0.00  0.00    +0.210 HD
ENDBRANCH   3  17
BRANCH   1  19
ATOM     19  C   UNL     1       9.822   1.028  21.897  0.00  0.00    +0.203 C 
BRANCH  19  20
ATOM     20  O   UNL     1       9.904   2.407  21.531  0.00  0.00    -0.391 OA
ATOM     21  H   UNL     1      10.797   2.567  21.187  0.00  0.00    +0.210 HD
ENDBRANCH  19  20
ENDBRANCH   1  19
BRANCH   6  22
ATOM     22  O   UNL     1      10.066  -2.163  24.064  0.00  0.00    -0.296 OA
BRANCH  22  23
ATOM     23  C   UNL     1       9.489  -3.418  24.111  0.00  0.00    +0.430 C 
ATOM     24  N   UNL     1       8.307  -3.429  23.402  0.00  0.00    -0.249 N 
ATOM     25  H   UNL     1       8.135  -2.608  22.839  0.00  0.00    +0.158 HD
ATOM     26  O   UNL     1       9.975  -4.369  24.716  0.00  0.00    -0.224 OA
BRANCH  24  27
ATOM     27  C   UNL     1       7.312  -4.431  23.440  0.00  0.00    +0.037 A 
ATOM     28  C   UNL     1       7.183  -5.286  22.337  0.00  0.00    +0.023 A 
ATOM     29  C   UNL     1       6.163  -6.242  22.290  0.00  0.00    +0.002 A 
ATOM     30  C   UNL     1       5.256  -6.355  23.344  0.00  0.00    +0.000 A 
ATOM     31  C   UNL     1       5.384  -5.520  24.450  0.00  0.00    +0.002 A 
ATOM     32  C   UNL     1       6.406  -4.570  24.498  0.00  0.00    +0.023 A 
ENDBRANCH  24  27
ENDBRANCH  22  23
ENDBRANCH   6  22
TORSDOF 10
ENDMDL
MODEL 8
REMARK VINA RESULT:      -6.1      2.039      8.063
REMARK  Name = 
REMARK  11 active torsions:
REMARK  status: ('A' for Active; 'I' for Inactive)
REMARK    1  A    between atoms: C_2  and  C_3
REMARK    2  A    between atoms: C_3  and  O_4
REMARK    3  A    between atoms: N_7  and  O_8
REMARK    4  A    between atoms: O_8  and  C_9
REMARK    5  A    between atoms: N_11  and  C_12
REMARK    6  A    between atoms: C_18  and  N_20
REMARK    7  A    between atoms: C_21  and  C_23
REMARK    8  A    between atoms: C_23  and  C_24
REMARK    9  A    between atoms: C_24  and  C_25
REMARK   10  A    between atoms: C_26  and  O_28
REMARK   11  A    between atoms: C_29  and  O_31
REMARK                            x       y       z     vdW  Elec       q    Type
REMARK                         _______ _______ _______ _____ _____    ______ ____
ROOT
ATOM      1  C   UNL     1       7.270   0.448  26.610  0.00  0.00    +0.231 C 
ATOM      2  C   UNL     1       6.916   1.730  25.840  0.00  0.00    +0.188 C 
ATOM      3  C   UNL     1       7.059   1.514  24.325  0.00  0.00    +0.176 C 
ATOM      4  C   UNL     1       8.481   1.019  23.990  0.00  0.00    +0.193 C 
ATOM      5  C   UNL     1       8.741  -0.227  24.828  0.00  0.00    +0.251 C 
ATOM      6  N   UNL     1       9.198  -1.297  24.268  0.00  0.00    -0.037 NA
ATOM      7  O   UNL     1       8.526  -0.132  26.158  0.00  0.00    -0.468 OA
ENDROOT
BRANCH   4   8
ATOM      8  N   UNL     1       9.518   2.045  24.209  0.00  0.00    -0.302 N 
ATOM      9  H   UNL     1       9.961   2.084  25.122  0.00  0.00    +0.150 HD
ATOM     10  C   UNL     1      10.284   2.465  23.133  0.00  0.00    +0.214 C 
ATOM     11  O   UNL     1      10.162   1.984  22.012  0.00  0.00    -0.276 OA
BRANCH  10  12
ATOM     12  C   UNL     1      11.261   3.582  23.448  0.00  0.00    +0.095 C 
BRANCH  12  13
ATOM     13  C   UNL     1      10.508   4.887  23.730  0.00  0.00    +0.006 C 
ATOM     14  C   UNL     1      11.445   6.045  24.035  0.00  0.00    +0.004 C 
ENDBRANCH  12  13
ENDBRANCH  10  12
ENDBRANCH   4   8
BRANCH   2  15
ATOM     15  O   UNL     1       7.763   2.794  26.299  0.00  0.00    -0.385 OA
ATOM     16  H   UNL     1       7.492   3.609  25.838  0.00  0.00    +0.210 HD
ENDBRANCH   2  15
BRANCH   3  17
ATOM     17  O   UNL     1       6.055   0.592  23.881  0.00  0.00    -0.387 OA
ATOM     18  H   UNL     1       5.211   0.788  24.329  0.00  0.00    +0.210 HD
ENDBRANCH   3  17
BRANCH   1  19
ATOM     19  C   UNL     1       6.160  -0.617  26.543  0.00  0.00    +0.203 C 
BRANCH  19  20
ATOM     20  O   UNL     1       6.593  -1.751  25.788  0.00  0.00    -0.391 OA
ATOM     21  H   UNL     1       5.941  -2.459  25.922  0.00  0.00    +0.210 HD
ENDBRANCH  19  20
ENDBRANCH   1  19
BRANCH   6  22
ATOM     22  O   UNL     1       9.324  -2.372  25.182  0.00  0.00    -0.296 OA
BRANCH  22  23
ATOM     23  C   UNL     1       9.012  -3.550  24.531  0.00  0.00    +0.430 C 
ATOM     24  N   UNL     1       7.822  -3.420  23.847  0.00  0.00    -0.249 N 
ATOM     25  H   UNL     1       7.462  -2.478  23.786  0.00  0.00    +0.158 HD
ATOM     26  O   UNL     1       9.708  -4.560  24.579  0.00  0.00    -0.224 OA
BRANCH  24  27
ATOM     27  C   UNL     1       7.052  -4.467  23.294  0.00  0.00    +0.037 A 
ATOM     28  C   UNL     1       7.178  -4.737  21.925  0.00  0.00    +0.023 A 
ATOM     29  C   UNL     1       6.379  -5.708  21.311  0.00  0.00    +0.002 A 
ATOM     30  C   UNL     1       5.441  -6.420  22.058  0.00  0.00    +0.000 A 
ATOM     31  C   UNL     1       5.317  -6.168  23.421  0.00  0.00    +0.002 A 
ATOM     32  C   UNL     1       6.118  -5.203  24.033  0.00  0.00    +0.023 A 
ENDBRANCH  24  27
ENDBRANCH  22  23
ENDBRANCH   6  22
TORSDOF 10
ENDMDL
MODEL 9
REMARK VINA RESULT:      -6.0      2.867      5.030
REMARK  Name = 
REMARK  11 active torsions:
REMARK  status: ('A' for Active; 'I' for Inactive)
REMARK    1  A    between atoms: C_2  and  C_3
REMARK    2  A    between atoms: C_3  and  O_4
REMARK    3  A    between atoms: N_7  and  O_8
REMARK    4  A    between atoms: O_8  and  C_9
REMARK    5  A    between atoms: N_11  and  C_12
REMARK    6  A    between atoms: C_18  and  N_20
REMARK    7  A    between atoms: C_21  and  C_23
REMARK    8  A    between atoms: C_23  and  C_24
REMARK    9  A    between atoms: C_24  and  C_25
REMARK   10  A    between atoms: C_26  and  O_28
REMARK   11  A    between atoms: C_29  and  O_31
REMARK                            x       y       z     vdW  Elec       q    Type
REMARK                         _______ _______ _______ _____ _____    ______ ____
ROOT
ATOM      1  C   UNL     1       6.705  -4.614  25.154  0.00  0.00    +0.231 C 
ATOM      2  C   UNL     1       7.910  -5.279  24.472  0.00  0.00    +0.188 C 
ATOM      3  C   UNL     1       9.228  -4.785  25.090  0.00  0.00    +0.176 C 
ATOM      4  C   UNL     1       9.307  -3.247  25.019  0.00  0.00    +0.193 C 
ATOM      5  C   UNL     1       8.054  -2.694  25.688  0.00  0.00    +0.251 C 
ATOM      6  N   UNL     1       8.157  -1.769  26.583  0.00  0.00    -0.037 NA
ATOM      7  O   UNL     1       6.865  -3.171  25.262  0.00  0.00    -0.468 OA
ENDROOT
BRANCH   4   8
ATOM      8  N   UNL     1       9.455  -2.738  23.642  0.00  0.00    -0.302 N 
ATOM      9  H   UNL     1       8.817  -3.091  22.935  0.00  0.00    +0.150 HD
ATOM     10  C   UNL     1       9.939  -1.454  23.450  0.00  0.00    +0.214 C 
ATOM     11  O   UNL     1      10.209  -0.706  24.385  0.00  0.00    -0.276 OA
BRANCH  10  12
ATOM     12  C   UNL     1      10.133  -1.059  21.998  0.00  0.00    +0.095 C 
BRANCH  12  13
ATOM     13  C   UNL     1       9.222   0.120  21.640  0.00  0.00    +0.006 C 
ATOM     14  C   UNL     1       9.896   1.464  21.864  0.00  0.00    +0.004 C 
ENDBRANCH  12  13
ENDBRANCH  10  12
ENDBRANCH   4   8
BRANCH   2  15
ATOM     15  O   UNL     1       7.857  -5.001  23.064  0.00  0.00    -0.385 OA
ATOM     16  H   UNL     1       8.460  -5.622  22.616  0.00  0.00    +0.210 HD
ENDBRANCH   2  15
BRANCH   3  17
ATOM     17  O   UNL     1       9.326  -5.263  26.439  0.00  0.00    -0.387 OA
ATOM     18  H   UNL     1       9.025  -4.569  27.053  0.00  0.00    +0.210 HD
ENDBRANCH   3  17
BRANCH   1  19
ATOM     19  C   UNL     1       6.403  -5.203  26.545  0.00  0.00    +0.203 C 
BRANCH  19  20
ATOM     20  O   UNL     1       6.760  -4.276  27.573  0.00  0.00    -0.391 OA
ATOM     21  H   UNL     1       7.726  -4.294  27.662  0.00  0.00    +0.210 HD
ENDBRANCH  19  20
ENDBRANCH   1  19
BRANCH   6  22
ATOM     22  O   UNL     1       6.903  -1.416  27.139  0.00  0.00    -0.296 OA
BRANCH  22  23
ATOM     23  C   UNL     1       6.501  -0.208  26.603  0.00  0.00    +0.430 C 
ATOM     24  N   UNL     1       7.209   0.065  25.452  0.00  0.00    -0.249 N 
ATOM     25  H   UNL     1       7.765  -0.700  25.097  0.00  0.00    +0.158 HD
ATOM     26  O   UNL     1       5.639   0.507  27.105  0.00  0.00    -0.224 OA
BRANCH  24  27
ATOM     27  C   UNL     1       7.273   1.305  24.778  0.00  0.00    +0.037 A 
ATOM     28  C   UNL     1       8.231   2.240  25.192  0.00  0.00    +0.023 A 
ATOM     29  C   UNL     1       8.284   3.513  24.614  0.00  0.00    +0.002 A 
ATOM     30  C   UNL     1       7.378   3.868  23.614  0.00  0.00    +0.000 A 
ATOM     31  C   UNL     1       6.432   2.942  23.187  0.00  0.00    +0.002 A 
ATOM     32  C   UNL     1       6.383   1.671  23.761  0.00  0.00    +0.023 A 
ENDBRANCH  24  27
ENDBRANCH  22  23
ENDBRANCH   6  22
TORSDOF 10
ENDMDL
