MODEL 1
REMARK VINA RESULT:      -7.5      0.000      0.000
REMARK  Name = 
REMARK  16 active torsions:
REMARK  status: ('A' for Active; 'I' for Inactive)
REMARK    1  A    between atoms: C_1  and  C_2
REMARK    2  A    between atoms: C_5  and  O_7
REMARK    3  A    between atoms: O_7  and  P_8
REMARK    4  A    between atoms: P_8  and  O_9
REMARK    5  A    between atoms: P_8  and  O_11
REMARK    6  A    between atoms: O_11  and  P_12
REMARK    7  A    between atoms: P_12  and  O_13
REMARK    8  A    between atoms: P_12  and  O_15
REMARK    9  A    between atoms: O_15  and  C_16
REMARK   10  A    between atoms: C_16  and  C_17
REMARK   11  A    between atoms: C_20  and  N_26
REMARK   12  A    between atoms: C_23  and  O_25
REMARK   13  A    between atoms: C_28  and  C_29
REMARK   14  A    between atoms: C_35  and  O_37
REMARK   15  A    between atoms: C_38  and  O_40
REMARK   16  A    between atoms: C_41  and  O_43
REMARK                            x       y       z     vdW  Elec       q    Type
REMARK                         _______ _______ _______ _____ _____    ______ ____
ROOT
ATOM      1  P   UNL     1       8.806  -2.876  23.503  0.00  0.00    +0.483 P 
ATOM      2  O   UNL     1      10.267  -2.765  23.790  0.00  0.00    -0.227 OA
ENDROOT
BRANCH   1   3
ATOM      3  O   UNL     1       7.884  -2.472  24.752  0.00  0.00    -0.302 OA
ATOM      4  H   UNL     1       8.423  -2.184  25.512  0.00  0.00    +0.222 HD
ENDBRANCH   1   3
BRANCH   1   5
ATOM      5  O   UNL     1       8.285  -4.363  23.233  0.00  0.00    -0.186 OA
BRANCH   5   6
ATOM      6  P   UNL     1       6.935  -4.560  22.169  0.00  0.00    +0.486 P 
ATOM      7  O   UNL     1       7.205  -6.053  21.969  0.00  0.00    -0.227 OA
BRANCH   6   8
ATOM      8  O   UNL     1       5.586  -4.757  21.105  0.00  0.00    -0.302 OA
ATOM      9  H   UNL     1       5.718  -4.060  20.435  0.00  0.00    +0.222 HD
ENDBRANCH   6   8
BRANCH   6  10
ATOM     10  O   UNL     1       5.882  -4.325  23.415  0.00  0.00    -0.254 OA
BRANCH  10  16
ATOM     11  C   UNL     1       6.453  -4.851  27.976  0.00  0.00    +0.041 C 
ATOM     12  C   UNL     1       6.091  -5.634  26.726  0.00  0.00    +0.149 C 
ATOM     13  C   UNL     1       4.831  -6.499  26.869  0.00  0.00    +0.174 C 
ATOM     14  C   UNL     1       4.512  -7.158  25.507  0.00  0.00    +0.179 C 
ATOM     15  C   UNL     1       4.523  -6.141  24.347  0.00  0.00    +0.202 C 
ATOM     16  C   UNL     1       5.825  -5.312  24.419  0.00  0.00    +0.293 C 
ATOM     17  O   UNL     1       5.887  -4.684  25.685  0.00  0.00    -0.343 OA
BRANCH  13  18
ATOM     18  O   UNL     1       5.031  -7.475  27.896  0.00  0.00    -0.387 OA
ATOM     19  H   UNL     1       5.946  -7.414  28.216  0.00  0.00    +0.210 HD
ENDBRANCH  13  18
BRANCH  14  20
ATOM     20  O   UNL     1       3.248  -7.832  25.554  0.00  0.00    -0.386 OA
ATOM     21  H   UNL     1       3.310  -8.578  24.926  0.00  0.00    +0.210 HD
ENDBRANCH  14  20
BRANCH  15  22
ATOM     22  O   UNL     1       4.355  -6.870  23.119  0.00  0.00    -0.384 OA
ATOM     23  H   UNL     1       4.914  -6.472  22.429  0.00  0.00    +0.210 HD
ENDBRANCH  15  22
ENDBRANCH  10  16
ENDBRANCH   6  10
ENDBRANCH   5   6
ENDBRANCH   1   5
BRANCH   1  24
ATOM     24  O   UNL     1       8.213  -1.910  22.349  0.00  0.00    -0.284 OA
BRANCH  24  25
ATOM     25  C   UNL     1       9.077  -0.881  21.852  0.00  0.00    +0.206 C 
BRANCH  25  26
ATOM     26  C   UNL     1       8.768   0.518  22.430  0.00  0.00    +0.175 C 
ATOM     27  C   UNL     1      10.048   1.331  22.639  0.00  0.00    +0.150 C 
ATOM     28  C   UNL     1       9.852   2.064  23.952  0.00  0.00    +0.088 C 
ATOM     29  C   UNL     1       8.400   1.796  24.337  0.00  0.00    +0.226 C 
ATOM     30  O   UNL     1       8.146   0.488  23.738  0.00  0.00    -0.348 OA
BRANCH  29  31
ATOM     31  N   UNL     1       7.372   2.761  23.892  0.00  0.00    -0.274 N 
ATOM     32  C   UNL     1       6.017   2.447  23.948  0.00  0.00    +0.331 A 
ATOM     33  O   UNL     1       5.553   1.375  24.333  0.00  0.00    -0.246 OA
ATOM     34  N   UNL     1       5.159   3.428  23.521  0.00  0.00    -0.275 N 
ATOM     35  H   UNL     1       4.172   3.239  23.614  0.00  0.00    +0.173 HD
ATOM     36  C   UNL     1       5.502   4.612  22.934  0.00  0.00    +0.257 A 
ATOM     37  O   UNL     1       4.668   5.436  22.580  0.00  0.00    -0.267 OA
ATOM     38  C   UNL     1       6.951   4.812  22.719  0.00  0.00    +0.030 A 
ATOM     39  C   UNL     1       7.390   6.032  21.982  0.00  0.00    +0.051 C 
ATOM     40  C   UNL     1       7.791   3.887  23.195  0.00  0.00    +0.101 A 
ENDBRANCH  29  31
BRANCH  27  41
ATOM     41  O   UNL     1      10.241   2.221  21.548  0.00  0.00    -0.389 OA
ATOM     42  H   UNL     1      10.825   1.795  20.895  0.00  0.00    +0.210 HD
ENDBRANCH  27  41
ENDBRANCH  25  26
ENDBRANCH  24  25
ENDBRANCH   1  24
TORSDOF 14
ENDMDL
MODEL 2
REMARK VINA RESULT:      -7.5      2.960      9.397
REMARK  Name = 
REMARK  16 active torsions:
REMARK  status: ('A' for Active; 'I' for Inactive)
REMARK    1  A    between atoms: C_1  and  C_2
REMARK    2  A    between atoms: C_5  and  O_7
REMARK    3  A    between atoms: O_7  and  P_8
REMARK    4  A    between atoms: P_8  and  O_9
REMARK    5  A    between atoms: P_8  and  O_11
REMARK    6  A    between atoms: O_11  and  P_12
REMARK    7  A    between atoms: P_12  and  O_13
REMARK    8  A    between atoms: P_12  and  O_15
REMARK    9  A    between atoms: O_15  and  C_16
REMARK   10  A    between atoms: C_16  and  C_17
REMARK   11  A    between atoms: C_20  and  N_26
REMARK   12  A    between atoms: C_23  and  O_25
REMARK   13  A    between atoms: C_28  and  C_29
REMARK   14  A    between atoms: C_35  and  O_37
REMARK   15  A    between atoms: C_38  and  O_40
REMARK   16  A    between atoms: C_41  and  O_43
REMARK                            x       y       z     vdW  Elec       q    Type
REMARK                         _______ _______ _______ _____ _____    ______ ____
ROOT
ATOM      1  P   UNL     1       9.429  -1.897  22.763  0.00  0.00    +0.483 P 
ATOM      2  O   UNL     1      10.044  -2.822  23.760  0.00  0.00    -0.227 OA
ENDROOT
BRANCH   1   3
ATOM      3  O   UNL     1      10.413  -1.528  21.551  0.00  0.00    -0.302 OA
ATOM      4  H   UNL     1      10.088  -0.754  21.055  0.00  0.00    +0.222 HD
ENDBRANCH   1   3
BRANCH   1   5
ATOM      5  O   UNL     1       9.100  -0.434  23.318  0.00  0.00    -0.186 OA
BRANCH   5   6
ATOM      6  P   UNL     1       9.728   0.918  22.440  0.00  0.00    +0.486 P 
ATOM      7  O   UNL     1       8.828   0.656  21.231  0.00  0.00    -0.227 OA
BRANCH   6   8
ATOM      8  O   UNL     1      10.356   2.269  21.561  0.00  0.00    -0.302 OA
ATOM      9  H   UNL     1       9.962   2.168  20.673  0.00  0.00    +0.222 HD
ENDBRANCH   6   8
BRANCH   6  10
ATOM     10  O   UNL     1       9.005   1.969  23.483  0.00  0.00    -0.254 OA
BRANCH  10  16
ATOM     11  C   UNL     1       4.655   3.211  22.511  0.00  0.00    +0.041 C 
ATOM     12  C   UNL     1       6.083   3.721  22.427  0.00  0.00    +0.149 C 
ATOM     13  C   UNL     1       6.277   5.141  22.974  0.00  0.00    +0.174 C 
ATOM     14  C   UNL     1       7.780   5.502  22.929  0.00  0.00    +0.179 C 
ATOM     15  C   UNL     1       8.666   4.397  23.544  0.00  0.00    +0.202 C 
ATOM     16  C   UNL     1       8.268   3.036  22.930  0.00  0.00    +0.293 C 
ATOM     17  O   UNL     1       6.892   2.819  23.175  0.00  0.00    -0.343 OA
BRANCH  13  18
ATOM     18  O   UNL     1       5.488   6.062  22.215  0.00  0.00    -0.387 OA
ATOM     19  H   UNL     1       5.538   5.821  21.276  0.00  0.00    +0.210 HD
ENDBRANCH  13  18
BRANCH  14  20
ATOM     20  O   UNL     1       8.022   6.748  23.592  0.00  0.00    -0.386 OA
ATOM     21  H   UNL     1       8.963   6.741  23.857  0.00  0.00    +0.210 HD
ENDBRANCH  14  20
BRANCH  15  22
ATOM     22  O   UNL     1      10.040   4.763  23.328  0.00  0.00    -0.384 OA
ATOM     23  H   UNL     1      10.442   4.142  22.696  0.00  0.00    +0.210 HD
ENDBRANCH  15  22
ENDBRANCH  10  16
ENDBRANCH   6  10
ENDBRANCH   5   6
ENDBRANCH   1   5
BRANCH   1  24
ATOM     24  O   UNL     1       8.134  -2.442  21.962  0.00  0.00    -0.284 OA
BRANCH  24  25
ATOM     25  C   UNL     1       6.883  -2.432  22.661  0.00  0.00    +0.206 C 
BRANCH  25  26
ATOM     26  C   UNL     1       6.479  -3.811  23.225  0.00  0.00    +0.175 C 
ATOM     27  C   UNL     1       7.157  -4.949  22.458  0.00  0.00    +0.150 C 
ATOM     28  C   UNL     1       6.104  -6.032  22.324  0.00  0.00    +0.088 C 
ATOM     29  C   UNL     1       4.939  -5.552  23.185  0.00  0.00    +0.226 C 
ATOM     30  O   UNL     1       5.063  -4.099  23.112  0.00  0.00    -0.348 OA
BRANCH  29  31
ATOM     31  N   UNL     1       4.893  -5.984  24.599  0.00  0.00    -0.274 N 
ATOM     32  C   UNL     1       4.154  -7.097  24.988  0.00  0.00    +0.331 A 
ATOM     33  O   UNL     1       3.474  -7.795  24.238  0.00  0.00    -0.246 OA
ATOM     34  N   UNL     1       4.200  -7.407  26.324  0.00  0.00    -0.275 N 
ATOM     35  H   UNL     1       3.722  -8.247  26.612  0.00  0.00    +0.173 HD
ATOM     36  C   UNL     1       4.783  -6.667  27.312  0.00  0.00    +0.257 A 
ATOM     37  O   UNL     1       4.778  -7.017  28.486  0.00  0.00    -0.267 OA
ATOM     38  C   UNL     1       5.386  -5.391  26.871  0.00  0.00    +0.030 A 
ATOM     39  C   UNL     1       5.940  -4.479  27.913  0.00  0.00    +0.051 C 
ATOM     40  C   UNL     1       5.400  -5.121  25.562  0.00  0.00    +0.101 A 
ENDBRANCH  29  31
BRANCH  27  41
ATOM     41  O   UNL     1       8.303  -5.397  23.169  0.00  0.00    -0.389 OA
ATOM     42  H   UNL     1       8.970  -4.686  23.171  0.00  0.00    +0.210 HD
ENDBRANCH  27  41
ENDBRANCH  25  26
ENDBRANCH  24  25
ENDBRANCH   1  24
TORSDOF 14
ENDMDL
MODEL 3
REMARK VINA RESULT:      -7.4      2.933      8.573
REMARK  Name = 
REMARK  16 active torsions:
REMARK  status: ('A' for Active; 'I' for Inactive)
REMARK    1  A    between atoms: C_1  and  C_2
REMARK    2  A    between atoms: C_5  and  O_7
REMARK    3  A    between atoms: O_7  and  P_8
REMARK    4  A    between atoms: P_8  and  O_9
REMARK    5  A    between atoms: P_8  and  O_11
REMARK    6  A    between atoms: O_11  and  P_12
REMARK    7  A    between atoms: P_12  and  O_13
REMARK    8  A    between atoms: P_12  and  O_15
REMARK    9  A    between atoms: O_15  and  C_16
REMARK   10  A    between atoms: C_16  and  C_17
REMARK   11  A    between atoms: C_20  and  N_26
REMARK   12  A    between atoms: C_23  and  O_25
REMARK   13  A    between atoms: C_28  and  C_29
REMARK   14  A    between atoms: C_35  and  O_37
REMARK   15  A    between atoms: C_38  and  O_40
REMARK   16  A    between atoms: C_41  and  O_43
REMARK                            x       y       z     vdW  Elec       q    Type
REMARK                         _______ _______ _______ _____ _____    ______ ____
ROOT
ATOM      1  P   UNL     1       9.482  -1.936  22.818  0.00  0.00    +0.483 P 
ATOM      2  O   UNL     1      10.042  -2.882  23.828  0.00  0.00    -0.227 OA
ENDROOT
BRANCH   1   3
ATOM      3  O   UNL     1      10.518  -1.574  21.648  0.00  0.00    -0.302 OA
ATOM      4  H   UNL     1      10.151  -1.791  20.771  0.00  0.00    +0.222 HD
ENDBRANCH   1   3
BRANCH   1   5
ATOM      5  O   UNL     1       9.158  -0.473  23.376  0.00  0.00    -0.186 OA
BRANCH   5   6
ATOM      6  P   UNL     1       9.699   0.879  22.442  0.00  0.00    +0.486 P 
ATOM      7  O   UNL     1       8.852   0.486  21.230  0.00  0.00    -0.227 OA
BRANCH   6   8
ATOM      8  O   UNL     1      10.240   2.231  21.508  0.00  0.00    -0.302 OA
ATOM      9  H   UNL     1       9.590   2.929  21.716  0.00  0.00    +0.222 HD
ENDBRANCH   6   8
BRANCH   6  10
ATOM     10  O   UNL     1       8.870   1.920  23.414  0.00  0.00    -0.254 OA
BRANCH  10  16
ATOM     11  C   UNL     1       5.009   0.962  25.778  0.00  0.00    +0.041 C 
ATOM     12  C   UNL     1       5.479   1.504  24.440  0.00  0.00    +0.149 C 
ATOM     13  C   UNL     1       4.795   2.810  24.015  0.00  0.00    +0.174 C 
ATOM     14  C   UNL     1       5.430   3.310  22.697  0.00  0.00    +0.179 C 
ATOM     15  C   UNL     1       6.972   3.327  22.759  0.00  0.00    +0.202 C 
ATOM     16  C   UNL     1       7.467   1.961  23.283  0.00  0.00    +0.293 C 
ATOM     17  O   UNL     1       6.881   1.728  24.550  0.00  0.00    -0.343 OA
BRANCH  13  18
ATOM     18  O   UNL     1       3.388   2.593  23.875  0.00  0.00    -0.387 OA
ATOM     19  H   UNL     1       3.237   1.686  23.565  0.00  0.00    +0.210 HD
ENDBRANCH  13  18
BRANCH  14  20
ATOM     20  O   UNL     1       4.940   4.614  22.361  0.00  0.00    -0.386 OA
ATOM     21  H   UNL     1       4.191   4.479  21.748  0.00  0.00    +0.210 HD
ENDBRANCH  14  20
BRANCH  15  22
ATOM     22  O   UNL     1       7.462   3.670  21.451  0.00  0.00    -0.384 OA
ATOM     23  H   UNL     1       7.726   4.607  21.442  0.00  0.00    +0.210 HD
ENDBRANCH  15  22
ENDBRANCH  10  16
ENDBRANCH   6  10
ENDBRANCH   5   6
ENDBRANCH   1   5
BRANCH   1  24
ATOM     24  O   UNL     1       8.209  -2.449  21.963  0.00  0.00    -0.284 OA
BRANCH  24  25
ATOM     25  C   UNL     1       6.934  -2.435  22.618  0.00  0.00    +0.206 C 
BRANCH  25  26
ATOM     26  C   UNL     1       6.512  -3.810  23.179  0.00  0.00    +0.175 C 
ATOM     27  C   UNL     1       7.147  -4.956  22.387  0.00  0.00    +0.150 C 
ATOM     28  C   UNL     1       6.067  -6.014  22.267  0.00  0.00    +0.088 C 
ATOM     29  C   UNL     1       4.933  -5.517  23.158  0.00  0.00    +0.226 C 
ATOM     30  O   UNL     1       5.088  -4.066  23.095  0.00  0.00    -0.348 OA
BRANCH  29  31
ATOM     31  N   UNL     1       4.909  -5.960  24.569  0.00  0.00    -0.274 N 
ATOM     32  C   UNL     1       4.176  -7.077  24.959  0.00  0.00    +0.331 A 
ATOM     33  O   UNL     1       3.484  -7.769  24.214  0.00  0.00    -0.246 OA
ATOM     34  N   UNL     1       4.242  -7.398  26.292  0.00  0.00    -0.275 N 
ATOM     35  H   UNL     1       3.768  -8.241  26.579  0.00  0.00    +0.173 HD
ATOM     36  C   UNL     1       4.840  -6.666  27.277  0.00  0.00    +0.257 A 
ATOM     37  O   UNL     1       4.853  -7.026  28.447  0.00  0.00    -0.267 OA
ATOM     38  C   UNL     1       5.437  -5.387  26.838  0.00  0.00    +0.030 A 
ATOM     39  C   UNL     1       6.006  -4.484  27.879  0.00  0.00    +0.051 C 
ATOM     40  C   UNL     1       5.430  -5.106  25.531  0.00  0.00    +0.101 A 
ENDBRANCH  29  31
BRANCH  27  41
ATOM     41  O   UNL     1       8.298  -5.436  23.068  0.00  0.00    -0.389 OA
ATOM     42  H   UNL     1       8.196  -6.393  23.224  0.00  0.00    +0.210 HD
ENDBRANCH  27  41
ENDBRANCH  25  26
ENDBRANCH  24  25
ENDBRANCH   1  24
TORSDOF 14
ENDMDL
MODEL 4
REMARK VINA RESULT:      -7.4      1.455      2.288
REMARK  Name = 
REMARK  16 active torsions:
REMARK  status: ('A' for Active; 'I' for Inactive)
REMARK    1  A    between atoms: C_1  and  C_2
REMARK    2  A    between atoms: C_5  and  O_7
REMARK    3  A    between atoms: O_7  and  P_8
REMARK    4  A    between atoms: P_8  and  O_9
REMARK    5  A    between atoms: P_8  and  O_11
REMARK    6  A    between atoms: O_11  and  P_12
REMARK    7  A    between atoms: P_12  and  O_13
REMARK    8  A    between atoms: P_12  and  O_15
REMARK    9  A    between atoms: O_15  and  C_16
REMARK   10  A    between atoms: C_16  and  C_17
REMARK   11  A    between atoms: C_20  and  N_26
REMARK   12  A    between atoms: C_23  and  O_25
REMARK   13  A    between atoms: C_28  and  C_29
REMARK   14  A    between atoms: C_35  and  O_37
REMARK   15  A    between atoms: C_38  and  O_40
REMARK   16  A    between atoms: C_41  and  O_43
REMARK                            x       y       z     vdW  Elec       q    Type
REMARK                         _______ _______ _______ _____ _____    ______ ____
ROOT
ATOM      1  P   UNL     1       8.980  -2.671  23.490  0.00  0.00    +0.483 P 
ATOM      2  O   UNL     1       9.670  -3.838  24.116  0.00  0.00    -0.227 OA
ENDROOT
BRANCH   1   3
ATOM      3  O   UNL     1       8.026  -1.880  24.508  0.00  0.00    -0.302 OA
ATOM      4  H   UNL     1       7.733  -2.456  25.238  0.00  0.00    +0.222 HD
ENDBRANCH   1   3
BRANCH   1   5
ATOM      5  O   UNL     1       7.927  -3.048  22.346  0.00  0.00    -0.186 OA
BRANCH   5   6
ATOM      6  P   UNL     1       6.294  -3.353  22.828  0.00  0.00    +0.486 P 
ATOM      7  O   UNL     1       5.856  -3.717  21.408  0.00  0.00    -0.227 OA
BRANCH   6   8
ATOM      8  O   UNL     1       4.661  -3.658  23.309  0.00  0.00    -0.302 OA
ATOM      9  H   UNL     1       4.393  -2.829  23.750  0.00  0.00    +0.222 HD
ENDBRANCH   6   8
BRANCH   6  10
ATOM     10  O   UNL     1       6.759  -4.701  23.654  0.00  0.00    -0.254 OA
BRANCH  10  16
ATOM     11  C   UNL     1       3.348  -7.448  25.149  0.00  0.00    +0.041 C 
ATOM     12  C   UNL     1       4.335  -6.404  25.642  0.00  0.00    +0.149 C 
ATOM     13  C   UNL     1       5.105  -6.814  26.905  0.00  0.00    +0.174 C 
ATOM     14  C   UNL     1       6.145  -5.721  27.242  0.00  0.00    +0.179 C 
ATOM     15  C   UNL     1       6.993  -5.321  26.016  0.00  0.00    +0.202 C 
ATOM     16  C   UNL     1       6.049  -5.026  24.828  0.00  0.00    +0.293 C 
ATOM     17  O   UNL     1       5.262  -6.177  24.585  0.00  0.00    -0.343 OA
BRANCH  13  18
ATOM     18  O   UNL     1       4.187  -7.021  27.982  0.00  0.00    -0.387 OA
ATOM     19  H   UNL     1       3.646  -7.803  27.790  0.00  0.00    +0.210 HD
ENDBRANCH  13  18
BRANCH  14  20
ATOM     20  O   UNL     1       7.001  -6.146  28.309  0.00  0.00    -0.386 OA
ATOM     21  H   UNL     1       7.893  -5.807  28.100  0.00  0.00    +0.210 HD
ENDBRANCH  14  20
BRANCH  15  22
ATOM     22  O   UNL     1       7.825  -4.211  26.397  0.00  0.00    -0.384 OA
ATOM     23  H   UNL     1       8.725  -4.532  26.579  0.00  0.00    +0.210 HD
ENDBRANCH  15  22
ENDBRANCH  10  16
ENDBRANCH   6  10
ENDBRANCH   5   6
ENDBRANCH   1   5
BRANCH   1  24
ATOM     24  O   UNL     1       9.920  -1.474  22.944  0.00  0.00    -0.284 OA
BRANCH  24  25
ATOM     25  C   UNL     1       9.319  -0.528  22.052  0.00  0.00    +0.206 C 
BRANCH  25  26
ATOM     26  C   UNL     1       8.945   0.809  22.727  0.00  0.00    +0.175 C 
ATOM     27  C   UNL     1       9.740   1.025  24.018  0.00  0.00    +0.150 C 
ATOM     28  C   UNL     1       8.759   1.633  25.001  0.00  0.00    +0.088 C 
ATOM     29  C   UNL     1       7.507   1.920  24.178  0.00  0.00    +0.226 C 
ATOM     30  O   UNL     1       7.560   0.889  23.144  0.00  0.00    -0.348 OA
BRANCH  29  31
ATOM     31  N   UNL     1       7.375   3.254  23.552  0.00  0.00    -0.274 N 
ATOM     32  C   UNL     1       6.404   3.503  22.587  0.00  0.00    +0.331 A 
ATOM     33  O   UNL     1       5.605   2.674  22.153  0.00  0.00    -0.246 OA
ATOM     34  N   UNL     1       6.370   4.781  22.090  0.00  0.00    -0.275 N 
ATOM     35  H   UNL     1       5.633   4.995  21.436  0.00  0.00    +0.173 HD
ATOM     36  C   UNL     1       7.263   5.780  22.350  0.00  0.00    +0.257 A 
ATOM     37  O   UNL     1       7.160   6.899  21.863  0.00  0.00    -0.267 OA
ATOM     38  C   UNL     1       8.389   5.405  23.232  0.00  0.00    +0.030 A 
ATOM     39  C   UNL     1       9.463   6.412  23.468  0.00  0.00    +0.051 C 
ATOM     40  C   UNL     1       8.386   4.180  23.768  0.00  0.00    +0.101 A 
ENDBRANCH  29  31
BRANCH  27  41
ATOM     41  O   UNL     1      10.849   1.877  23.767  0.00  0.00    -0.389 OA
ATOM     42  H   UNL     1      10.567   2.593  23.169  0.00  0.00    +0.210 HD
ENDBRANCH  27  41
ENDBRANCH  25  26
ENDBRANCH  24  25
ENDBRANCH   1  24
TORSDOF 14
ENDMDL
MODEL 5
REMARK VINA RESULT:      -7.4      1.634      2.385
REMARK  Name = 
REMARK  16 active torsions:
REMARK  status: ('A' for Active; 'I' for Inactive)
REMARK    1  A    between atoms: C_1  and  C_2
REMARK    2  A    between atoms: C_5  and  O_7
REMARK    3  A    between atoms: O_7  and  P_8
REMARK    4  A    between atoms: P_8  and  O_9
REMARK    5  A    between atoms: P_8  and  O_11
REMARK    6  A    between atoms: O_11  and  P_12
REMARK    7  A    between atoms: P_12  and  O_13
REMARK    8  A    between atoms: P_12  and  O_15
REMARK    9  A    between atoms: O_15  and  C_16
REMARK   10  A    between atoms: C_16  and  C_17
REMARK   11  A    between atoms: C_20  and  N_26
REMARK   12  A    between atoms: C_23  and  O_25
REMARK   13  A    between atoms: C_28  and  C_29
REMARK   14  A    between atoms: C_35  and  O_37
REMARK   15  A    between atoms: C_38  and  O_40
REMARK   16  A    between atoms: C_41  and  O_43
REMARK                            x       y       z     vdW  Elec       q    Type
REMARK                         _______ _______ _______ _____ _____    ______ ____
ROOT
ATOM      1  P   UNL     1       9.125  -4.271  24.782  0.00  0.00    +0.483 P 
ATOM      2  O   UNL     1      10.279  -5.037  25.338  0.00  0.00    -0.227 OA
ENDROOT
BRANCH   1   3
ATOM      3  O   UNL     1       8.229  -3.567  25.911  0.00  0.00    -0.302 OA
ATOM      4  H   UNL     1       8.430  -2.616  25.980  0.00  0.00    +0.222 HD
ENDBRANCH   1   3
BRANCH   1   5
ATOM      5  O   UNL     1       8.016  -5.163  24.053  0.00  0.00    -0.186 OA
BRANCH   5   6
ATOM      6  P   UNL     1       7.064  -4.410  22.820  0.00  0.00    +0.486 P 
ATOM      7  O   UNL     1       7.033  -5.673  21.957  0.00  0.00    -0.227 OA
BRANCH   6   8
ATOM      8  O   UNL     1       6.113  -3.657  21.586  0.00  0.00    -0.302 OA
ATOM      9  H   UNL     1       6.652  -2.890  21.316  0.00  0.00    +0.222 HD
ENDBRANCH   6   8
BRANCH   6  10
ATOM     10  O   UNL     1       5.755  -4.360  23.819  0.00  0.00    -0.254 OA
BRANCH  10  16
ATOM     11  C   UNL     1       5.613  -4.733  28.429  0.00  0.00    +0.041 C 
ATOM     12  C   UNL     1       5.585  -5.578  27.168  0.00  0.00    +0.149 C 
ATOM     13  C   UNL     1       4.458  -6.619  27.133  0.00  0.00    +0.174 C 
ATOM     14  C   UNL     1       4.473  -7.337  25.764  0.00  0.00    +0.179 C 
ATOM     15  C   UNL     1       4.534  -6.345  24.583  0.00  0.00    +0.202 C 
ATOM     16  C   UNL     1       5.671  -5.331  24.838  0.00  0.00    +0.293 C 
ATOM     17  O   UNL     1       5.426  -4.683  26.071  0.00  0.00    -0.343 OA
BRANCH  13  18
ATOM     18  O   UNL     1       4.620  -7.539  28.215  0.00  0.00    -0.387 OA
ATOM     19  H   UNL     1       5.328  -7.222  28.797  0.00  0.00    +0.210 HD
ENDBRANCH  13  18
BRANCH  14  20
ATOM     20  O   UNL     1       3.330  -8.190  25.626  0.00  0.00    -0.386 OA
ATOM     21  H   UNL     1       3.669  -9.107  25.626  0.00  0.00    +0.210 HD
ENDBRANCH  14  20
BRANCH  15  22
ATOM     22  O   UNL     1       4.684  -7.108  23.373  0.00  0.00    -0.384 OA
ATOM     23  H   UNL     1       5.329  -6.668  22.793  0.00  0.00    +0.210 HD
ENDBRANCH  15  22
ENDBRANCH  10  16
ENDBRANCH   6  10
ENDBRANCH   5   6
ENDBRANCH   1   5
BRANCH   1  24
ATOM     24  O   UNL     1       9.475  -3.013  23.829  0.00  0.00    -0.284 OA
BRANCH  24  25
ATOM     25  C   UNL     1       9.738  -1.760  24.472  0.00  0.00    +0.206 C 
BRANCH  25  26
ATOM     26  C   UNL     1       9.361  -0.533  23.615  0.00  0.00    +0.175 C 
ATOM     27  C   UNL     1       8.617  -0.947  22.343  0.00  0.00    +0.150 C 
ATOM     28  C   UNL     1       9.152  -0.044  21.248  0.00  0.00    +0.088 C 
ATOM     29  C   UNL     1      10.028   0.973  21.973  0.00  0.00    +0.226 C 
ATOM     30  O   UNL     1      10.501   0.219  23.132  0.00  0.00    -0.348 OA
BRANCH  29  31
ATOM     31  N   UNL     1       9.406   2.239  22.416  0.00  0.00    -0.274 N 
ATOM     32  C   UNL     1      10.106   3.148  23.204  0.00  0.00    +0.331 A 
ATOM     33  O   UNL     1      11.253   2.992  23.618  0.00  0.00    -0.246 OA
ATOM     34  N   UNL     1       9.428   4.292  23.540  0.00  0.00    -0.275 N 
ATOM     35  H   UNL     1       9.942   4.989  24.058  0.00  0.00    +0.173 HD
ATOM     36  C   UNL     1       8.114   4.564  23.290  0.00  0.00    +0.257 A 
ATOM     37  O   UNL     1       7.584   5.616  23.626  0.00  0.00    -0.267 OA
ATOM     38  C   UNL     1       7.363   3.481  22.620  0.00  0.00    +0.030 A 
ATOM     39  C   UNL     1       5.897   3.663  22.418  0.00  0.00    +0.051 C 
ATOM     40  C   UNL     1       8.038   2.393  22.234  0.00  0.00    +0.101 A 
ENDBRANCH  29  31
BRANCH  27  41
ATOM     41  O   UNL     1       7.216  -0.795  22.529  0.00  0.00    -0.389 OA
ATOM     42  H   UNL     1       6.940   0.064  22.160  0.00  0.00    +0.210 HD
ENDBRANCH  27  41
ENDBRANCH  25  26
ENDBRANCH  24  25
ENDBRANCH   1  24
TORSDOF 14
ENDMDL
MODEL 6
REMARK VINA RESULT:      -7.3      1.737      2.547
REMARK  Name = 
REMARK  16 active torsions:
REMARK  status: ('A' for Active; 'I' for Inactive)
REMARK    1  A    between atoms: C_1  and  C_2
REMARK    2  A    between atoms: C_5  and  O_7
REMARK    3  A    between atoms: O_7  and  P_8
REMARK    4  A    between atoms: P_8  and  O_9
REMARK    5  A    between atoms: P_8  and  O_11
REMARK    6  A    between atoms: O_11  and  P_12
REMARK    7  A    between atoms: P_12  and  O_13
REMARK    8  A    between atoms: P_12  and  O_15
REMARK    9  A    between atoms: O_15  and  C_16
REMARK   10  A    between atoms: C_16  and  C_17
REMARK   11  A    between atoms: C_20  and  N_26
REMARK   12  A    between atoms: C_23  and  O_25
REMARK   13  A    between atoms: C_28  and  C_29
REMARK   14  A    between atoms: C_35  and  O_37
REMARK   15  A    between atoms: C_38  and  O_40
REMARK   16  A    between atoms: C_41  and  O_43
REMARK                            x       y       z     vdW  Elec       q    Type
REMARK                         _______ _______ _______ _____ _____    ______ ____
ROOT
ATOM      1  P   UNL     1       9.367  -3.017  24.065  0.00  0.00    +0.483 P 
ATOM      2  O   UNL     1       9.851  -4.329  24.589  0.00  0.00    -0.227 OA
ENDROOT
BRANCH   1   3
ATOM      3  O   UNL     1       8.594  -2.143  25.165  0.00  0.00    -0.302 OA
ATOM      4  H   UNL     1       7.860  -2.646  25.565  0.00  0.00    +0.222 HD
ENDBRANCH   1   3
BRANCH   1   5
ATOM      5  O   UNL     1       8.239  -3.119  22.937  0.00  0.00    -0.186 OA
BRANCH   5   6
ATOM      6  P   UNL     1       6.596  -3.274  23.457  0.00  0.00    +0.486 P 
ATOM      7  O   UNL     1       6.085  -3.538  22.039  0.00  0.00    -0.227 OA
BRANCH   6   8
ATOM      8  O   UNL     1       4.953  -3.427  23.976  0.00  0.00    -0.302 OA
ATOM      9  H   UNL     1       4.500  -2.691  23.524  0.00  0.00    +0.222 HD
ENDBRANCH   6   8
BRANCH   6  10
ATOM     10  O   UNL     1       6.940  -4.692  24.222  0.00  0.00    -0.254 OA
BRANCH  10  16
ATOM     11  C   UNL     1       3.363  -7.397  25.361  0.00  0.00    +0.041 C 
ATOM     12  C   UNL     1       4.344  -6.408  25.965  0.00  0.00    +0.149 C 
ATOM     13  C   UNL     1       5.016  -6.896  27.255  0.00  0.00    +0.174 C 
ATOM     14  C   UNL     1       6.061  -5.852  27.710  0.00  0.00    +0.179 C 
ATOM     15  C   UNL     1       7.000  -5.424  26.562  0.00  0.00    +0.202 C 
ATOM     16  C   UNL     1       6.146  -5.048  25.331  0.00  0.00    +0.293 C 
ATOM     17  O   UNL     1       5.345  -6.161  24.983  0.00  0.00    -0.343 OA
BRANCH  13  18
ATOM     18  O   UNL     1       4.023  -7.124  28.259  0.00  0.00    -0.387 OA
ATOM     19  H   UNL     1       4.461  -7.230  29.119  0.00  0.00    +0.210 HD
ENDBRANCH  13  18
BRANCH  14  20
ATOM     20  O   UNL     1       6.832  -6.351  28.810  0.00  0.00    -0.386 OA
ATOM     21  H   UNL     1       7.762  -6.362  28.513  0.00  0.00    +0.210 HD
ENDBRANCH  14  20
BRANCH  15  22
ATOM     22  O   UNL     1       7.835  -4.358  27.049  0.00  0.00    -0.384 OA
ATOM     23  H   UNL     1       8.766  -4.636  27.008  0.00  0.00    +0.210 HD
ENDBRANCH  15  22
ENDBRANCH  10  16
ENDBRANCH   6  10
ENDBRANCH   5   6
ENDBRANCH   1   5
BRANCH   1  24
ATOM     24  O   UNL     1      10.494  -1.970  23.566  0.00  0.00    -0.284 OA
BRANCH  24  25
ATOM     25  C   UNL     1      10.164  -1.143  22.444  0.00  0.00    +0.206 C 
BRANCH  25  26
ATOM     26  C   UNL     1       9.332   0.104  22.817  0.00  0.00    +0.175 C 
ATOM     27  C   UNL     1       9.718   1.311  21.959  0.00  0.00    +0.150 C 
ATOM     28  C   UNL     1       9.704   2.499  22.901  0.00  0.00    +0.088 C 
ATOM     29  C   UNL     1       9.123   1.958  24.204  0.00  0.00    +0.226 C 
ATOM     30  O   UNL     1       9.531   0.556  24.179  0.00  0.00    -0.348 OA
BRANCH  29  31
ATOM     31  N   UNL     1       7.661   2.053  24.408  0.00  0.00    -0.274 N 
ATOM     32  C   UNL     1       7.023   1.313  25.399  0.00  0.00    +0.331 A 
ATOM     33  O   UNL     1       7.576   0.522  26.161  0.00  0.00    -0.246 OA
ATOM     34  N   UNL     1       5.667   1.495  25.500  0.00  0.00    -0.275 N 
ATOM     35  H   UNL     1       5.200   1.015  26.254  0.00  0.00    +0.173 HD
ATOM     36  C   UNL     1       4.877   2.219  24.654  0.00  0.00    +0.257 A 
ATOM     37  O   UNL     1       3.668   2.330  24.817  0.00  0.00    -0.267 OA
ATOM     38  C   UNL     1       5.577   2.826  23.502  0.00  0.00    +0.030 A 
ATOM     39  C   UNL     1       4.760   3.534  22.477  0.00  0.00    +0.051 C 
ATOM     40  C   UNL     1       6.908   2.703  23.440  0.00  0.00    +0.101 A 
ENDBRANCH  29  31
BRANCH  27  41
ATOM     41  O   UNL     1       8.795   1.460  20.889  0.00  0.00    -0.389 OA
ATOM     42  H   UNL     1       7.917   1.667  21.258  0.00  0.00    +0.210 HD
ENDBRANCH  27  41
ENDBRANCH  25  26
ENDBRANCH  24  25
ENDBRANCH   1  24
TORSDOF 14
ENDMDL
MODEL 7
REMARK VINA RESULT:      -7.3      2.176      3.385
REMARK  Name = 
REMARK  16 active torsions:
REMARK  status: ('A' for Active; 'I' for Inactive)
REMARK    1  A    between atoms: C_1  and  C_2
REMARK    2  A    between atoms: C_5  and  O_7
REMARK    3  A    between atoms: O_7  and  P_8
REMARK    4  A    between atoms: P_8  and  O_9
REMARK    5  A    between atoms: P_8  and  O_11
REMARK    6  A    between atoms: O_11  and  P_12
REMARK    7  A    between atoms: P_12  and  O_13
REMARK    8  A    between atoms: P_12  and  O_15
REMARK    9  A    between atoms: O_15  and  C_16
REMARK   10  A    between atoms: C_16  and  C_17
REMARK   11  A    between atoms: C_20  and  N_26
REMARK   12  A    between atoms: C_23  and  O_25
REMARK   13  A    between atoms: C_28  and  C_29
REMARK   14  A    between atoms: C_35  and  O_37
REMARK   15  A    between atoms: C_38  and  O_40
REMARK   16  A    between atoms: C_41  and  O_43
REMARK                            x       y       z     vdW  Elec       q    Type
REMARK                         _______ _______ _______ _____ _____    ______ ____
ROOT
ATOM      1  P   UNL     1       8.375  -1.694  26.235  0.00  0.00    +0.483 P 
ATOM      2  O   UNL     1       8.645  -0.734  27.346  0.00  0.00    -0.227 OA
ENDROOT
BRANCH   1   3
ATOM      3  O   UNL     1       6.969  -1.438  25.506  0.00  0.00    -0.302 OA
ATOM      4  H   UNL     1       6.826  -2.073  24.780  0.00  0.00    +0.222 HD
ENDBRANCH   1   3
BRANCH   1   5
ATOM      5  O   UNL     1       8.186  -3.215  26.692  0.00  0.00    -0.186 OA
BRANCH   5   6
ATOM      6  P   UNL     1       8.977  -4.437  25.758  0.00  0.00    +0.486 P 
ATOM      7  O   UNL     1       8.260  -5.575  26.489  0.00  0.00    -0.227 OA
BRANCH   6   8
ATOM      8  O   UNL     1       9.767  -5.661  24.825  0.00  0.00    -0.302 OA
ATOM      9  H   UNL     1      10.711  -5.421  24.885  0.00  0.00    +0.222 HD
ENDBRANCH   6   8
BRANCH   6  10
ATOM     10  O   UNL     1       8.136  -3.994  24.412  0.00  0.00    -0.254 OA
BRANCH  10  16
ATOM     11  C   UNL     1       3.545  -3.591  24.830  0.00  0.00    +0.041 C 
ATOM     12  C   UNL     1       4.611  -4.534  24.301  0.00  0.00    +0.149 C 
ATOM     13  C   UNL     1       4.353  -5.041  22.876  0.00  0.00    +0.174 C 
ATOM     14  C   UNL     1       5.553  -5.902  22.419  0.00  0.00    +0.179 C 
ATOM     15  C   UNL     1       6.905  -5.202  22.668  0.00  0.00    +0.202 C 
ATOM     16  C   UNL     1       6.944  -4.691  24.125  0.00  0.00    +0.293 C 
ATOM     17  O   UNL     1       5.845  -3.823  24.326  0.00  0.00    -0.343 OA
BRANCH  13  18
ATOM     18  O   UNL     1       3.128  -5.779  22.843  0.00  0.00    -0.387 OA
ATOM     19  H   UNL     1       2.392  -5.180  23.047  0.00  0.00    +0.210 HD
ENDBRANCH  13  18
BRANCH  14  20
ATOM     20  O   UNL     1       5.429  -6.248  21.034  0.00  0.00    -0.386 OA
ATOM     21  H   UNL     1       5.856  -5.528  20.530  0.00  0.00    +0.210 HD
ENDBRANCH  14  20
BRANCH  15  22
ATOM     22  O   UNL     1       7.951  -6.134  22.341  0.00  0.00    -0.384 OA
ATOM     23  H   UNL     1       8.813  -5.688  22.414  0.00  0.00    +0.210 HD
ENDBRANCH  15  22
ENDBRANCH  10  16
ENDBRANCH   6  10
ENDBRANCH   5   6
ENDBRANCH   1   5
BRANCH   1  24
ATOM     24  O   UNL     1       9.392  -1.662  24.978  0.00  0.00    -0.284 OA
BRANCH  24  25
ATOM     25  C   UNL     1      10.083  -0.433  24.729  0.00  0.00    +0.206 C 
BRANCH  25  26
ATOM     26  C   UNL     1       9.287   0.559  23.854  0.00  0.00    +0.175 C 
ATOM     27  C   UNL     1       8.722  -0.125  22.606  0.00  0.00    +0.150 C 
ATOM     28  C   UNL     1       8.892   0.878  21.482  0.00  0.00    +0.088 C 
ATOM     29  C   UNL     1       9.361   2.158  22.167  0.00  0.00    +0.226 C 
ATOM     30  O   UNL     1      10.082   1.651  23.332  0.00  0.00    -0.348 OA
BRANCH  29  31
ATOM     31  N   UNL     1       8.336   3.135  22.595  0.00  0.00    -0.274 N 
ATOM     32  C   UNL     1       8.656   4.182  23.454  0.00  0.00    +0.331 A 
ATOM     33  O   UNL     1       9.765   4.385  23.945  0.00  0.00    -0.246 OA
ATOM     34  N   UNL     1       7.624   5.031  23.768  0.00  0.00    -0.275 N 
ATOM     35  H   UNL     1       7.854   5.831  24.339  0.00  0.00    +0.173 HD
ATOM     36  C   UNL     1       6.311   4.877  23.431  0.00  0.00    +0.257 A 
ATOM     37  O   UNL     1       5.450   5.686  23.754  0.00  0.00    -0.267 OA
ATOM     38  C   UNL     1       5.993   3.643  22.683  0.00  0.00    +0.030 A 
ATOM     39  C   UNL     1       4.562   3.353  22.381  0.00  0.00    +0.051 C 
ATOM     40  C   UNL     1       7.006   2.849  22.320  0.00  0.00    +0.101 A 
ENDBRANCH  29  31
BRANCH  27  41
ATOM     41  O   UNL     1       7.361  -0.473  22.818  0.00  0.00    -0.389 OA
ATOM     42  H   UNL     1       7.293  -1.441  22.905  0.00  0.00    +0.210 HD
ENDBRANCH  27  41
ENDBRANCH  25  26
ENDBRANCH  24  25
ENDBRANCH   1  24
TORSDOF 14
ENDMDL
MODEL 8
REMARK VINA RESULT:      -7.1      2.026      3.123
REMARK  Name = 
REMARK  16 active torsions:
REMARK  status: ('A' for Active; 'I' for Inactive)
REMARK    1  A    between atoms: C_1  and  C_2
REMARK    2  A    between atoms: C_5  and  O_7
REMARK    3  A    between atoms: O_7  and  P_8
REMARK    4  A    between atoms: P_8  and  O_9
REMARK    5  A    between atoms: P_8  and  O_11
REMARK    6  A    between atoms: O_11  and  P_12
REMARK    7  A    between atoms: P_12  and  O_13
REMARK    8  A    between atoms: P_12  and  O_15
REMARK    9  A    between atoms: O_15  and  C_16
REMARK   10  A    between atoms: C_16  and  C_17
REMARK   11  A    between atoms: C_20  and  N_26
REMARK   12  A    between atoms: C_23  and  O_25
REMARK   13  A    between atoms: C_28  and  C_29
REMARK   14  A    between atoms: C_35  and  O_37
REMARK   15  A    between atoms: C_38  and  O_40
REMARK   16  A    between atoms: C_41  and  O_43
REMARK                            x       y       z     vdW  Elec       q    Type
REMARK                         _______ _______ _______ _____ _____    ______ ____
ROOT
ATOM      1  P   UNL     1       9.002  -2.347  23.672  0.00  0.00    +0.483 P 
ATOM      2  O   UNL     1       9.394  -1.911  22.299  0.00  0.00    -0.227 OA
ENDROOT
BRANCH   1   3
ATOM      3  O   UNL     1       9.702  -3.717  24.125  0.00  0.00    -0.302 OA
ATOM      4  H   UNL     1      10.464  -3.549  24.709  0.00  0.00    +0.222 HD
ENDBRANCH   1   3
BRANCH   1   5
ATOM      5  O   UNL     1       7.462  -2.746  23.835  0.00  0.00    -0.186 OA
BRANCH   5   6
ATOM      6  P   UNL     1       6.600  -3.218  22.411  0.00  0.00    +0.486 P 
ATOM      7  O   UNL     1       7.402  -4.512  22.255  0.00  0.00    -0.227 OA
BRANCH   6   8
ATOM      8  O   UNL     1       5.740  -3.692  20.987  0.00  0.00    -0.302 OA
ATOM      9  H   UNL     1       5.011  -3.045  20.933  0.00  0.00    +0.222 HD
ENDBRANCH   6   8
BRANCH   6  10
ATOM     10  O   UNL     1       5.234  -3.487  23.291  0.00  0.00    -0.254 OA
BRANCH  10  16
ATOM     11  C   UNL     1       4.452  -4.534  27.730  0.00  0.00    +0.041 C 
ATOM     12  C   UNL     1       4.833  -5.176  26.408  0.00  0.00    +0.149 C 
ATOM     13  C   UNL     1       4.016  -6.426  26.056  0.00  0.00    +0.174 C 
ATOM     14  C   UNL     1       4.424  -6.920  24.649  0.00  0.00    +0.179 C 
ATOM     15  C   UNL     1       4.429  -5.782  23.607  0.00  0.00    +0.202 C 
ATOM     16  C   UNL     1       5.228  -4.587  24.172  0.00  0.00    +0.293 C 
ATOM     17  O   UNL     1       4.638  -4.192  25.396  0.00  0.00    -0.343 OA
BRANCH  13  18
ATOM     18  O   UNL     1       4.223  -7.432  27.052  0.00  0.00    -0.387 OA
ATOM     19  H   UNL     1       3.408  -7.950  27.152  0.00  0.00    +0.210 HD
ENDBRANCH  13  18
BRANCH  14  20
ATOM     20  O   UNL     1       3.562  -7.979  24.214  0.00  0.00    -0.386 OA
ATOM     21  H   UNL     1       4.131  -8.626  23.754  0.00  0.00    +0.210 HD
ENDBRANCH  14  20
BRANCH  15  22
ATOM     22  O   UNL     1       4.952  -6.313  22.376  0.00  0.00    -0.384 OA
ATOM     23  H   UNL     1       5.920  -6.215  22.370  0.00  0.00    +0.210 HD
ENDBRANCH  15  22
ENDBRANCH  10  16
ENDBRANCH   6  10
ENDBRANCH   5   6
ENDBRANCH   1   5
BRANCH   1  24
ATOM     24  O   UNL     1       9.407  -1.368  24.893  0.00  0.00    -0.284 OA
BRANCH  24  25
ATOM     25  C   UNL     1       8.362  -0.571  25.465  0.00  0.00    +0.206 C 
BRANCH  25  26
ATOM     26  C   UNL     1       8.419   0.915  25.048  0.00  0.00    +0.175 C 
ATOM     27  C   UNL     1       7.237   1.702  25.620  0.00  0.00    +0.150 C 
ATOM     28  C   UNL     1       6.809   2.650  24.517  0.00  0.00    +0.088 C 
ATOM     29  C   UNL     1       7.879   2.505  23.439  0.00  0.00    +0.226 C 
ATOM     30  O   UNL     1       8.329   1.127  23.617  0.00  0.00    -0.348 OA
BRANCH  29  31
ATOM     31  N   UNL     1       9.039   3.422  23.482  0.00  0.00    -0.274 N 
ATOM     32  C   UNL     1      10.260   3.064  22.918  0.00  0.00    +0.331 A 
ATOM     33  O   UNL     1      10.502   1.989  22.372  0.00  0.00    -0.246 OA
ATOM     34  N   UNL     1      11.257   4.003  23.008  0.00  0.00    -0.275 N 
ATOM     35  H   UNL     1      12.128   3.785  22.550  0.00  0.00    +0.173 HD
ATOM     36  C   UNL     1      11.207   5.180  23.698  0.00  0.00    +0.257 A 
ATOM     37  O   UNL     1      12.146   5.965  23.727  0.00  0.00    -0.267 OA
ATOM     38  C   UNL     1       9.953   5.422  24.442  0.00  0.00    +0.030 A 
ATOM     39  C   UNL     1       9.872   6.633  25.308  0.00  0.00    +0.051 C 
ATOM     40  C   UNL     1       8.958   4.540  24.301  0.00  0.00    +0.101 A 
ENDBRANCH  29  31
BRANCH  27  41
ATOM     41  O   UNL     1       7.638   2.390  26.797  0.00  0.00    -0.389 OA
ATOM     42  H   UNL     1       7.001   3.106  26.975  0.00  0.00    +0.210 HD
ENDBRANCH  27  41
ENDBRANCH  25  26
ENDBRANCH  24  25
ENDBRANCH   1  24
TORSDOF 14
ENDMDL
MODEL 9
REMARK VINA RESULT:      -7.0      3.067      8.730
REMARK  Name = 
REMARK  16 active torsions:
REMARK  status: ('A' for Active; 'I' for Inactive)
REMARK    1  A    between atoms: C_1  and  C_2
REMARK    2  A    between atoms: C_5  and  O_7
REMARK    3  A    between atoms: O_7  and  P_8
REMARK    4  A    between atoms: P_8  and  O_9
REMARK    5  A    between atoms: P_8  and  O_11
REMARK    6  A    between atoms: O_11  and  P_12
REMARK    7  A    between atoms: P_12  and  O_13
REMARK    8  A    between atoms: P_12  and  O_15
REMARK    9  A    between atoms: O_15  and  C_16
REMARK   10  A    between atoms: C_16  and  C_17
REMARK   11  A    between atoms: C_20  and  N_26
REMARK   12  A    between atoms: C_23  and  O_25
REMARK   13  A    between atoms: C_28  and  C_29
REMARK   14  A    between atoms: C_35  and  O_37
REMARK   15  A    between atoms: C_38  and  O_40
REMARK   16  A    between atoms: C_41  and  O_43
REMARK                            x       y       z     vdW  Elec       q    Type
REMARK                         _______ _______ _______ _____ _____    ______ ____
ROOT
ATOM      1  P   UNL     1       8.761   0.259  25.145  0.00  0.00    +0.483 P 
ATOM      2  O   UNL     1       7.650   0.881  25.926  0.00  0.00    -0.227 OA
ENDROOT
BRANCH   1   3
ATOM      3  O   UNL     1      10.107   1.130  25.156  0.00  0.00    -0.302 OA
ATOM      4  H   UNL     1      10.376   1.377  24.252  0.00  0.00    +0.222 HD
ENDBRANCH   1   3
BRANCH   1   5
ATOM      5  O   UNL     1       8.499   0.156  23.571  0.00  0.00    -0.186 OA
BRANCH   5   6
ATOM      6  P   UNL     1       9.390   1.222  22.539  0.00  0.00    +0.486 P 
ATOM      7  O   UNL     1       9.930   0.074  21.683  0.00  0.00    -0.227 OA
BRANCH   6   8
ATOM      8  O   UNL     1      10.282   2.286  21.507  0.00  0.00    -0.302 OA
ATOM      9  H   UNL     1      10.764   2.860  22.131  0.00  0.00    +0.222 HD
ENDBRANCH   6   8
BRANCH   6  10
ATOM     10  O   UNL     1       7.994   1.815  21.897  0.00  0.00    -0.254 OA
BRANCH  10  16
ATOM     11  C   UNL     1       7.269   6.385  21.923  0.00  0.00    +0.041 C 
ATOM     12  C   UNL     1       6.901   5.120  22.677  0.00  0.00    +0.149 C 
ATOM     13  C   UNL     1       5.399   4.965  22.950  0.00  0.00    +0.174 C 
ATOM     14  C   UNL     1       5.144   3.598  23.626  0.00  0.00    +0.179 C 
ATOM     15  C   UNL     1       5.833   2.437  22.878  0.00  0.00    +0.202 C 
ATOM     16  C   UNL     1       7.311   2.812  22.623  0.00  0.00    +0.293 C 
ATOM     17  O   UNL     1       7.347   4.021  21.889  0.00  0.00    -0.343 OA
BRANCH  13  18
ATOM     18  O   UNL     1       4.943   6.050  23.763  0.00  0.00    -0.387 OA
ATOM     19  H   UNL     1       5.172   6.888  23.330  0.00  0.00    +0.210 HD
ENDBRANCH  13  18
BRANCH  14  20
ATOM     20  O   UNL     1       3.739   3.341  23.738  0.00  0.00    -0.386 OA
ATOM     21  H   UNL     1       3.647   2.553  24.307  0.00  0.00    +0.210 HD
ENDBRANCH  14  20
BRANCH  15  22
ATOM     22  O   UNL     1       5.654   1.241  23.657  0.00  0.00    -0.384 OA
ATOM     23  H   UNL     1       5.071   0.629  23.175  0.00  0.00    +0.210 HD
ENDBRANCH  15  22
ENDBRANCH  10  16
ENDBRANCH   6  10
ENDBRANCH   5   6
ENDBRANCH   1   5
BRANCH   1  24
ATOM     24  O   UNL     1       9.307  -1.172  25.665  0.00  0.00    -0.284 OA
BRANCH  24  25
ATOM     25  C   UNL     1       8.409  -1.968  26.448  0.00  0.00    +0.206 C 
BRANCH  25  26
ATOM     26  C   UNL     1       7.960  -3.267  25.744  0.00  0.00    +0.175 C 
ATOM     27  C   UNL     1       8.782  -4.470  26.213  0.00  0.00    +0.150 C 
ATOM     28  C   UNL     1       9.031  -5.301  24.969  0.00  0.00    +0.088 C 
ATOM     29  C   UNL     1       8.179  -4.647  23.885  0.00  0.00    +0.226 C 
ATOM     30  O   UNL     1       8.143  -3.249  24.307  0.00  0.00    -0.348 OA
BRANCH  29  31
ATOM     31  N   UNL     1       6.802  -5.148  23.683  0.00  0.00    -0.274 N 
ATOM     32  C   UNL     1       6.460  -5.873  22.546  0.00  0.00    +0.331 A 
ATOM     33  O   UNL     1       7.223  -6.142  21.620  0.00  0.00    -0.246 OA
ATOM     34  N   UNL     1       5.157  -6.295  22.477  0.00  0.00    -0.275 N 
ATOM     35  H   UNL     1       4.909  -6.876  21.690  0.00  0.00    +0.173 HD
ATOM     36  C   UNL     1       4.148  -5.969  23.337  0.00  0.00    +0.257 A 
ATOM     37  O   UNL     1       3.007  -6.392  23.203  0.00  0.00    -0.267 OA
ATOM     38  C   UNL     1       4.522  -5.036  24.421  0.00  0.00    +0.030 A 
ATOM     39  C   UNL     1       3.445  -4.548  25.330  0.00  0.00    +0.051 C 
ATOM     40  C   UNL     1       5.806  -4.677  24.527  0.00  0.00    +0.101 A 
ENDBRANCH  29  31
BRANCH  27  41
ATOM     41  O   UNL     1       8.065  -5.188  27.208  0.00  0.00    -0.389 OA
ATOM     42  H   UNL     1       7.170  -5.381  26.873  0.00  0.00    +0.210 HD
ENDBRANCH  27  41
ENDBRANCH  25  26
ENDBRANCH  24  25
ENDBRANCH   1  24
TORSDOF 14
ENDMDL
