MODEL 1
REMARK VINA RESULT:      -4.2      0.000      0.000
REMARK  Name = 
REMARK  11 active torsions:
REMARK  status: ('A' for Active; 'I' for Inactive)
REMARK    1  A    between atoms: C_1  and  C_2
REMARK    2  A    between atoms: C_2  and  C_3
REMARK    3  A    between atoms: C_3  and  C_4
REMARK    4  A    between atoms: C_4  and  C_5
REMARK    5  A    between atoms: C_5  and  C_6
REMARK    6  A    between atoms: C_6  and  C_7
REMARK    7  A    between atoms: C_7  and  C_8
REMARK    8  A    between atoms: C_8  and  S_9
REMARK    9  A    between atoms: S_9  and  C_11
REMARK   10  A    between atoms: C_11  and  C_12
REMARK   11  A    between atoms: C_12  and  O_13
REMARK                            x       y       z     vdW  Elec       q    Type
REMARK                         _______ _______ _______ _____ _____    ______ ____
ROOT
ATOM      1  C   UNL     1       7.737  -0.707  24.643  0.00  0.00    +0.013 C 
ENDROOT
BRANCH   1   2
ATOM      2  C   UNL     1       8.496   0.486  25.225  0.00  0.00    +0.001 C 
BRANCH   2   3
ATOM      3  C   UNL     1       9.987   0.153  25.341  0.00  0.00    +0.000 C 
BRANCH   3   4
ATOM      4  C   UNL     1      10.746   0.426  24.043  0.00  0.00    -0.000 C 
BRANCH   4   5
ATOM      5  C   UNL     1      10.379   1.800  23.479  0.00  0.00    -0.000 C 
BRANCH   5   7
ATOM      6  C   UNL     1       9.650   0.266  21.620  0.00  0.00    +0.004 C 
ATOM      7  C   UNL     1       9.913   1.708  22.028  0.00  0.00    -0.003 C 
ENDBRANCH   5   7
ENDBRANCH   4   5
ENDBRANCH   3   4
ENDBRANCH   2   3
ENDBRANCH   1   2
BRANCH   1   8
ATOM      8  C   UNL     1       8.175  -2.038  25.250  0.00  0.00    +0.104 C 
BRANCH   8   9
ATOM      9  S   UNL     1       8.722  -3.156  23.913  0.00  0.00    +0.024 S 
ATOM     10  O   UNL     1      10.220  -3.083  23.844  0.00  0.00    -0.257 OA
BRANCH   9  11
ATOM     11  C   UNL     1       8.302  -4.708  24.751  0.00  0.00    +0.131 C 
BRANCH  11  12
ATOM     12  C   UNL     1       9.276  -4.959  25.891  0.00  0.00    +0.169 C 
BRANCH  12  13
ATOM     13  O   UNL     1      10.483  -5.525  25.388  0.00  0.00    -0.394 OA
ATOM     14  H   UNL     1      10.643  -6.346  25.886  0.00  0.00    +0.209 HD
ENDBRANCH  12  13
ENDBRANCH  11  12
ENDBRANCH   9  11
ENDBRANCH   8   9
ENDBRANCH   1   8
TORSDOF 10
ENDMDL
MODEL 2
REMARK VINA RESULT:      -4.2      1.613      2.494
REMARK  Name = 
REMARK  11 active torsions:
REMARK  status: ('A' for Active; 'I' for Inactive)
REMARK    1  A    between atoms: C_1  and  C_2
REMARK    2  A    between atoms: C_2  and  C_3
REMARK    3  A    between atoms: C_3  and  C_4
REMARK    4  A    between atoms: C_4  and  C_5
REMARK    5  A    between atoms: C_5  and  C_6
REMARK    6  A    between atoms: C_6  and  C_7
REMARK    7  A    between atoms: C_7  and  C_8
REMARK    8  A    between atoms: C_8  and  S_9
REMARK    9  A    between atoms: S_9  and  C_11
REMARK   10  A    between atoms: C_11  and  C_12
REMARK   11  A    between atoms: C_12  and  O_13
REMARK                            x       y       z     vdW  Elec       q    Type
REMARK                         _______ _______ _______ _____ _____    ______ ____
ROOT
ATOM      1  C   UNL     1       8.810  -1.747  23.223  0.00  0.00    +0.013 C 
ENDROOT
BRANCH   1   2
ATOM      2  C   UNL     1       9.943  -1.256  22.320  0.00  0.00    +0.001 C 
BRANCH   2   3
ATOM      3  C   UNL     1       9.401  -0.245  21.305  0.00  0.00    +0.000 C 
BRANCH   3   4
ATOM      4  C   UNL     1       9.008   1.080  21.955  0.00  0.00    -0.000 C 
BRANCH   4   5
ATOM      5  C   UNL     1      10.243   1.953  22.198  0.00  0.00    -0.000 C 
BRANCH   5   7
ATOM      6  C   UNL     1       9.282   1.818  24.521  0.00  0.00    +0.004 C 
ATOM      7  C   UNL     1      10.511   2.148  23.688  0.00  0.00    -0.003 C 
ENDBRANCH   5   7
ENDBRANCH   4   5
ENDBRANCH   3   4
ENDBRANCH   2   3
ENDBRANCH   1   2
BRANCH   1   8
ATOM      8  C   UNL     1       7.989  -2.864  22.585  0.00  0.00    +0.104 C 
BRANCH   8   9
ATOM      9  S   UNL     1       7.753  -4.206  23.803  0.00  0.00    +0.024 S 
ATOM     10  O   UNL     1       8.161  -5.492  23.146  0.00  0.00    -0.257 OA
BRANCH   9  11
ATOM     11  C   UNL     1       9.102  -3.722  24.913  0.00  0.00    +0.131 C 
BRANCH  11  12
ATOM     12  C   UNL     1       9.373  -4.835  25.913  0.00  0.00    +0.169 C 
BRANCH  12  13
ATOM     13  O   UNL     1       9.987  -5.941  25.258  0.00  0.00    -0.394 OA
ATOM     14  H   UNL     1      10.758  -5.595  24.774  0.00  0.00    +0.209 HD
ENDBRANCH  12  13
ENDBRANCH  11  12
ENDBRANCH   9  11
ENDBRANCH   8   9
ENDBRANCH   1   8
TORSDOF 10
ENDMDL
MODEL 3
REMARK VINA RESULT:      -4.1      1.493      1.841
REMARK  Name = 
REMARK  11 active torsions:
REMARK  status: ('A' for Active; 'I' for Inactive)
REMARK    1  A    between atoms: C_1  and  C_2
REMARK    2  A    between atoms: C_2  and  C_3
REMARK    3  A    between atoms: C_3  and  C_4
REMARK    4  A    between atoms: C_4  and  C_5
REMARK    5  A    between atoms: C_5  and  C_6
REMARK    6  A    between atoms: C_6  and  C_7
REMARK    7  A    between atoms: C_7  and  C_8
REMARK    8  A    between atoms: C_8  and  S_9
REMARK    9  A    between atoms: S_9  and  C_11
REMARK   10  A    between atoms: C_11  and  C_12
REMARK   11  A    between atoms: C_12  and  O_13
REMARK                            x       y       z     vdW  Elec       q    Type
REMARK                         _______ _______ _______ _____ _____    ______ ____
ROOT
ATOM      1  C   UNL     1       8.753  -1.142  24.705  0.00  0.00    +0.013 C 
ENDROOT
BRANCH   1   2
ATOM      2  C   UNL     1       9.503   0.079  25.238  0.00  0.00    +0.001 C 
BRANCH   2   3
ATOM      3  C   UNL     1      10.645   0.449  24.286  0.00  0.00    +0.000 C 
BRANCH   3   4
ATOM      4  C   UNL     1      10.280   1.610  23.363  0.00  0.00    -0.000 C 
BRANCH   4   5
ATOM      5  C   UNL     1       9.939   1.102  21.960  0.00  0.00    -0.000 C 
BRANCH   5   7
ATOM      6  C   UNL     1       7.970   2.594  22.451  0.00  0.00    +0.004 C 
ATOM      7  C   UNL     1       8.530   1.513  21.539  0.00  0.00    -0.003 C 
ENDBRANCH   5   7
ENDBRANCH   4   5
ENDBRANCH   3   4
ENDBRANCH   2   3
ENDBRANCH   1   2
BRANCH   1   8
ATOM      8  C   UNL     1       9.690  -2.231  24.188  0.00  0.00    +0.104 C 
BRANCH   8   9
ATOM      9  S   UNL     1       9.005  -3.868  24.621  0.00  0.00    +0.024 S 
ATOM     10  O   UNL     1      10.157  -4.820  24.762  0.00  0.00    -0.257 OA
BRANCH   9  11
ATOM     11  C   UNL     1       8.464  -3.433  26.296  0.00  0.00    +0.131 C 
BRANCH  11  12
ATOM     12  C   UNL     1       7.551  -4.520  26.842  0.00  0.00    +0.169 C 
BRANCH  12  13
ATOM     13  O   UNL     1       8.243  -5.764  26.885  0.00  0.00    -0.394 OA
ATOM     14  H   UNL     1       7.856  -6.282  27.613  0.00  0.00    +0.209 HD
ENDBRANCH  12  13
ENDBRANCH  11  12
ENDBRANCH   9  11
ENDBRANCH   8   9
ENDBRANCH   1   8
TORSDOF 10
ENDMDL
MODEL 4
REMARK VINA RESULT:      -4.1      1.719      2.524
REMARK  Name = 
REMARK  11 active torsions:
REMARK  status: ('A' for Active; 'I' for Inactive)
REMARK    1  A    between atoms: C_1  and  C_2
REMARK    2  A    between atoms: C_2  and  C_3
REMARK    3  A    between atoms: C_3  and  C_4
REMARK    4  A    between atoms: C_4  and  C_5
REMARK    5  A    between atoms: C_5  and  C_6
REMARK    6  A    between atoms: C_6  and  C_7
REMARK    7  A    between atoms: C_7  and  C_8
REMARK    8  A    between atoms: C_8  and  S_9
REMARK    9  A    between atoms: S_9  and  C_11
REMARK   10  A    between atoms: C_11  and  C_12
REMARK   11  A    between atoms: C_12  and  O_13
REMARK                            x       y       z     vdW  Elec       q    Type
REMARK                         _______ _______ _______ _____ _____    ______ ____
ROOT
ATOM      1  C   UNL     1       8.897  -2.050  22.829  0.00  0.00    +0.013 C 
ENDROOT
BRANCH   1   2
ATOM      2  C   UNL     1       9.987  -1.111  22.312  0.00  0.00    +0.001 C 
BRANCH   2   3
ATOM      3  C   UNL     1       9.404  -0.160  21.262  0.00  0.00    +0.000 C 
BRANCH   3   4
ATOM      4  C   UNL     1       9.027   1.198  21.852  0.00  0.00    -0.000 C 
BRANCH   4   5
ATOM      5  C   UNL     1      10.281   1.999  22.213  0.00  0.00    -0.000 C 
BRANCH   5   7
ATOM      6  C   UNL     1       9.372   1.783  24.552  0.00  0.00    +0.004 C 
ATOM      7  C   UNL     1      10.151   2.660  23.584  0.00  0.00    -0.003 C 
ENDBRANCH   5   7
ENDBRANCH   4   5
ENDBRANCH   3   4
ENDBRANCH   2   3
ENDBRANCH   1   2
BRANCH   1   8
ATOM      8  C   UNL     1       9.363  -2.905  24.005  0.00  0.00    +0.104 C 
BRANCH   8   9
ATOM      9  S   UNL     1       8.304  -4.389  24.125  0.00  0.00    +0.024 S 
ATOM     10  O   UNL     1       9.204  -5.574  24.326  0.00  0.00    -0.257 OA
BRANCH   9  11
ATOM     11  C   UNL     1       7.572  -3.996  25.736  0.00  0.00    +0.131 C 
BRANCH  11  12
ATOM     12  C   UNL     1       8.034  -5.007  26.774  0.00  0.00    +0.169 C 
BRANCH  12  13
ATOM     13  O   UNL     1       9.418  -4.820  27.056  0.00  0.00    -0.394 OA
ATOM     14  H   UNL     1       9.872  -4.714  26.201  0.00  0.00    +0.209 HD
ENDBRANCH  12  13
ENDBRANCH  11  12
ENDBRANCH   9  11
ENDBRANCH   8   9
ENDBRANCH   1   8
TORSDOF 10
ENDMDL
MODEL 5
REMARK VINA RESULT:      -4.0      1.577      2.046
REMARK  Name = 
REMARK  11 active torsions:
REMARK  status: ('A' for Active; 'I' for Inactive)
REMARK    1  A    between atoms: C_1  and  C_2
REMARK    2  A    between atoms: C_2  and  C_3
REMARK    3  A    between atoms: C_3  and  C_4
REMARK    4  A    between atoms: C_4  and  C_5
REMARK    5  A    between atoms: C_5  and  C_6
REMARK    6  A    between atoms: C_6  and  C_7
REMARK    7  A    between atoms: C_7  and  C_8
REMARK    8  A    between atoms: C_8  and  S_9
REMARK    9  A    between atoms: S_9  and  C_11
REMARK   10  A    between atoms: C_11  and  C_12
REMARK   11  A    between atoms: C_12  and  O_13
REMARK                            x       y       z     vdW  Elec       q    Type
REMARK                         _______ _______ _______ _____ _____    ______ ____
ROOT
ATOM      1  C   UNL     1       9.696  -1.946  23.858  0.00  0.00    +0.013 C 
ENDROOT
BRANCH   1   2
ATOM      2  C   UNL     1      10.360  -0.799  23.094  0.00  0.00    +0.001 C 
BRANCH   2   3
ATOM      3  C   UNL     1      10.586   0.391  24.031  0.00  0.00    +0.000 C 
BRANCH   3   4
ATOM      4  C   UNL     1      10.313   1.730  23.347  0.00  0.00    -0.000 C 
BRANCH   4   5
ATOM      5  C   UNL     1       9.848   1.517  21.904  0.00  0.00    -0.000 C 
BRANCH   5   7
ATOM      6  C   UNL     1       8.021   3.104  22.599  0.00  0.00    +0.004 C 
ATOM      7  C   UNL     1       8.387   1.920  21.718  0.00  0.00    -0.003 C 
ENDBRANCH   5   7
ENDBRANCH   4   5
ENDBRANCH   3   4
ENDBRANCH   2   3
ENDBRANCH   1   2
BRANCH   1   8
ATOM      8  C   UNL     1       8.584  -2.622  23.059  0.00  0.00    +0.104 C 
BRANCH   8   9
ATOM      9  S   UNL     1       7.857  -3.966  24.060  0.00  0.00    +0.024 S 
ATOM     10  O   UNL     1       8.337  -5.268  23.489  0.00  0.00    -0.257 OA
BRANCH   9  11
ATOM     11  C   UNL     1       8.821  -3.653  25.563  0.00  0.00    +0.131 C 
BRANCH  11  12
ATOM     12  C   UNL     1       9.311  -4.970  26.146  0.00  0.00    +0.169 C 
BRANCH  12  13
ATOM     13  O   UNL     1      10.438  -5.440  25.412  0.00  0.00    -0.394 OA
ATOM     14  H   UNL     1      10.120  -5.682  24.524  0.00  0.00    +0.209 HD
ENDBRANCH  12  13
ENDBRANCH  11  12
ENDBRANCH   9  11
ENDBRANCH   8   9
ENDBRANCH   1   8
TORSDOF 10
ENDMDL
MODEL 6
REMARK VINA RESULT:      -3.7      2.637      3.045
REMARK  Name = 
REMARK  11 active torsions:
REMARK  status: ('A' for Active; 'I' for Inactive)
REMARK    1  A    between atoms: C_1  and  C_2
REMARK    2  A    between atoms: C_2  and  C_3
REMARK    3  A    between atoms: C_3  and  C_4
REMARK    4  A    between atoms: C_4  and  C_5
REMARK    5  A    between atoms: C_5  and  C_6
REMARK    6  A    between atoms: C_6  and  C_7
REMARK    7  A    between atoms: C_7  and  C_8
REMARK    8  A    between atoms: C_8  and  S_9
REMARK    9  A    between atoms: S_9  and  C_11
REMARK   10  A    between atoms: C_11  and  C_12
REMARK   11  A    between atoms: C_12  and  O_13
REMARK                            x       y       z     vdW  Elec       q    Type
REMARK                         _______ _______ _______ _____ _____    ______ ____
ROOT
ATOM      1  C   UNL     1       7.592  -3.761  22.916  0.00  0.00    +0.013 C 
ENDROOT
BRANCH   1   2
ATOM      2  C   UNL     1       7.997  -2.316  22.621  0.00  0.00    +0.001 C 
BRANCH   2   3
ATOM      3  C   UNL     1       9.376  -2.027  23.222  0.00  0.00    +0.000 C 
BRANCH   3   4
ATOM      4  C   UNL     1      10.261  -1.210  22.281  0.00  0.00    -0.000 C 
BRANCH   4   5
ATOM      5  C   UNL     1       9.412  -0.280  21.410  0.00  0.00    -0.000 C 
BRANCH   5   7
ATOM      6  C   UNL     1       8.287   1.949  21.735  0.00  0.00    +0.004 C 
ATOM      7  C   UNL     1       9.600   1.184  21.800  0.00  0.00    -0.003 C 
ENDBRANCH   5   7
ENDBRANCH   4   5
ENDBRANCH   3   4
ENDBRANCH   2   3
ENDBRANCH   1   2
BRANCH   1   8
ATOM      8  C   UNL     1       6.185  -3.873  23.498  0.00  0.00    +0.104 C 
BRANCH   8   9
ATOM      9  S   UNL     1       6.296  -4.467  25.223  0.00  0.00    +0.024 S 
ATOM     10  O   UNL     1       5.550  -5.768  25.303  0.00  0.00    -0.257 OA
BRANCH   9  11
ATOM     11  C   UNL     1       8.064  -4.866  25.195  0.00  0.00    +0.131 C 
BRANCH  11  12
ATOM     12  C   UNL     1       8.616  -4.867  26.612  0.00  0.00    +0.169 C 
BRANCH  12  13
ATOM     13  O   UNL     1       7.886  -5.786  27.420  0.00  0.00    -0.394 OA
ATOM     14  H   UNL     1       8.019  -6.671  27.037  0.00  0.00    +0.209 HD
ENDBRANCH  12  13
ENDBRANCH  11  12
ENDBRANCH   9  11
ENDBRANCH   8   9
ENDBRANCH   1   8
TORSDOF 10
ENDMDL
MODEL 7
REMARK VINA RESULT:      -3.7      2.576      3.363
REMARK  Name = 
REMARK  11 active torsions:
REMARK  status: ('A' for Active; 'I' for Inactive)
REMARK    1  A    between atoms: C_1  and  C_2
REMARK    2  A    between atoms: C_2  and  C_3
REMARK    3  A    between atoms: C_3  and  C_4
REMARK    4  A    between atoms: C_4  and  C_5
REMARK    5  A    between atoms: C_5  and  C_6
REMARK    6  A    between atoms: C_6  and  C_7
REMARK    7  A    between atoms: C_7  and  C_8
REMARK    8  A    between atoms: C_8  and  S_9
REMARK    9  A    between atoms: S_9  and  C_11
REMARK   10  A    between atoms: C_11  and  C_12
REMARK   11  A    between atoms: C_12  and  O_13
REMARK                            x       y       z     vdW  Elec       q    Type
REMARK                         _______ _______ _______ _____ _____    ______ ____
ROOT
ATOM      1  C   UNL     1       8.156  -2.247  23.312  0.00  0.00    +0.013 C 
ENDROOT
BRANCH   1   2
ATOM      2  C   UNL     1       8.753  -1.951  21.935  0.00  0.00    +0.001 C 
BRANCH   2   3
ATOM      3  C   UNL     1       9.873  -0.914  22.062  0.00  0.00    +0.000 C 
BRANCH   3   4
ATOM      4  C   UNL     1       9.478   0.443  21.483  0.00  0.00    -0.000 C 
BRANCH   4   5
ATOM      5  C   UNL     1       9.946   1.580  22.395  0.00  0.00    -0.000 C 
BRANCH   5   7
ATOM      6  C   UNL     1       9.115   1.443  24.768  0.00  0.00    +0.004 C 
ATOM      7  C   UNL     1      10.239   1.083  23.809  0.00  0.00    -0.003 C 
ENDBRANCH   5   7
ENDBRANCH   4   5
ENDBRANCH   3   4
ENDBRANCH   2   3
ENDBRANCH   1   2
BRANCH   1   8
ATOM      8  C   UNL     1       6.730  -1.724  23.462  0.00  0.00    +0.104 C 
BRANCH   8   9
ATOM      9  S   UNL     1       5.554  -3.084  23.139  0.00  0.00    +0.024 S 
ATOM     10  O   UNL     1       5.441  -3.244  21.651  0.00  0.00    -0.257 OA
BRANCH   9  11
ATOM     11  C   UNL     1       6.615  -4.426  23.741  0.00  0.00    +0.131 C 
BRANCH  11  12
ATOM     12  C   UNL     1       6.470  -5.642  22.839  0.00  0.00    +0.169 C 
BRANCH  12  13
ATOM     13  O   UNL     1       7.293  -5.495  21.685  0.00  0.00    -0.394 OA
ATOM     14  H   UNL     1       8.121  -5.978  21.861  0.00  0.00    +0.209 HD
ENDBRANCH  12  13
ENDBRANCH  11  12
ENDBRANCH   9  11
ENDBRANCH   8   9
ENDBRANCH   1   8
TORSDOF 10
ENDMDL
MODEL 8
REMARK VINA RESULT:      -3.7      2.606      2.875
REMARK  Name = 
REMARK  11 active torsions:
REMARK  status: ('A' for Active; 'I' for Inactive)
REMARK    1  A    between atoms: C_1  and  C_2
REMARK    2  A    between atoms: C_2  and  C_3
REMARK    3  A    between atoms: C_3  and  C_4
REMARK    4  A    between atoms: C_4  and  C_5
REMARK    5  A    between atoms: C_5  and  C_6
REMARK    6  A    between atoms: C_6  and  C_7
REMARK    7  A    between atoms: C_7  and  C_8
REMARK    8  A    between atoms: C_8  and  S_9
REMARK    9  A    between atoms: S_9  and  C_11
REMARK   10  A    between atoms: C_11  and  C_12
REMARK   11  A    between atoms: C_12  and  O_13
REMARK                            x       y       z     vdW  Elec       q    Type
REMARK                         _______ _______ _______ _____ _____    ______ ____
ROOT
ATOM      1  C   UNL     1       8.813  -1.927  23.137  0.00  0.00    +0.013 C 
ENDROOT
BRANCH   1   2
ATOM      2  C   UNL     1       9.731  -1.676  24.334  0.00  0.00    +0.001 C 
BRANCH   2   3
ATOM      3  C   UNL     1       9.595  -0.224  24.802  0.00  0.00    +0.000 C 
BRANCH   3   4
ATOM      4  C   UNL     1      10.748   0.654  24.318  0.00  0.00    -0.000 C 
BRANCH   4   5
ATOM      5  C   UNL     1      10.222   1.843  23.510  0.00  0.00    -0.000 C 
BRANCH   5   7
ATOM      6  C   UNL     1       8.574   1.551  21.628  0.00  0.00    +0.004 C 
ATOM      7  C   UNL     1      10.038   1.487  22.037  0.00  0.00    -0.003 C 
ENDBRANCH   5   7
ENDBRANCH   4   5
ENDBRANCH   3   4
ENDBRANCH   2   3
ENDBRANCH   1   2
BRANCH   1   8
ATOM      8  C   UNL     1       7.510  -2.621  23.528  0.00  0.00    +0.104 C 
BRANCH   8   9
ATOM      9  S   UNL     1       7.756  -4.431  23.480  0.00  0.00    +0.024 S 
ATOM     10  O   UNL     1       6.897  -5.035  24.552  0.00  0.00    -0.257 OA
BRANCH   9  11
ATOM     11  C   UNL     1       6.915  -4.715  21.898  0.00  0.00    +0.131 C 
BRANCH  11  12
ATOM     12  C   UNL     1       5.616  -5.470  22.133  0.00  0.00    +0.169 C 
BRANCH  12  13
ATOM     13  O   UNL     1       5.885  -6.855  22.334  0.00  0.00    -0.394 OA
ATOM     14  H   UNL     1       6.674  -7.072  21.805  0.00  0.00    +0.209 HD
ENDBRANCH  12  13
ENDBRANCH  11  12
ENDBRANCH   9  11
ENDBRANCH   8   9
ENDBRANCH   1   8
TORSDOF 10
ENDMDL
MODEL 9
REMARK VINA RESULT:      -3.7      2.727      5.733
REMARK  Name = 
REMARK  11 active torsions:
REMARK  status: ('A' for Active; 'I' for Inactive)
REMARK    1  A    between atoms: C_1  and  C_2
REMARK    2  A    between atoms: C_2  and  C_3
REMARK    3  A    between atoms: C_3  and  C_4
REMARK    4  A    between atoms: C_4  and  C_5
REMARK    5  A    between atoms: C_5  and  C_6
REMARK    6  A    between atoms: C_6  and  C_7
REMARK    7  A    between atoms: C_7  and  C_8
REMARK    8  A    between atoms: C_8  and  S_9
REMARK    9  A    between atoms: S_9  and  C_11
REMARK   10  A    between atoms: C_11  and  C_12
REMARK   11  A    between atoms: C_12  and  O_13
REMARK                            x       y       z     vdW  Elec       q    Type
REMARK                         _______ _______ _______ _____ _____    ______ ____
ROOT
ATOM      1  C   UNL     1       6.459  -1.223  23.819  0.00  0.00    +0.013 C 
ENDROOT
BRANCH   1   2
ATOM      2  C   UNL     1       5.856  -2.605  23.564  0.00  0.00    +0.001 C 
BRANCH   2   3
ATOM      3  C   UNL     1       6.155  -3.532  24.746  0.00  0.00    +0.000 C 
BRANCH   3   4
ATOM      4  C   UNL     1       6.693  -4.890  24.298  0.00  0.00    -0.000 C 
BRANCH   4   5
ATOM      5  C   UNL     1       7.464  -4.760  22.981  0.00  0.00    -0.000 C 
BRANCH   5   7
ATOM      6  C   UNL     1       6.204  -5.684  21.006  0.00  0.00    +0.004 C 
ATOM      7  C   UNL     1       7.244  -5.972  22.078  0.00  0.00    -0.003 C 
ENDBRANCH   5   7
ENDBRANCH   4   5
ENDBRANCH   3   4
ENDBRANCH   2   3
ENDBRANCH   1   2
BRANCH   1   8
ATOM      8  C   UNL     1       7.665  -0.932  22.929  0.00  0.00    +0.104 C 
BRANCH   8   9
ATOM      9  S   UNL     1       9.160  -0.794  23.972  0.00  0.00    +0.024 S 
ATOM     10  O   UNL     1       9.693  -2.180  24.188  0.00  0.00    -0.257 OA
BRANCH   9  11
ATOM     11  C   UNL     1      10.213  -0.005  22.724  0.00  0.00    +0.131 C 
BRANCH  11  12
ATOM     12  C   UNL     1       9.352   0.745  21.720  0.00  0.00    +0.169 C 
BRANCH  12  13
ATOM     13  O   UNL     1       9.876   2.053  21.507  0.00  0.00    -0.394 OA
ATOM     14  H   UNL     1      10.841   1.962  21.415  0.00  0.00    +0.209 HD
ENDBRANCH  12  13
ENDBRANCH  11  12
ENDBRANCH   9  11
ENDBRANCH   8   9
ENDBRANCH   1   8
TORSDOF 10
ENDMDL
