MODEL 1
REMARK VINA RESULT:      -4.3      0.000      0.000
REMARK  Name = 
REMARK  3 active torsions:
REMARK  status: ('A' for Active; 'I' for Inactive)
REMARK    1  A    between atoms: O_1  and  C_2
REMARK    2  A    between atoms: C_2  and  C_4
REMARK    3  A    between atoms: C_8  and  O_9
REMARK                            x       y       z     vdW  Elec       q    Type
REMARK                         _______ _______ _______ _____ _____    ______ ____
ROOT
ATOM      1  C   UNL     1      10.224   0.093  22.985  0.00  0.00    +0.253 A 
ATOM      2  C   UNL     1      10.069   1.417  22.581  0.00  0.00    +0.288 A 
ATOM      3  N   UNL     1      10.226   2.263  23.587  0.00  0.00    -0.010 NA
ATOM      4  O   UNL     1      10.495   1.433  24.678  0.00  0.00    -0.238 OA
ATOM      5  N   UNL     1      10.494   0.084  24.303  0.00  0.00    -0.038 NA
ENDROOT
BRANCH   1   6
ATOM      6  C   UNL     1      10.137  -1.135  22.222  0.00  0.00    +0.364 C 
ATOM      7  O   UNL     1      10.534  -2.225  22.606  0.00  0.00    -0.243 OA
BRANCH   6   8
ATOM      8  O   UNL     1       9.558  -0.976  20.997  0.00  0.00    -0.476 OA
ATOM      9  H   UNL     1       9.398  -1.853  20.586  0.00  0.00    +0.295 HD
ENDBRANCH   6   8
ENDBRANCH   1   6
BRANCH   2  10
ATOM     10  O   UNL     1       9.798   1.950  21.388  0.00  0.00    -0.489 OA
ATOM     11  H   UNL     1       9.346   2.796  21.553  0.00  0.00    +0.294 HD
ENDBRANCH   2  10
TORSDOF 3
ENDMDL
MODEL 2
REMARK VINA RESULT:      -4.2      5.678      7.190
REMARK  Name = 
REMARK  3 active torsions:
REMARK  status: ('A' for Active; 'I' for Inactive)
REMARK    1  A    between atoms: O_1  and  C_2
REMARK    2  A    between atoms: C_2  and  C_4
REMARK    3  A    between atoms: C_8  and  O_9
REMARK                            x       y       z     vdW  Elec       q    Type
REMARK                         _______ _______ _______ _____ _____    ______ ____
ROOT
ATOM      1  C   UNL     1       8.111  -5.018  25.246  0.00  0.00    +0.253 A 
ATOM      2  C   UNL     1       7.422  -5.512  26.352  0.00  0.00    +0.288 A 
ATOM      3  N   UNL     1       6.131  -5.668  26.102  0.00  0.00    -0.010 NA
ATOM      4  O   UNL     1       6.000  -5.253  24.774  0.00  0.00    -0.238 OA
ATOM      5  N   UNL     1       7.230  -4.851  24.243  0.00  0.00    -0.038 NA
ENDROOT
BRANCH   1   6
ATOM      6  C   UNL     1       9.515  -4.704  25.082  0.00  0.00    +0.364 C 
ATOM      7  O   UNL     1       9.952  -3.809  24.374  0.00  0.00    -0.243 OA
BRANCH   6   8
ATOM      8  O   UNL     1      10.343  -5.514  25.803  0.00  0.00    -0.476 OA
ATOM      9  H   UNL     1       9.981  -6.426  25.826  0.00  0.00    +0.295 HD
ENDBRANCH   6   8
ENDBRANCH   1   6
BRANCH   2  10
ATOM     10  O   UNL     1       7.838  -5.840  27.576  0.00  0.00    -0.489 OA
ATOM     11  H   UNL     1       8.766  -5.554  27.646  0.00  0.00    +0.294 HD
ENDBRANCH   2  10
TORSDOF 3
ENDMDL
MODEL 3
REMARK VINA RESULT:      -4.1      1.230      3.008
REMARK  Name = 
REMARK  3 active torsions:
REMARK  status: ('A' for Active; 'I' for Inactive)
REMARK    1  A    between atoms: O_1  and  C_2
REMARK    2  A    between atoms: C_2  and  C_4
REMARK    3  A    between atoms: C_8  and  O_9
REMARK                            x       y       z     vdW  Elec       q    Type
REMARK                         _______ _______ _______ _____ _____    ______ ____
ROOT
ATOM      1  C   UNL     1      10.105   0.427  22.992  0.00  0.00    +0.253 A 
ATOM      2  C   UNL     1       9.838  -0.699  22.216  0.00  0.00    +0.288 A 
ATOM      3  N   UNL     1       9.840  -1.810  22.938  0.00  0.00    -0.010 NA
ATOM      4  O   UNL     1      10.121  -1.362  24.231  0.00  0.00    -0.238 OA
ATOM      5  N   UNL     1      10.284   0.028  24.264  0.00  0.00    -0.038 NA
ENDROOT
BRANCH   1   6
ATOM      6  C   UNL     1      10.197   1.822  22.616  0.00  0.00    +0.364 C 
ATOM      7  O   UNL     1      10.666   2.705  23.318  0.00  0.00    -0.243 OA
BRANCH   6   8
ATOM      8  O   UNL     1       9.702   2.085  21.372  0.00  0.00    -0.476 OA
ATOM      9  H   UNL     1       9.534   3.048  21.276  0.00  0.00    +0.295 HD
ENDBRANCH   6   8
ENDBRANCH   1   6
BRANCH   2  10
ATOM     10  O   UNL     1       9.589  -0.834  20.912  0.00  0.00    -0.489 OA
ATOM     11  H   UNL     1       9.856  -1.737  20.666  0.00  0.00    +0.294 HD
ENDBRANCH   2  10
TORSDOF 3
ENDMDL
MODEL 4
REMARK VINA RESULT:      -4.1      1.144      2.003
REMARK  Name = 
REMARK  3 active torsions:
REMARK  status: ('A' for Active; 'I' for Inactive)
REMARK    1  A    between atoms: O_1  and  C_2
REMARK    2  A    between atoms: C_2  and  C_4
REMARK    3  A    between atoms: C_8  and  O_9
REMARK                            x       y       z     vdW  Elec       q    Type
REMARK                         _______ _______ _______ _____ _____    ______ ____
ROOT
ATOM      1  C   UNL     1      10.217   0.162  22.950  0.00  0.00    +0.253 A 
ATOM      2  C   UNL     1      10.418   0.870  24.132  0.00  0.00    +0.288 A 
ATOM      3  N   UNL     1      10.393   2.180  23.935  0.00  0.00    -0.010 NA
ATOM      4  O   UNL     1      10.164   2.302  22.563  0.00  0.00    -0.238 OA
ATOM      5  N   UNL     1      10.053   1.048  21.951  0.00  0.00    -0.038 NA
ENDROOT
BRANCH   1   6
ATOM      6  C   UNL     1      10.168  -1.266  22.711  0.00  0.00    +0.364 C 
ATOM      7  O   UNL     1      10.153  -2.120  23.585  0.00  0.00    -0.243 OA
BRANCH   6   8
ATOM      8  O   UNL     1      10.139  -1.596  21.387  0.00  0.00    -0.476 OA
ATOM      9  H   UNL     1       9.697  -2.465  21.269  0.00  0.00    +0.295 HD
ENDBRANCH   6   8
ENDBRANCH   1   6
BRANCH   2  10
ATOM     10  O   UNL     1      10.624   0.458  25.384  0.00  0.00    -0.489 OA
ATOM     11  H   UNL     1      10.869  -0.483  25.335  0.00  0.00    +0.294 HD
ENDBRANCH   2  10
TORSDOF 3
ENDMDL
MODEL 5
REMARK VINA RESULT:      -4.0      6.365      7.457
REMARK  Name = 
REMARK  3 active torsions:
REMARK  status: ('A' for Active; 'I' for Inactive)
REMARK    1  A    between atoms: O_1  and  C_2
REMARK    2  A    between atoms: C_2  and  C_4
REMARK    3  A    between atoms: C_8  and  O_9
REMARK                            x       y       z     vdW  Elec       q    Type
REMARK                         _______ _______ _______ _____ _____    ______ ____
ROOT
ATOM      1  C   UNL     1       7.540  -5.134  25.793  0.00  0.00    +0.253 A 
ATOM      2  C   UNL     1       8.806  -5.381  25.266  0.00  0.00    +0.288 A 
ATOM      3  N   UNL     1       8.822  -5.273  23.946  0.00  0.00    -0.010 NA
ATOM      4  O   UNL     1       7.504  -4.940  23.626  0.00  0.00    -0.238 OA
ATOM      5  N   UNL     1       6.708  -4.853  24.774  0.00  0.00    -0.038 NA
ENDROOT
BRANCH   1   6
ATOM      6  C   UNL     1       7.080  -5.144  27.166  0.00  0.00    +0.364 C 
ATOM      7  O   UNL     1       6.283  -4.348  27.641  0.00  0.00    -0.243 OA
BRANCH   6   8
ATOM      8  O   UNL     1       7.623  -6.146  27.916  0.00  0.00    -0.476 OA
ATOM      9  H   UNL     1       6.990  -6.421  28.614  0.00  0.00    +0.295 HD
ENDBRANCH   6   8
ENDBRANCH   1   6
BRANCH   2  10
ATOM     10  O   UNL     1       9.961  -5.697  25.855  0.00  0.00    -0.489 OA
ATOM     11  H   UNL     1       9.984  -6.668  25.928  0.00  0.00    +0.294 HD
ENDBRANCH   2  10
TORSDOF 3
ENDMDL
MODEL 6
REMARK VINA RESULT:      -4.0      1.583      3.198
REMARK  Name = 
REMARK  3 active torsions:
REMARK  status: ('A' for Active; 'I' for Inactive)
REMARK    1  A    between atoms: O_1  and  C_2
REMARK    2  A    between atoms: C_2  and  C_4
REMARK    3  A    between atoms: C_8  and  O_9
REMARK                            x       y       z     vdW  Elec       q    Type
REMARK                         _______ _______ _______ _____ _____    ______ ____
ROOT
ATOM      1  C   UNL     1       9.872   0.403  23.213  0.00  0.00    +0.253 A 
ATOM      2  C   UNL     1       9.615   0.754  21.890  0.00  0.00    +0.288 A 
ATOM      3  N   UNL     1       9.466  -0.309  21.115  0.00  0.00    -0.010 NA
ATOM      4  O   UNL     1       9.636  -1.383  21.993  0.00  0.00    -0.238 OA
ATOM      5  N   UNL     1       9.887  -0.940  23.296  0.00  0.00    -0.038 NA
ENDROOT
BRANCH   1   6
ATOM      6  C   UNL     1      10.097   1.236  24.376  0.00  0.00    +0.364 C 
ATOM      7  O   UNL     1       9.903   2.441  24.419  0.00  0.00    -0.243 OA
BRANCH   6   8
ATOM      8  O   UNL     1      10.559   0.547  25.459  0.00  0.00    -0.476 OA
ATOM      9  H   UNL     1      11.528   0.409  25.379  0.00  0.00    +0.295 HD
ENDBRANCH   6   8
ENDBRANCH   1   6
BRANCH   2  10
ATOM     10  O   UNL     1       9.499   1.945  21.299  0.00  0.00    -0.489 OA
ATOM     11  H   UNL     1       9.696   1.813  20.356  0.00  0.00    +0.294 HD
ENDBRANCH   2  10
TORSDOF 3
ENDMDL
MODEL 7
REMARK VINA RESULT:      -3.8      1.658      3.731
REMARK  Name = 
REMARK  3 active torsions:
REMARK  status: ('A' for Active; 'I' for Inactive)
REMARK    1  A    between atoms: O_1  and  C_2
REMARK    2  A    between atoms: C_2  and  C_4
REMARK    3  A    between atoms: C_8  and  O_9
REMARK                            x       y       z     vdW  Elec       q    Type
REMARK                         _______ _______ _______ _____ _____    ______ ____
ROOT
ATOM      1  C   UNL     1      10.121   0.227  23.046  0.00  0.00    +0.253 A 
ATOM      2  C   UNL     1       9.892  -1.148  23.040  0.00  0.00    +0.288 A 
ATOM      3  N   UNL     1       9.445  -1.571  21.868  0.00  0.00    -0.010 NA
ATOM      4  O   UNL     1       9.392  -0.407  21.096  0.00  0.00    -0.238 OA
ATOM      5  N   UNL     1       9.812   0.709  21.828  0.00  0.00    -0.038 NA
ENDROOT
BRANCH   1   6
ATOM      6  C   UNL     1      10.604   1.091  24.103  0.00  0.00    +0.364 C 
ATOM      7  O   UNL     1      10.970   2.246  23.947  0.00  0.00    -0.243 OA
BRANCH   6   8
ATOM      8  O   UNL     1      10.619   0.495  25.330  0.00  0.00    -0.476 OA
ATOM      9  H   UNL     1      11.524   0.171  25.532  0.00  0.00    +0.295 HD
ENDBRANCH   6   8
ENDBRANCH   1   6
BRANCH   2  10
ATOM     10  O   UNL     1      10.043  -2.072  23.991  0.00  0.00    -0.489 OA
ATOM     11  H   UNL     1      10.929  -2.457  23.871  0.00  0.00    +0.294 HD
ENDBRANCH   2  10
TORSDOF 3
ENDMDL
MODEL 8
REMARK VINA RESULT:      -3.8      6.289      7.333
REMARK  Name = 
REMARK  3 active torsions:
REMARK  status: ('A' for Active; 'I' for Inactive)
REMARK    1  A    between atoms: O_1  and  C_2
REMARK    2  A    between atoms: C_2  and  C_4
REMARK    3  A    between atoms: C_8  and  O_9
REMARK                            x       y       z     vdW  Elec       q    Type
REMARK                         _______ _______ _______ _____ _____    ______ ____
ROOT
ATOM      1  C   UNL     1       7.273  -5.270  25.574  0.00  0.00    +0.253 A 
ATOM      2  C   UNL     1       8.000  -5.268  26.763  0.00  0.00    +0.288 A 
ATOM      3  N   UNL     1       7.329  -5.834  27.754  0.00  0.00    -0.010 NA
ATOM      4  O   UNL     1       6.122  -6.213  27.162  0.00  0.00    -0.238 OA
ATOM      5  N   UNL     1       6.088  -5.863  25.808  0.00  0.00    -0.038 NA
ENDROOT
BRANCH   1   6
ATOM      6  C   UNL     1       7.620  -4.761  24.264  0.00  0.00    +0.364 C 
ATOM      7  O   UNL     1       8.613  -4.094  24.015  0.00  0.00    -0.243 OA
BRANCH   6   8
ATOM      8  O   UNL     1       6.721  -5.095  23.294  0.00  0.00    -0.476 OA
ATOM      9  H   UNL     1       5.837  -5.245  23.694  0.00  0.00    +0.295 HD
ENDBRANCH   6   8
ENDBRANCH   1   6
BRANCH   2  10
ATOM     10  O   UNL     1       9.217  -4.804  27.052  0.00  0.00    -0.489 OA
ATOM     11  H   UNL     1       9.095  -4.042  27.645  0.00  0.00    +0.294 HD
ENDBRANCH   2  10
TORSDOF 3
ENDMDL
MODEL 9
REMARK VINA RESULT:      -3.8      4.449      5.673
REMARK  Name = 
REMARK  3 active torsions:
REMARK  status: ('A' for Active; 'I' for Inactive)
REMARK    1  A    between atoms: O_1  and  C_2
REMARK    2  A    between atoms: C_2  and  C_4
REMARK    3  A    between atoms: C_8  and  O_9
REMARK                            x       y       z     vdW  Elec       q    Type
REMARK                         _______ _______ _______ _____ _____    ______ ____
ROOT
ATOM      1  C   UNL     1       8.246  -4.403  24.538  0.00  0.00    +0.253 A 
ATOM      2  C   UNL     1       8.910  -3.391  23.850  0.00  0.00    +0.288 A 
ATOM      3  N   UNL     1       8.103  -2.739  23.027  0.00  0.00    -0.010 NA
ATOM      4  O   UNL     1       6.870  -3.370  23.206  0.00  0.00    -0.238 OA
ATOM      5  N   UNL     1       6.959  -4.404  24.146  0.00  0.00    -0.038 NA
ENDROOT
BRANCH   1   6
ATOM      6  C   UNL     1       8.738  -5.346  25.521  0.00  0.00    +0.364 C 
ATOM      7  O   UNL     1       8.081  -5.797  26.447  0.00  0.00    -0.243 OA
BRANCH   6   8
ATOM      8  O   UNL     1      10.040  -5.705  25.327  0.00  0.00    -0.476 OA
ATOM      9  H   UNL     1      10.614  -4.909  25.355  0.00  0.00    +0.295 HD
ENDBRANCH   6   8
ENDBRANCH   1   6
BRANCH   2  10
ATOM     10  O   UNL     1      10.182  -2.987  23.884  0.00  0.00    -0.489 OA
ATOM     11  H   UNL     1      10.368  -2.719  24.801  0.00  0.00    +0.294 HD
ENDBRANCH   2  10
TORSDOF 3
ENDMDL
