MODEL 1
REMARK VINA RESULT:      -6.6      0.000      0.000
REMARK  Name = 
REMARK  5 active torsions:
REMARK  status: ('A' for Active; 'I' for Inactive)
REMARK    1  A    between atoms: N9_8  and  C1*_9
REMARK    2  A    between atoms: C4*_12  and  C5*_14
REMARK    3  A    between atoms: C5*_14  and  O5*_15
REMARK    4  A    between atoms: C3*_16  and  O3*_18
REMARK    5  A    between atoms: C2*_19  and  O2*_21
REMARK                            x       y       z     vdW  Elec       q    Type
REMARK                         _______ _______ _______ _____ _____    ______ ____
ROOT
ATOM      1  N2    G A   1       5.769   1.722  22.934  0.00  0.00    -0.329 N 
ATOM      2  H21   G A   1       5.651   2.464  22.257  0.00  0.00    +0.145 HD
ATOM      3  H22   G A   1       4.940   1.140  23.032  0.00  0.00    +0.145 HD
ATOM      4  C2    G A   1       6.907   0.990  22.858  0.00  0.00    +0.195 A 
ATOM      5  N1    G A   1       8.038   1.671  22.451  0.00  0.00    -0.293 N 
ATOM      6  H1    G A   1       7.994   2.657  22.260  0.00  0.00    +0.172 HD
ATOM      7  C6    G A   1       9.299   1.108  22.348  0.00  0.00    +0.280 A 
ATOM      8  O6    G A   1      10.278   1.769  22.011  0.00  0.00    -0.265 OA
ATOM      9  C5    G A   1       9.302  -0.299  22.685  0.00  0.00    +0.172 A 
ATOM     10  N7    G A   1      10.327  -1.202  22.726  0.00  0.00    -0.229 NA
ATOM     11  C8    G A   1       9.752  -2.328  23.089  0.00  0.00    +0.203 A 
ATOM     12  N9    G A   1       8.386  -2.203  23.220  0.00  0.00    -0.285 N 
ATOM     13  C4    G A   1       8.101  -0.878  23.039  0.00  0.00    +0.171 A 
ATOM     14  N3    G A   1       6.889  -0.283  23.156  0.00  0.00    -0.196 NA
ENDROOT
BRANCH  12  15
ATOM     15  C1*   G A   1       7.439  -3.259  23.538  0.00  0.00    +0.253 C 
ATOM     16  C2*   G A   1       7.950  -4.694  23.326  0.00  0.00    +0.195 C 
ATOM     17  C3*   G A   1       8.401  -5.168  24.711  0.00  0.00    +0.178 C 
ATOM     18  C4*   G A   1       8.080  -4.000  25.636  0.00  0.00    +0.177 C 
ATOM     19  O4*   G A   1       7.096  -3.197  24.948  0.00  0.00    -0.346 OA
BRANCH  16  20
ATOM     20  O2*   G A   1       6.883  -5.551  22.868  0.00  0.00    -0.385 OA
ATOM     21  H2*   G A   1       7.191  -6.044  22.087  0.00  0.00    +0.210 HD
ENDBRANCH  16  20
BRANCH  17  22
ATOM     22  O3*   G A   1       9.797  -5.453  24.712  0.00  0.00    -0.386 OA
ATOM     23  H3*   G A   1       9.919  -6.412  24.824  0.00  0.00    +0.210 HD
ENDBRANCH  17  22
BRANCH  18  24
ATOM     24  C5*   G A   1       7.525  -4.428  26.991  0.00  0.00    +0.190 C 
BRANCH  24  25
ATOM     25  O5*   G A   1       8.032  -5.715  27.339  0.00  0.00    -0.392 OA
ATOM     26  H5*   G A   1       7.351  -6.146  27.889  0.00  0.00    +0.210 HD
ENDBRANCH  24  25
ENDBRANCH  18  24
ENDBRANCH  12  15
TORSDOF 5
ENDMDL
MODEL 2
REMARK VINA RESULT:      -6.4      2.833      5.957
REMARK  Name = 
REMARK  5 active torsions:
REMARK  status: ('A' for Active; 'I' for Inactive)
REMARK    1  A    between atoms: N9_8  and  C1*_9
REMARK    2  A    between atoms: C4*_12  and  C5*_14
REMARK    3  A    between atoms: C5*_14  and  O5*_15
REMARK    4  A    between atoms: C3*_16  and  O3*_18
REMARK    5  A    between atoms: C2*_19  and  O2*_21
REMARK                            x       y       z     vdW  Elec       q    Type
REMARK                         _______ _______ _______ _____ _____    ______ ____
ROOT
ATOM      1  N2    G A   1       7.904  -5.929  27.139  0.00  0.00    -0.329 N 
ATOM      2  H21   G A   1       7.661  -6.883  27.369  0.00  0.00    +0.145 HD
ATOM      3  H22   G A   1       8.910  -5.778  27.086  0.00  0.00    +0.145 HD
ATOM      4  C2    G A   1       7.241  -5.352  26.107  0.00  0.00    +0.195 A 
ATOM      5  N1    G A   1       5.923  -5.735  25.947  0.00  0.00    -0.293 N 
ATOM      6  H1    G A   1       5.500  -6.378  26.592  0.00  0.00    +0.172 HD
ATOM      7  C6    G A   1       5.072  -5.231  24.977  0.00  0.00    +0.280 A 
ATOM      8  O6    G A   1       3.898  -5.583  24.899  0.00  0.00    -0.265 OA
ATOM      9  C5    G A   1       5.728  -4.272  24.114  0.00  0.00    +0.172 A 
ATOM     10  N7    G A   1       5.245  -3.546  23.063  0.00  0.00    -0.229 NA
ATOM     11  C8    G A   1       6.279  -2.847  22.650  0.00  0.00    +0.203 A 
ATOM     12  N9    G A   1       7.428  -3.143  23.350  0.00  0.00    -0.285 N 
ATOM     13  C4    G A   1       7.060  -4.003  24.349  0.00  0.00    +0.171 A 
ATOM     14  N3    G A   1       7.853  -4.497  25.330  0.00  0.00    -0.196 NA
ENDROOT
BRANCH  12  15
ATOM     15  C1*   G A   1       8.759  -2.609  23.111  0.00  0.00    +0.253 C 
ATOM     16  C2*   G A   1       8.839  -1.455  22.099  0.00  0.00    +0.195 C 
ATOM     17  C3*   G A   1       8.866  -0.179  22.946  0.00  0.00    +0.178 C 
ATOM     18  C4*   G A   1       8.847  -0.678  24.386  0.00  0.00    +0.177 C 
ATOM     19  O4*   G A   1       9.290  -2.053  24.344  0.00  0.00    -0.346 OA
BRANCH  16  20
ATOM     20  O2*   G A   1      10.063  -1.531  21.336  0.00  0.00    -0.385 OA
ATOM     21  H2*   G A   1      10.775  -1.850  21.919  0.00  0.00    +0.210 HD
ENDBRANCH  16  20
BRANCH  17  22
ATOM     22  O3*   G A   1       7.726   0.629  22.669  0.00  0.00    -0.386 OA
ATOM     23  H3*   G A   1       7.680   1.340  23.332  0.00  0.00    +0.210 HD
ENDBRANCH  17  22
BRANCH  18  24
ATOM     24  C5*   G A   1       9.755   0.116  25.319  0.00  0.00    +0.190 C 
BRANCH  24  25
ATOM     25  O5*   G A   1       9.712   1.500  24.977  0.00  0.00    -0.392 OA
ATOM     26  H5*   G A   1       9.398   1.552  24.055  0.00  0.00    +0.210 HD
ENDBRANCH  24  25
ENDBRANCH  18  24
ENDBRANCH  12  15
TORSDOF 5
ENDMDL
MODEL 3
REMARK VINA RESULT:      -6.3      1.617      1.621
REMARK  Name = 
REMARK  5 active torsions:
REMARK  status: ('A' for Active; 'I' for Inactive)
REMARK    1  A    between atoms: N9_8  and  C1*_9
REMARK    2  A    between atoms: C4*_12  and  C5*_14
REMARK    3  A    between atoms: C5*_14  and  O5*_15
REMARK    4  A    between atoms: C3*_16  and  O3*_18
REMARK    5  A    between atoms: C2*_19  and  O2*_21
REMARK                            x       y       z     vdW  Elec       q    Type
REMARK                         _______ _______ _______ _____ _____    ______ ____
ROOT
ATOM      1  N2    G A   1       7.287   1.584  26.543  0.00  0.00    -0.329 N 
ATOM      2  H21   G A   1       7.191   2.587  26.455  0.00  0.00    +0.145 HD
ATOM      3  H22   G A   1       6.394   1.111  26.674  0.00  0.00    +0.145 HD
ATOM      4  C2    G A   1       8.075   0.954  25.637  0.00  0.00    +0.195 A 
ATOM      5  N1    G A   1       9.174   1.666  25.196  0.00  0.00    -0.293 N 
ATOM      6  H1    G A   1       9.368   2.580  25.566  0.00  0.00    +0.172 HD
ATOM      7  C6    G A   1      10.116   1.182  24.303  0.00  0.00    +0.280 A 
ATOM      8  O6    G A   1      11.092   1.846  23.967  0.00  0.00    -0.265 OA
ATOM      9  C5    G A   1       9.804  -0.157  23.848  0.00  0.00    +0.172 A 
ATOM     10  N7    G A   1      10.476  -0.983  22.993  0.00  0.00    -0.229 NA
ATOM     11  C8    G A   1       9.734  -2.068  22.943  0.00  0.00    +0.203 A 
ATOM     12  N9    G A   1       8.577  -1.949  23.680  0.00  0.00    -0.285 N 
ATOM     13  C4    G A   1       8.657  -0.748  24.331  0.00  0.00    +0.171 A 
ATOM     14  N3    G A   1       7.773  -0.250  25.230  0.00  0.00    -0.196 NA
ENDROOT
BRANCH  12  15
ATOM     15  C1*   G A   1       7.506  -2.926  23.789  0.00  0.00    +0.253 C 
ATOM     16  C2*   G A   1       7.856  -4.349  23.324  0.00  0.00    +0.195 C 
ATOM     17  C3*   G A   1       8.205  -5.116  24.603  0.00  0.00    +0.178 C 
ATOM     18  C4*   G A   1       7.989  -4.104  25.723  0.00  0.00    +0.177 C 
ATOM     19  O4*   G A   1       7.126  -3.079  25.183  0.00  0.00    -0.346 OA
BRANCH  16  20
ATOM     20  O2*   G A   1       6.713  -4.977  22.704  0.00  0.00    -0.385 OA
ATOM     21  H2*   G A   1       6.107  -4.283  22.390  0.00  0.00    +0.210 HD
ENDBRANCH  16  20
BRANCH  17  22
ATOM     22  O3*   G A   1       9.558  -5.558  24.567  0.00  0.00    -0.386 OA
ATOM     23  H3*   G A   1       9.575  -6.482  24.258  0.00  0.00    +0.210 HD
ENDBRANCH  17  22
BRANCH  18  24
ATOM     24  C5*   G A   1       7.345  -4.701  26.970  0.00  0.00    +0.190 C 
BRANCH  24  25
ATOM     25  O5*   G A   1       8.105  -5.822  27.420  0.00  0.00    -0.392 OA
ATOM     26  H5*   G A   1       7.480  -6.425  27.864  0.00  0.00    +0.210 HD
ENDBRANCH  24  25
ENDBRANCH  18  24
ENDBRANCH  12  15
TORSDOF 5
ENDMDL
MODEL 4
REMARK VINA RESULT:      -6.2      2.334      6.220
REMARK  Name = 
REMARK  5 active torsions:
REMARK  status: ('A' for Active; 'I' for Inactive)
REMARK    1  A    between atoms: N9_8  and  C1*_9
REMARK    2  A    between atoms: C4*_12  and  C5*_14
REMARK    3  A    between atoms: C5*_14  and  O5*_15
REMARK    4  A    between atoms: C3*_16  and  O3*_18
REMARK    5  A    between atoms: C2*_19  and  O2*_21
REMARK                            x       y       z     vdW  Elec       q    Type
REMARK                         _______ _______ _______ _____ _____    ______ ____
ROOT
ATOM      1  N2    G A   1      10.099  -5.278  25.651  0.00  0.00    -0.329 N 
ATOM      2  H21   G A   1      10.454  -6.145  25.270  0.00  0.00    +0.145 HD
ATOM      3  H22   G A   1      10.827  -4.698  26.063  0.00  0.00    +0.145 HD
ATOM      4  C2    G A   1       9.247  -4.563  24.876  0.00  0.00    +0.195 A 
ATOM      5  N1    G A   1       8.405  -5.300  24.065  0.00  0.00    -0.293 N 
ATOM      6  H1    G A   1       8.424  -6.303  24.095  0.00  0.00    +0.172 HD
ATOM      7  C6    G A   1       7.442  -4.754  23.232  0.00  0.00    +0.280 A 
ATOM      8  O6    G A   1       6.697  -5.458  22.555  0.00  0.00    -0.265 OA
ATOM      9  C5    G A   1       7.434  -3.308  23.275  0.00  0.00    +0.172 A 
ATOM     10  N7    G A   1       6.641  -2.404  22.626  0.00  0.00    -0.229 NA
ATOM     11  C8    G A   1       7.081  -1.234  23.037  0.00  0.00    +0.203 A 
ATOM     12  N9    G A   1       8.171  -1.346  23.873  0.00  0.00    -0.285 N 
ATOM     13  C4    G A   1       8.351  -2.684  24.093  0.00  0.00    +0.171 A 
ATOM     14  N3    G A   1       9.261  -3.256  24.919  0.00  0.00    -0.196 NA
ENDROOT
BRANCH  12  15
ATOM     15  C1*   G A   1       8.944  -0.259  24.451  0.00  0.00    +0.253 C 
ATOM     16  C2*   G A   1      10.157   0.203  23.626  0.00  0.00    +0.195 C 
ATOM     17  C3*   G A   1       9.673   1.432  22.852  0.00  0.00    +0.178 C 
ATOM     18  C4*   G A   1       8.233   1.628  23.311  0.00  0.00    +0.177 C 
ATOM     19  O4*   G A   1       8.109   0.925  24.568  0.00  0.00    -0.346 OA
BRANCH  16  20
ATOM     20  O2*   G A   1      11.241   0.599  24.495  0.00  0.00    -0.385 OA
ATOM     21  H2*   G A   1      11.424  -0.127  25.117  0.00  0.00    +0.210 HD
ENDBRANCH  16  20
BRANCH  17  22
ATOM     22  O3*   G A   1       9.734   1.194  21.448  0.00  0.00    -0.386 OA
ATOM     23  H3*   G A   1      10.085   0.298  21.300  0.00  0.00    +0.210 HD
ENDBRANCH  17  22
BRANCH  18  24
ATOM     24  C5*   G A   1       7.849   3.090  23.512  0.00  0.00    +0.190 C 
BRANCH  24  25
ATOM     25  O5*   G A   1       8.562   3.910  22.588  0.00  0.00    -0.392 OA
ATOM     26  H5*   G A   1       9.450   3.517  22.490  0.00  0.00    +0.210 HD
ENDBRANCH  24  25
ENDBRANCH  18  24
ENDBRANCH  12  15
TORSDOF 5
ENDMDL
MODEL 5
REMARK VINA RESULT:      -6.1      1.963      3.016
REMARK  Name = 
REMARK  5 active torsions:
REMARK  status: ('A' for Active; 'I' for Inactive)
REMARK    1  A    between atoms: N9_8  and  C1*_9
REMARK    2  A    between atoms: C4*_12  and  C5*_14
REMARK    3  A    between atoms: C5*_14  and  O5*_15
REMARK    4  A    between atoms: C3*_16  and  O3*_18
REMARK    5  A    between atoms: C2*_19  and  O2*_21
REMARK                            x       y       z     vdW  Elec       q    Type
REMARK                         _______ _______ _______ _____ _____    ______ ____
ROOT
ATOM      1  N2    G A   1       9.055   1.286  21.165  0.00  0.00    -0.329 N 
ATOM      2  H21   G A   1       9.459   2.198  20.998  0.00  0.00    +0.145 HD
ATOM      3  H22   G A   1       9.471   0.556  20.590  0.00  0.00    +0.145 HD
ATOM      4  C2    G A   1       8.905   0.903  22.457  0.00  0.00    +0.195 A 
ATOM      5  N1    G A   1       8.610   1.910  23.355  0.00  0.00    -0.293 N 
ATOM      6  H1    G A   1       8.488   2.854  23.036  0.00  0.00    +0.172 HD
ATOM      7  C6    G A   1       8.384   1.713  24.708  0.00  0.00    +0.280 A 
ATOM      8  O6    G A   1       8.093   2.642  25.458  0.00  0.00    -0.265 OA
ATOM      9  C5    G A   1       8.524   0.325  25.092  0.00  0.00    +0.172 A 
ATOM     10  N7    G A   1       8.370  -0.280  26.307  0.00  0.00    -0.229 NA
ATOM     11  C8    G A   1       8.624  -1.548  26.071  0.00  0.00    +0.203 A 
ATOM     12  N9    G A   1       9.002  -1.775  24.766  0.00  0.00    -0.285 N 
ATOM     13  C4    G A   1       8.861  -0.582  24.111  0.00  0.00    +0.171 A 
ATOM     14  N3    G A   1       9.046  -0.354  22.788  0.00  0.00    -0.196 NA
ENDROOT
BRANCH  12  15
ATOM     15  C1*   G A   1       9.419  -3.041  24.184  0.00  0.00    +0.253 C 
ATOM     16  C2*   G A   1       9.278  -4.269  25.098  0.00  0.00    +0.195 C 
ATOM     17  C3*   G A   1       7.955  -4.924  24.690  0.00  0.00    +0.178 C 
ATOM     18  C4*   G A   1       7.442  -4.062  23.541  0.00  0.00    +0.177 C 
ATOM     19  O4*   G A   1       8.588  -3.344  23.031  0.00  0.00    -0.346 OA
BRANCH  16  20
ATOM     20  O2*   G A   1      10.351  -5.205  24.860  0.00  0.00    -0.385 OA
ATOM     21  H2*   G A   1      11.049  -5.055  25.522  0.00  0.00    +0.210 HD
ENDBRANCH  16  20
BRANCH  17  22
ATOM     22  O3*   G A   1       7.038  -4.920  25.781  0.00  0.00    -0.386 OA
ATOM     23  H3*   G A   1       6.336  -4.271  25.594  0.00  0.00    +0.210 HD
ENDBRANCH  17  22
BRANCH  18  24
ATOM     24  C5*   G A   1       6.806  -4.866  22.412  0.00  0.00    +0.190 C 
BRANCH  24  25
ATOM     25  O5*   G A   1       7.496  -6.103  22.248  0.00  0.00    -0.392 OA
ATOM     26  H5*   G A   1       6.995  -6.619  21.588  0.00  0.00    +0.210 HD
ENDBRANCH  24  25
ENDBRANCH  18  24
ENDBRANCH  12  15
TORSDOF 5
ENDMDL
MODEL 6
REMARK VINA RESULT:      -6.0      2.313      5.835
REMARK  Name = 
REMARK  5 active torsions:
REMARK  status: ('A' for Active; 'I' for Inactive)
REMARK    1  A    between atoms: N9_8  and  C1*_9
REMARK    2  A    between atoms: C4*_12  and  C5*_14
REMARK    3  A    between atoms: C5*_14  and  O5*_15
REMARK    4  A    between atoms: C3*_16  and  O3*_18
REMARK    5  A    between atoms: C2*_19  and  O2*_21
REMARK                            x       y       z     vdW  Elec       q    Type
REMARK                         _______ _______ _______ _____ _____    ______ ____
ROOT
ATOM      1  N2    G A   1       5.209  -4.920  25.307  0.00  0.00    -0.329 N 
ATOM      2  H21   G A   1       5.180  -5.481  26.149  0.00  0.00    +0.145 HD
ATOM      3  H22   G A   1       4.468  -4.223  25.270  0.00  0.00    +0.145 HD
ATOM      4  C2    G A   1       6.412  -4.414  24.942  0.00  0.00    +0.195 A 
ATOM      5  N1    G A   1       7.510  -5.203  25.225  0.00  0.00    -0.293 N 
ATOM      6  H1    G A   1       7.390  -6.106  25.647  0.00  0.00    +0.172 HD
ATOM      7  C6    G A   1       8.816  -4.877  24.896  0.00  0.00    +0.280 A 
ATOM      8  O6    G A   1       9.754  -5.631  25.143  0.00  0.00    -0.265 OA
ATOM      9  C5    G A   1       8.914  -3.588  24.245  0.00  0.00    +0.172 A 
ATOM     10  N7    G A   1      10.000  -2.920  23.756  0.00  0.00    -0.229 NA
ATOM     11  C8    G A   1       9.503  -1.799  23.281  0.00  0.00    +0.203 A 
ATOM     12  N9    G A   1       8.148  -1.687  23.503  0.00  0.00    -0.285 N 
ATOM     13  C4    G A   1       7.750  -2.875  24.053  0.00  0.00    +0.171 A 
ATOM     14  N3    G A   1       6.483  -3.243  24.365  0.00  0.00    -0.196 NA
ENDROOT
BRANCH  12  15
ATOM     15  C1*   G A   1       7.298  -0.555  23.174  0.00  0.00    +0.253 C 
ATOM     16  C2*   G A   1       6.806   0.276  24.371  0.00  0.00    +0.195 C 
ATOM     17  C3*   G A   1       7.762   1.470  24.450  0.00  0.00    +0.178 C 
ATOM     18  C4*   G A   1       8.710   1.278  23.272  0.00  0.00    +0.177 C 
ATOM     19  O4*   G A   1       8.039   0.387  22.353  0.00  0.00    -0.346 OA
BRANCH  16  20
ATOM     20  O2*   G A   1       5.469   0.767  24.134  0.00  0.00    -0.385 OA
ATOM     21  H2*   G A   1       5.168   0.446  23.265  0.00  0.00    +0.210 HD
ENDBRANCH  16  20
BRANCH  17  22
ATOM     22  O3*   G A   1       8.472   1.461  25.685  0.00  0.00    -0.386 OA
ATOM     23  H3*   G A   1       8.364   0.586  26.099  0.00  0.00    +0.210 HD
ENDBRANCH  17  22
BRANCH  18  24
ATOM     24  C5*   G A   1       9.061   2.576  22.552  0.00  0.00    +0.190 C 
BRANCH  24  25
ATOM     25  O5*   G A   1      10.103   2.340  21.606  0.00  0.00    -0.392 OA
ATOM     26  H5*   G A   1      10.912   2.741  21.975  0.00  0.00    +0.210 HD
ENDBRANCH  24  25
ENDBRANCH  18  24
ENDBRANCH  12  15
TORSDOF 5
ENDMDL
MODEL 7
REMARK VINA RESULT:      -5.9      2.951      5.862
REMARK  Name = 
REMARK  5 active torsions:
REMARK  status: ('A' for Active; 'I' for Inactive)
REMARK    1  A    between atoms: N9_8  and  C1*_9
REMARK    2  A    between atoms: C4*_12  and  C5*_14
REMARK    3  A    between atoms: C5*_14  and  O5*_15
REMARK    4  A    between atoms: C3*_16  and  O3*_18
REMARK    5  A    between atoms: C2*_19  and  O2*_21
REMARK                            x       y       z     vdW  Elec       q    Type
REMARK                         _______ _______ _______ _____ _____    ______ ____
ROOT
ATOM      1  N2    G A   1       6.119  -5.853  20.372  0.00  0.00    -0.329 N 
ATOM      2  H21   G A   1       5.183  -6.049  20.043  0.00  0.00    +0.145 HD
ATOM      3  H22   G A   1       6.613  -5.186  19.783  0.00  0.00    +0.145 HD
ATOM      4  C2    G A   1       6.268  -5.585  21.692  0.00  0.00    +0.195 A 
ATOM      5  N1    G A   1       5.417  -6.261  22.545  0.00  0.00    -0.293 N 
ATOM      6  H1    G A   1       4.760  -6.929  22.182  0.00  0.00    +0.172 HD
ATOM      7  C6    G A   1       5.440  -6.151  23.926  0.00  0.00    +0.280 A 
ATOM      8  O6    G A   1       4.680  -6.801  24.641  0.00  0.00    -0.265 OA
ATOM      9  C5    G A   1       6.441  -5.213  24.386  0.00  0.00    +0.172 A 
ATOM     10  N7    G A   1       6.791  -4.836  25.652  0.00  0.00    -0.229 NA
ATOM     11  C8    G A   1       7.752  -3.956  25.473  0.00  0.00    +0.203 A 
ATOM     12  N9    G A   1       7.991  -3.701  24.140  0.00  0.00    -0.285 N 
ATOM     13  C4    G A   1       7.203  -4.569  23.435  0.00  0.00    +0.171 A 
ATOM     14  N3    G A   1       7.170  -4.726  22.089  0.00  0.00    -0.196 NA
ENDROOT
BRANCH  12  15
ATOM     15  C1*   G A   1       8.930  -2.738  23.590  0.00  0.00    +0.253 C 
ATOM     16  C2*   G A   1       8.401  -1.888  22.423  0.00  0.00    +0.195 C 
ATOM     17  C3*   G A   1       7.962  -0.564  23.056  0.00  0.00    +0.178 C 
ATOM     18  C4*   G A   1       8.307  -0.716  24.533  0.00  0.00    +0.177 C 
ATOM     19  O4*   G A   1       9.292  -1.771  24.613  0.00  0.00    -0.346 OA
BRANCH  16  20
ATOM     20  O2*   G A   1       9.454  -1.620  21.471  0.00  0.00    -0.385 OA
ATOM     21  H2*   G A   1       9.156  -1.903  20.588  0.00  0.00    +0.210 HD
ENDBRANCH  16  20
BRANCH  17  22
ATOM     22  O3*   G A   1       6.564  -0.363  22.875  0.00  0.00    -0.386 OA
ATOM     23  H3*   G A   1       6.085  -0.908  23.525  0.00  0.00    +0.210 HD
ENDBRANCH  17  22
BRANCH  18  24
ATOM     24  C5*   G A   1       8.874   0.552  25.162  0.00  0.00    +0.190 C 
BRANCH  24  25
ATOM     25  O5*   G A   1       9.992   1.012  24.405  0.00  0.00    -0.392 OA
ATOM     26  H5*   G A   1      10.224   0.296  23.784  0.00  0.00    +0.210 HD
ENDBRANCH  24  25
ENDBRANCH  18  24
ENDBRANCH  12  15
TORSDOF 5
ENDMDL
MODEL 8
REMARK VINA RESULT:      -5.9      2.575      3.453
REMARK  Name = 
REMARK  5 active torsions:
REMARK  status: ('A' for Active; 'I' for Inactive)
REMARK    1  A    between atoms: N9_8  and  C1*_9
REMARK    2  A    between atoms: C4*_12  and  C5*_14
REMARK    3  A    between atoms: C5*_14  and  O5*_15
REMARK    4  A    between atoms: C3*_16  and  O3*_18
REMARK    5  A    between atoms: C2*_19  and  O2*_21
REMARK                            x       y       z     vdW  Elec       q    Type
REMARK                         _______ _______ _______ _____ _____    ______ ____
ROOT
ATOM      1  N2    G A   1       6.717   0.771  22.602  0.00  0.00    -0.329 N 
ATOM      2  H21   G A   1       6.902   1.126  21.674  0.00  0.00    +0.145 HD
ATOM      3  H22   G A   1       5.726   0.770  22.835  0.00  0.00    +0.145 HD
ATOM      4  C2    G A   1       7.331  -0.384  22.958  0.00  0.00    +0.195 A 
ATOM      5  N1    G A   1       8.596  -0.581  22.438  0.00  0.00    -0.293 N 
ATOM      6  H1    G A   1       9.021   0.123  21.860  0.00  0.00    +0.172 HD
ATOM      7  C6    G A   1       9.397  -1.677  22.714  0.00  0.00    +0.280 A 
ATOM      8  O6    G A   1      10.528  -1.787  22.249  0.00  0.00    -0.265 OA
ATOM      9  C5    G A   1       8.746  -2.625  23.592  0.00  0.00    +0.172 A 
ATOM     10  N7    G A   1       9.192  -3.808  24.109  0.00  0.00    -0.229 NA
ATOM     11  C8    G A   1       8.184  -4.246  24.832  0.00  0.00    +0.203 A 
ATOM     12  N9    G A   1       7.080  -3.425  24.748  0.00  0.00    -0.285 N 
ATOM     13  C4    G A   1       7.465  -2.337  24.014  0.00  0.00    +0.171 A 
ATOM     14  N3    G A   1       6.724  -1.235  23.743  0.00  0.00    -0.196 NA
ENDROOT
BRANCH  12  15
ATOM     15  C1*   G A   1       5.780  -3.643  25.361  0.00  0.00    +0.253 C 
ATOM     16  C2*   G A   1       4.567  -3.373  24.455  0.00  0.00    +0.195 C 
ATOM     17  C3*   G A   1       4.151  -4.746  23.920  0.00  0.00    +0.178 C 
ATOM     18  C4*   G A   1       5.116  -5.722  24.585  0.00  0.00    +0.177 C 
ATOM     19  O4*   G A   1       5.649  -5.040  25.741  0.00  0.00    -0.346 OA
BRANCH  16  20
ATOM     20  O2*   G A   1       3.474  -2.823  25.221  0.00  0.00    -0.385 OA
ATOM     21  H2*   G A   1       3.069  -2.098  24.712  0.00  0.00    +0.210 HD
ENDBRANCH  16  20
BRANCH  17  22
ATOM     22  O3*   G A   1       4.275  -4.789  22.502  0.00  0.00    -0.386 OA
ATOM     23  H3*   G A   1       4.561  -5.683  22.242  0.00  0.00    +0.210 HD
ENDBRANCH  17  22
BRANCH  18  24
ATOM     24  C5*   G A   1       4.459  -7.026  25.026  0.00  0.00    +0.190 C 
BRANCH  24  25
ATOM     25  O5*   G A   1       3.774  -7.621  23.926  0.00  0.00    -0.392 OA
ATOM     26  H5*   G A   1       2.838  -7.355  24.001  0.00  0.00    +0.210 HD
ENDBRANCH  24  25
ENDBRANCH  18  24
ENDBRANCH  12  15
TORSDOF 5
ENDMDL
MODEL 9
REMARK VINA RESULT:      -5.9      3.014      6.368
REMARK  Name = 
REMARK  5 active torsions:
REMARK  status: ('A' for Active; 'I' for Inactive)
REMARK    1  A    between atoms: N9_8  and  C1*_9
REMARK    2  A    between atoms: C4*_12  and  C5*_14
REMARK    3  A    between atoms: C5*_14  and  O5*_15
REMARK    4  A    between atoms: C3*_16  and  O3*_18
REMARK    5  A    between atoms: C2*_19  and  O2*_21
REMARK                            x       y       z     vdW  Elec       q    Type
REMARK                         _______ _______ _______ _____ _____    ______ ____
ROOT
ATOM      1  N2    G A   1      10.177  -5.661  25.489  0.00  0.00    -0.329 N 
ATOM      2  H21   G A   1      10.212  -6.672  25.519  0.00  0.00    +0.145 HD
ATOM      3  H22   G A   1      10.508  -5.279  24.606  0.00  0.00    +0.145 HD
ATOM      4  C2    G A   1       9.032  -5.069  25.911  0.00  0.00    +0.195 A 
ATOM      5  N1    G A   1       8.369  -5.704  26.943  0.00  0.00    -0.293 N 
ATOM      6  H1    G A   1       8.753  -6.534  27.357  0.00  0.00    +0.172 HD
ATOM      7  C6    G A   1       7.207  -5.235  27.535  0.00  0.00    +0.280 A 
ATOM      8  O6    G A   1       6.675  -5.824  28.472  0.00  0.00    -0.265 OA
ATOM      9  C5    G A   1       6.736  -4.010  26.925  0.00  0.00    +0.172 A 
ATOM     10  N7    G A   1       5.654  -3.230  27.220  0.00  0.00    -0.229 NA
ATOM     11  C8    G A   1       5.713  -2.251  26.344  0.00  0.00    +0.203 A 
ATOM     12  N9    G A   1       6.753  -2.403  25.453  0.00  0.00    -0.285 N 
ATOM     13  C4    G A   1       7.463  -3.494  25.874  0.00  0.00    +0.171 A 
ATOM     14  N3    G A   1       8.616  -3.969  25.342  0.00  0.00    -0.196 NA
ENDROOT
BRANCH  12  15
ATOM     15  C1*   G A   1       7.066  -1.547  24.321  0.00  0.00    +0.253 C 
ATOM     16  C2*   G A   1       6.674  -0.069  24.479  0.00  0.00    +0.195 C 
ATOM     17  C3*   G A   1       7.959   0.642  24.917  0.00  0.00    +0.178 C 
ATOM     18  C4*   G A   1       9.014  -0.458  24.938  0.00  0.00    +0.177 C 
ATOM     19  O4*   G A   1       8.503  -1.526  24.109  0.00  0.00    -0.346 OA
BRANCH  16  20
ATOM     20  O2*   G A   1       6.248   0.482  23.214  0.00  0.00    -0.385 OA
ATOM     21  H2*   G A   1       5.362   0.872  23.326  0.00  0.00    +0.210 HD
ENDBRANCH  16  20
BRANCH  17  22
ATOM     22  O3*   G A   1       7.795   1.219  26.209  0.00  0.00    -0.386 OA
ATOM     23  H3*   G A   1       6.882   1.057  26.508  0.00  0.00    +0.210 HD
ENDBRANCH  17  22
BRANCH  18  24
ATOM     24  C5*   G A   1      10.372  -0.012  24.407  0.00  0.00    +0.190 C 
BRANCH  24  25
ATOM     25  O5*   G A   1      10.662   1.308  24.862  0.00  0.00    -0.392 OA
ATOM     26  H5*   G A   1      11.591   1.305  25.161  0.00  0.00    +0.210 HD
ENDBRANCH  24  25
ENDBRANCH  18  24
ENDBRANCH  12  15
TORSDOF 5
ENDMDL
