MODEL 1
REMARK VINA RESULT:      -6.6      0.000      0.000
REMARK  Name = 
REMARK  6 active torsions:
REMARK  status: ('A' for Active; 'I' for Inactive)
REMARK    1  A    between atoms: N_1  and  C_2
REMARK    2  A    between atoms: C_2  and  C_3
REMARK    3  A    between atoms: N_5  and  C_6
REMARK    4  A    between atoms: C_9  and  O_10
REMARK    5  A    between atoms: O_10  and  C_11
REMARK    6  A    between atoms: C_11  and  C_12
REMARK                            x       y       z     vdW  Elec       q    Type
REMARK                         _______ _______ _______ _____ _____    ______ ____
ROOT
ATOM      1  C   UNL     1      10.146   2.251  23.196  0.00  0.00    +0.034 A 
ATOM      2  C   UNL     1       9.805   1.687  21.964  0.00  0.00    +0.027 A 
ATOM      3  C   UNL     1       9.818   0.294  21.793  0.00  0.00    +0.047 A 
ATOM      4  C   UNL     1      10.159  -0.542  22.858  0.00  0.00    +0.121 A 
ATOM      5  C   UNL     1      10.568   0.021  24.060  0.00  0.00    +0.047 A 
ATOM      6  C   UNL     1      10.549   1.402  24.230  0.00  0.00    +0.027 A 
ENDROOT
BRANCH   1   8
ATOM      7  C   UNL     1      11.127   4.536  23.442  0.00  0.00    +0.231 C 
ATOM      8  N   UNL     1      10.063   3.648  23.365  0.00  0.00    -0.284 N 
ATOM      9  H   UNL     1       9.144   4.052  23.533  0.00  0.00    +0.155 HD
ATOM     10  O   UNL     1      12.324   4.269  23.360  0.00  0.00    -0.274 OA
BRANCH   7  11
ATOM     11  C   UNL     1      10.691   5.983  23.646  0.00  0.00    +0.175 C 
BRANCH  11  12
ATOM     12  N   UNL     1       9.400   6.227  22.985  0.00  0.00    -0.322 NA
ATOM     13  H   UNL     1       9.298   5.548  22.227  0.00  0.00    +0.119 HD
ATOM     14  H   UNL     1       8.662   5.984  23.647  0.00  0.00    +0.119 HD
ENDBRANCH  11  12
ENDBRANCH   7  11
ENDBRANCH   1   8
BRANCH   4  15
ATOM     15  O   UNL     1      10.054  -1.888  22.645  0.00  0.00    -0.487 OA
BRANCH  15  16
ATOM     16  C   UNL     1       9.472  -2.613  23.737  0.00  0.00    +0.264 C 
BRANCH  16  17
ATOM     17  C   UNL     1       8.228  -3.318  23.266  0.00  0.00    -0.010 A 
ATOM     18  C   UNL     1       7.939  -4.606  23.735  0.00  0.00    +0.007 A 
ATOM     19  C   UNL     1       6.803  -5.279  23.293  0.00  0.00    +0.000 A 
ATOM     20  C   UNL     1       5.953  -4.672  22.369  0.00  0.00    +0.000 A 
ATOM     21  C   UNL     1       6.243  -3.399  21.882  0.00  0.00    +0.000 A 
ATOM     22  C   UNL     1       7.381  -2.723  22.323  0.00  0.00    +0.007 A 
ENDBRANCH  16  17
ENDBRANCH  15  16
ENDBRANCH   4  15
TORSDOF 6
ENDMDL
MODEL 2
REMARK VINA RESULT:      -6.6      4.644      8.297
REMARK  Name = 
REMARK  6 active torsions:
REMARK  status: ('A' for Active; 'I' for Inactive)
REMARK    1  A    between atoms: N_1  and  C_2
REMARK    2  A    between atoms: C_2  and  C_3
REMARK    3  A    between atoms: N_5  and  C_6
REMARK    4  A    between atoms: C_9  and  O_10
REMARK    5  A    between atoms: O_10  and  C_11
REMARK    6  A    between atoms: C_11  and  C_12
REMARK                            x       y       z     vdW  Elec       q    Type
REMARK                         _______ _______ _______ _____ _____    ______ ____
ROOT
ATOM      1  C   UNL     1       7.787  -4.935  25.906  0.00  0.00    +0.034 A 
ATOM      2  C   UNL     1       8.670  -3.871  26.106  0.00  0.00    +0.027 A 
ATOM      3  C   UNL     1       9.033  -3.040  25.034  0.00  0.00    +0.047 A 
ATOM      4  C   UNL     1       8.505  -3.263  23.761  0.00  0.00    +0.121 A 
ATOM      5  C   UNL     1       7.686  -4.364  23.549  0.00  0.00    +0.047 A 
ATOM      6  C   UNL     1       7.321  -5.183  24.612  0.00  0.00    +0.027 A 
ENDROOT
BRANCH   1   8
ATOM      7  C   UNL     1       6.410  -5.391  27.941  0.00  0.00    +0.231 C 
ATOM      8  N   UNL     1       7.384  -5.717  27.008  0.00  0.00    -0.284 N 
ATOM      9  H   UNL     1       7.907  -6.569  27.202  0.00  0.00    +0.155 HD
ATOM     10  O   UNL     1       5.715  -4.377  27.965  0.00  0.00    -0.274 OA
BRANCH   7  11
ATOM     11  C   UNL     1       6.232  -6.452  29.022  0.00  0.00    +0.175 C 
BRANCH  11  12
ATOM     12  N   UNL     1       5.362  -7.534  28.540  0.00  0.00    -0.322 NA
ATOM     13  H   UNL     1       5.693  -7.819  27.615  0.00  0.00    +0.119 HD
ATOM     14  H   UNL     1       5.525  -8.351  29.132  0.00  0.00    +0.119 HD
ENDBRANCH  11  12
ENDBRANCH   7  11
ENDBRANCH   1   8
BRANCH   4  15
ATOM     15  O   UNL     1       8.828  -2.355  22.792  0.00  0.00    -0.487 OA
BRANCH  15  16
ATOM     16  C   UNL     1      10.180  -1.881  22.856  0.00  0.00    +0.264 C 
BRANCH  16  17
ATOM     17  C   UNL     1      10.184  -0.377  22.915  0.00  0.00    -0.010 A 
ATOM     18  C   UNL     1       9.772   0.364  21.800  0.00  0.00    +0.007 A 
ATOM     19  C   UNL     1       9.789   1.755  21.832  0.00  0.00    +0.000 A 
ATOM     20  C   UNL     1      10.230   2.417  22.979  0.00  0.00    +0.000 A 
ATOM     21  C   UNL     1      10.660   1.688  24.086  0.00  0.00    +0.000 A 
ATOM     22  C   UNL     1      10.644   0.294  24.055  0.00  0.00    +0.007 A 
ENDBRANCH  16  17
ENDBRANCH  15  16
ENDBRANCH   4  15
TORSDOF 6
ENDMDL
MODEL 3
REMARK VINA RESULT:      -6.6      0.976      1.761
REMARK  Name = 
REMARK  6 active torsions:
REMARK  status: ('A' for Active; 'I' for Inactive)
REMARK    1  A    between atoms: N_1  and  C_2
REMARK    2  A    between atoms: C_2  and  C_3
REMARK    3  A    between atoms: N_5  and  C_6
REMARK    4  A    between atoms: C_9  and  O_10
REMARK    5  A    between atoms: O_10  and  C_11
REMARK    6  A    between atoms: C_11  and  C_12
REMARK                            x       y       z     vdW  Elec       q    Type
REMARK                         _______ _______ _______ _____ _____    ______ ____
ROOT
ATOM      1  C   UNL     1      10.155   2.258  23.233  0.00  0.00    +0.034 A 
ATOM      2  C   UNL     1       9.819   1.684  22.004  0.00  0.00    +0.027 A 
ATOM      3  C   UNL     1       9.825   0.289  21.847  0.00  0.00    +0.047 A 
ATOM      4  C   UNL     1      10.154  -0.538  22.923  0.00  0.00    +0.121 A 
ATOM      5  C   UNL     1      10.557   0.035  24.122  0.00  0.00    +0.047 A 
ATOM      6  C   UNL     1      10.545   1.418  24.278  0.00  0.00    +0.027 A 
ENDROOT
BRANCH   1   8
ATOM      7  C   UNL     1      11.147   4.539  23.470  0.00  0.00    +0.231 C 
ATOM      8  N   UNL     1      10.079   3.658  23.387  0.00  0.00    -0.284 N 
ATOM      9  H   UNL     1       9.160   4.069  23.538  0.00  0.00    +0.155 HD
ATOM     10  O   UNL     1      12.344   4.264  23.407  0.00  0.00    -0.274 OA
BRANCH   7  11
ATOM     11  C   UNL     1      10.718   5.991  23.654  0.00  0.00    +0.175 C 
BRANCH  11  12
ATOM     12  N   UNL     1       9.404   6.220  23.035  0.00  0.00    -0.322 NA
ATOM     13  H   UNL     1       8.709   5.680  23.557  0.00  0.00    +0.119 HD
ATOM     14  H   UNL     1       9.148   7.195  23.200  0.00  0.00    +0.119 HD
ENDBRANCH  11  12
ENDBRANCH   7  11
ENDBRANCH   1   8
BRANCH   4  15
ATOM     15  O   UNL     1      10.042  -1.885  22.722  0.00  0.00    -0.487 OA
BRANCH  15  16
ATOM     16  C   UNL     1       8.690  -2.362  22.671  0.00  0.00    +0.264 C 
BRANCH  16  17
ATOM     17  C   UNL     1       8.473  -3.374  23.764  0.00  0.00    -0.010 A 
ATOM     18  C   UNL     1       7.187  -3.878  24.000  0.00  0.00    +0.007 A 
ATOM     19  C   UNL     1       6.967  -4.799  25.020  0.00  0.00    +0.000 A 
ATOM     20  C   UNL     1       8.031  -5.215  25.821  0.00  0.00    +0.000 A 
ATOM     21  C   UNL     1       9.310  -4.704  25.606  0.00  0.00    +0.000 A 
ATOM     22  C   UNL     1       9.533  -3.781  24.584  0.00  0.00    +0.007 A 
ENDBRANCH  16  17
ENDBRANCH  15  16
ENDBRANCH   4  15
TORSDOF 6
ENDMDL
MODEL 4
REMARK VINA RESULT:      -6.4      1.100      1.906
REMARK  Name = 
REMARK  6 active torsions:
REMARK  status: ('A' for Active; 'I' for Inactive)
REMARK    1  A    between atoms: N_1  and  C_2
REMARK    2  A    between atoms: C_2  and  C_3
REMARK    3  A    between atoms: N_5  and  C_6
REMARK    4  A    between atoms: C_9  and  O_10
REMARK    5  A    between atoms: O_10  and  C_11
REMARK    6  A    between atoms: C_11  and  C_12
REMARK                            x       y       z     vdW  Elec       q    Type
REMARK                         _______ _______ _______ _____ _____    ______ ____
ROOT
ATOM      1  C   UNL     1      10.322   2.056  23.131  0.00  0.00    +0.034 A 
ATOM      2  C   UNL     1      10.542   1.252  24.253  0.00  0.00    +0.027 A 
ATOM      3  C   UNL     1      10.396  -0.142  24.166  0.00  0.00    +0.047 A 
ATOM      4  C   UNL     1      10.040  -0.738  22.955  0.00  0.00    +0.121 A 
ATOM      5  C   UNL     1       9.750   0.067  21.861  0.00  0.00    +0.047 A 
ATOM      6  C   UNL     1       9.902   1.448  21.945  0.00  0.00    +0.027 A 
ENDROOT
BRANCH   1   8
ATOM      7  C   UNL     1       9.719   4.370  23.855  0.00  0.00    +0.231 C 
ATOM      8  N   UNL     1      10.538   3.446  23.223  0.00  0.00    -0.284 N 
ATOM      9  H   UNL     1      11.325   3.838  22.708  0.00  0.00    +0.155 HD
ATOM     10  O   UNL     1       8.673   4.144  24.461  0.00  0.00    -0.274 OA
BRANCH   7  11
ATOM     11  C   UNL     1      10.235   5.802  23.753  0.00  0.00    +0.175 C 
BRANCH  11  12
ATOM     12  N   UNL     1      11.504   5.838  23.011  0.00  0.00    -0.322 NA
ATOM     13  H   UNL     1      12.137   5.153  23.431  0.00  0.00    +0.119 HD
ATOM     14  H   UNL     1      11.325   5.479  22.072  0.00  0.00    +0.119 HD
ENDBRANCH  11  12
ENDBRANCH   7  11
ENDBRANCH   1   8
BRANCH   4  15
ATOM     15  O   UNL     1      10.012  -2.104  22.924  0.00  0.00    -0.487 OA
BRANCH  15  16
ATOM     16  C   UNL     1       9.185  -2.698  23.934  0.00  0.00    +0.264 C 
BRANCH  16  17
ATOM     17  C   UNL     1       8.048  -3.438  23.281  0.00  0.00    -0.010 A 
ATOM     18  C   UNL     1       7.138  -2.743  22.475  0.00  0.00    +0.007 A 
ATOM     19  C   UNL     1       6.070  -3.410  21.881  0.00  0.00    +0.000 A 
ATOM     20  C   UNL     1       5.898  -4.777  22.099  0.00  0.00    +0.000 A 
ATOM     21  C   UNL     1       6.787  -5.473  22.916  0.00  0.00    +0.000 A 
ATOM     22  C   UNL     1       7.858  -4.807  23.512  0.00  0.00    +0.007 A 
ENDBRANCH  16  17
ENDBRANCH  15  16
ENDBRANCH   4  15
TORSDOF 6
ENDMDL
MODEL 5
REMARK VINA RESULT:      -6.3      4.974      9.091
REMARK  Name = 
REMARK  6 active torsions:
REMARK  status: ('A' for Active; 'I' for Inactive)
REMARK    1  A    between atoms: N_1  and  C_2
REMARK    2  A    between atoms: C_2  and  C_3
REMARK    3  A    between atoms: N_5  and  C_6
REMARK    4  A    between atoms: C_9  and  O_10
REMARK    5  A    between atoms: O_10  and  C_11
REMARK    6  A    between atoms: C_11  and  C_12
REMARK                            x       y       z     vdW  Elec       q    Type
REMARK                         _______ _______ _______ _____ _____    ______ ____
ROOT
ATOM      1  C   UNL     1       5.469  -5.864  23.395  0.00  0.00    +0.034 A 
ATOM      2  C   UNL     1       5.849  -4.887  24.319  0.00  0.00    +0.027 A 
ATOM      3  C   UNL     1       6.820  -3.931  23.981  0.00  0.00    +0.047 A 
ATOM      4  C   UNL     1       7.407  -3.941  22.715  0.00  0.00    +0.121 A 
ATOM      5  C   UNL     1       7.082  -4.956  21.824  0.00  0.00    +0.047 A 
ATOM      6  C   UNL     1       6.115  -5.899  22.156  0.00  0.00    +0.027 A 
ENDROOT
BRANCH   1   8
ATOM      7  C   UNL     1       3.094  -6.639  23.443  0.00  0.00    +0.231 C 
ATOM      8  N   UNL     1       4.445  -6.773  23.731  0.00  0.00    -0.284 N 
ATOM      9  H   UNL     1       4.691  -7.570  24.315  0.00  0.00    +0.155 HD
ATOM     10  O   UNL     1       2.553  -5.720  22.833  0.00  0.00    -0.274 OA
BRANCH   7  11
ATOM     11  C   UNL     1       2.250  -7.797  23.966  0.00  0.00    +0.175 C 
BRANCH  11  12
ATOM     12  N   UNL     1       2.952  -8.495  25.052  0.00  0.00    -0.322 NA
ATOM     13  H   UNL     1       3.958  -8.383  24.903  0.00  0.00    +0.119 HD
ATOM     14  H   UNL     1       2.764  -7.990  25.919  0.00  0.00    +0.119 HD
ENDBRANCH  11  12
ENDBRANCH   7  11
ENDBRANCH   1   8
BRANCH   4  15
ATOM     15  O   UNL     1       8.270  -2.922  22.426  0.00  0.00    -0.487 OA
BRANCH  15  16
ATOM     16  C   UNL     1       9.142  -2.566  23.509  0.00  0.00    +0.264 C 
BRANCH  16  17
ATOM     17  C   UNL     1       9.547  -1.122  23.373  0.00  0.00    -0.010 A 
ATOM     18  C   UNL     1       9.504  -0.502  22.118  0.00  0.00    +0.007 A 
ATOM     19  C   UNL     1       9.895   0.826  21.973  0.00  0.00    +0.000 A 
ATOM     20  C   UNL     1      10.342   1.542  23.083  0.00  0.00    +0.000 A 
ATOM     21  C   UNL     1      10.407   0.928  24.332  0.00  0.00    +0.000 A 
ATOM     22  C   UNL     1      10.017  -0.403  24.480  0.00  0.00    +0.007 A 
ENDBRANCH  16  17
ENDBRANCH  15  16
ENDBRANCH   4  15
TORSDOF 6
ENDMDL
MODEL 6
REMARK VINA RESULT:      -6.3      4.560      8.456
REMARK  Name = 
REMARK  6 active torsions:
REMARK  status: ('A' for Active; 'I' for Inactive)
REMARK    1  A    between atoms: N_1  and  C_2
REMARK    2  A    between atoms: C_2  and  C_3
REMARK    3  A    between atoms: N_5  and  C_6
REMARK    4  A    between atoms: C_9  and  O_10
REMARK    5  A    between atoms: O_10  and  C_11
REMARK    6  A    between atoms: C_11  and  C_12
REMARK                            x       y       z     vdW  Elec       q    Type
REMARK                         _______ _______ _______ _____ _____    ______ ____
ROOT
ATOM      1  C   UNL     1       6.961  -4.883  25.441  0.00  0.00    +0.034 A 
ATOM      2  C   UNL     1       6.743  -3.662  24.798  0.00  0.00    +0.027 A 
ATOM      3  C   UNL     1       7.826  -2.921  24.297  0.00  0.00    +0.047 A 
ATOM      4  C   UNL     1       9.129  -3.406  24.426  0.00  0.00    +0.121 A 
ATOM      5  C   UNL     1       9.349  -4.584  25.128  0.00  0.00    +0.047 A 
ATOM      6  C   UNL     1       8.275  -5.320  25.618  0.00  0.00    +0.027 A 
ENDROOT
BRANCH   1   8
ATOM      7  C   UNL     1       5.006  -6.399  25.083  0.00  0.00    +0.231 C 
ATOM      8  N   UNL     1       5.855  -5.642  25.878  0.00  0.00    -0.284 N 
ATOM      9  H   UNL     1       5.589  -5.571  26.858  0.00  0.00    +0.155 HD
ATOM     10  O   UNL     1       5.074  -6.559  23.866  0.00  0.00    -0.274 OA
BRANCH   7  11
ATOM     11  C   UNL     1       3.894  -7.083  25.871  0.00  0.00    +0.175 C 
BRANCH  11  12
ATOM     12  N   UNL     1       3.315  -8.186  25.090  0.00  0.00    -0.322 NA
ATOM     13  H   UNL     1       3.305  -7.906  24.106  0.00  0.00    +0.119 HD
ATOM     14  H   UNL     1       3.968  -8.970  25.127  0.00  0.00    +0.119 HD
ENDBRANCH  11  12
ENDBRANCH   7  11
ENDBRANCH   1   8
BRANCH   4  15
ATOM     15  O   UNL     1      10.119  -2.679  23.827  0.00  0.00    -0.487 OA
BRANCH  15  16
ATOM     16  C   UNL     1       9.697  -1.957  22.662  0.00  0.00    +0.264 C 
BRANCH  16  17
ATOM     17  C   UNL     1       9.968  -0.489  22.855  0.00  0.00    -0.010 A 
ATOM     18  C   UNL     1      10.397  -0.019  24.103  0.00  0.00    +0.007 A 
ATOM     19  C   UNL     1      10.632   1.339  24.302  0.00  0.00    +0.000 A 
ATOM     20  C   UNL     1      10.429   2.239  23.256  0.00  0.00    +0.000 A 
ATOM     21  C   UNL     1       9.983   1.783  22.017  0.00  0.00    +0.000 A 
ATOM     22  C   UNL     1       9.746   0.423  21.815  0.00  0.00    +0.007 A 
ENDBRANCH  16  17
ENDBRANCH  15  16
ENDBRANCH   4  15
TORSDOF 6
ENDMDL
MODEL 7
REMARK VINA RESULT:      -6.0      2.404      2.874
REMARK  Name = 
REMARK  6 active torsions:
REMARK  status: ('A' for Active; 'I' for Inactive)
REMARK    1  A    between atoms: N_1  and  C_2
REMARK    2  A    between atoms: C_2  and  C_3
REMARK    3  A    between atoms: N_5  and  C_6
REMARK    4  A    between atoms: C_9  and  O_10
REMARK    5  A    between atoms: O_10  and  C_11
REMARK    6  A    between atoms: C_11  and  C_12
REMARK                            x       y       z     vdW  Elec       q    Type
REMARK                         _______ _______ _______ _____ _____    ______ ____
ROOT
ATOM      1  C   UNL     1       8.409   2.202  22.200  0.00  0.00    +0.034 A 
ATOM      2  C   UNL     1       7.394   1.352  22.648  0.00  0.00    +0.027 A 
ATOM      3  C   UNL     1       7.611  -0.033  22.725  0.00  0.00    +0.047 A 
ATOM      4  C   UNL     1       8.848  -0.572  22.367  0.00  0.00    +0.121 A 
ATOM      5  C   UNL     1       9.831   0.265  21.854  0.00  0.00    +0.047 A 
ATOM      6  C   UNL     1       9.617   1.638  21.784  0.00  0.00    +0.027 A 
ENDROOT
BRANCH   1   8
ATOM      7  C   UNL     1       8.359   4.463  23.263  0.00  0.00    +0.231 C 
ATOM      8  N   UNL     1       8.192   3.595  22.193  0.00  0.00    -0.284 N 
ATOM      9  H   UNL     1       7.793   4.008  21.352  0.00  0.00    +0.155 HD
ATOM     10  O   UNL     1       8.740   4.179  24.396  0.00  0.00    -0.274 OA
BRANCH   7  11
ATOM     11  C   UNL     1       8.019   5.910  22.922  0.00  0.00    +0.175 C 
BRANCH  11  12
ATOM     12  N   UNL     1       7.537   6.012  21.537  0.00  0.00    -0.322 NA
ATOM     13  H   UNL     1       7.380   7.001  21.328  0.00  0.00    +0.119 HD
ATOM     14  H   UNL     1       8.304   5.738  20.920  0.00  0.00    +0.119 HD
ENDBRANCH  11  12
ENDBRANCH   7  11
ENDBRANCH   1   8
BRANCH   4  15
ATOM     15  O   UNL     1       9.016  -1.914  22.562  0.00  0.00    -0.487 OA
BRANCH  15  16
ATOM     16  C   UNL     1       9.881  -2.246  23.658  0.00  0.00    +0.264 C 
BRANCH  16  17
ATOM     17  C   UNL     1       9.106  -3.017  24.693  0.00  0.00    -0.010 A 
ATOM     18  C   UNL     1       8.302  -2.331  25.613  0.00  0.00    +0.007 A 
ATOM     19  C   UNL     1       7.596  -3.029  26.589  0.00  0.00    +0.000 A 
ATOM     20  C   UNL     1       7.697  -4.418  26.659  0.00  0.00    +0.000 A 
ATOM     21  C   UNL     1       8.510  -5.107  25.760  0.00  0.00    +0.000 A 
ATOM     22  C   UNL     1       9.219  -4.410  24.782  0.00  0.00    +0.007 A 
ENDBRANCH  16  17
ENDBRANCH  15  16
ENDBRANCH   4  15
TORSDOF 6
ENDMDL
MODEL 8
REMARK VINA RESULT:      -6.0      4.558      8.446
REMARK  Name = 
REMARK  6 active torsions:
REMARK  status: ('A' for Active; 'I' for Inactive)
REMARK    1  A    between atoms: N_1  and  C_2
REMARK    2  A    between atoms: C_2  and  C_3
REMARK    3  A    between atoms: N_5  and  C_6
REMARK    4  A    between atoms: C_9  and  O_10
REMARK    5  A    between atoms: O_10  and  C_11
REMARK    6  A    between atoms: C_11  and  C_12
REMARK                            x       y       z     vdW  Elec       q    Type
REMARK                         _______ _______ _______ _____ _____    ______ ____
ROOT
ATOM      1  C   UNL     1       5.617  -4.409  23.958  0.00  0.00    +0.034 A 
ATOM      2  C   UNL     1       5.612  -3.021  24.121  0.00  0.00    +0.027 A 
ATOM      3  C   UNL     1       6.553  -2.225  23.450  0.00  0.00    +0.047 A 
ATOM      4  C   UNL     1       7.495  -2.812  22.603  0.00  0.00    +0.121 A 
ATOM      5  C   UNL     1       7.546  -4.196  22.499  0.00  0.00    +0.047 A 
ATOM      6  C   UNL     1       6.609  -4.985  23.159  0.00  0.00    +0.027 A 
ENDROOT
BRANCH   1   8
ATOM      7  C   UNL     1       4.812  -6.086  25.626  0.00  0.00    +0.231 C 
ATOM      8  N   UNL     1       4.622  -5.184  24.589  0.00  0.00    -0.284 N 
ATOM      9  H   UNL     1       3.681  -5.153  24.203  0.00  0.00    +0.155 HD
ATOM     10  O   UNL     1       5.870  -6.359  26.190  0.00  0.00    -0.274 OA
BRANCH   7  11
ATOM     11  C   UNL     1       3.524  -6.775  26.068  0.00  0.00    +0.175 C 
BRANCH  11  12
ATOM     12  N   UNL     1       3.373  -8.067  25.382  0.00  0.00    -0.322 NA
ATOM     13  H   UNL     1       4.243  -8.265  24.882  0.00  0.00    +0.119 HD
ATOM     14  H   UNL     1       3.318  -8.794  26.098  0.00  0.00    +0.119 HD
ENDBRANCH  11  12
ENDBRANCH   7  11
ENDBRANCH   1   8
BRANCH   4  15
ATOM     15  O   UNL     1       8.314  -1.966  21.910  0.00  0.00    -0.487 OA
BRANCH  15  16
ATOM     16  C   UNL     1       9.639  -1.855  22.449  0.00  0.00    +0.264 C 
BRANCH  16  17
ATOM     17  C   UNL     1       9.931  -0.414  22.772  0.00  0.00    -0.010 A 
ATOM     18  C   UNL     1      10.314  -0.056  24.071  0.00  0.00    +0.007 A 
ATOM     19  C   UNL     1      10.568   1.275  24.389  0.00  0.00    +0.000 A 
ATOM     20  C   UNL     1      10.430   2.261  23.412  0.00  0.00    +0.000 A 
ATOM     21  C   UNL     1      10.030   1.917  22.122  0.00  0.00    +0.000 A 
ATOM     22  C   UNL     1       9.774   0.583  21.801  0.00  0.00    +0.007 A 
ENDBRANCH  16  17
ENDBRANCH  15  16
ENDBRANCH   4  15
TORSDOF 6
ENDMDL
MODEL 9
REMARK VINA RESULT:      -6.0      1.967      2.234
REMARK  Name = 
REMARK  6 active torsions:
REMARK  status: ('A' for Active; 'I' for Inactive)
REMARK    1  A    between atoms: N_1  and  C_2
REMARK    2  A    between atoms: C_2  and  C_3
REMARK    3  A    between atoms: N_5  and  C_6
REMARK    4  A    between atoms: C_9  and  O_10
REMARK    5  A    between atoms: O_10  and  C_11
REMARK    6  A    between atoms: C_11  and  C_12
REMARK                            x       y       z     vdW  Elec       q    Type
REMARK                         _______ _______ _______ _____ _____    ______ ____
ROOT
ATOM      1  C   UNL     1       8.355   1.824  22.156  0.00  0.00    +0.034 A 
ATOM      2  C   UNL     1       7.332   1.000  22.633  0.00  0.00    +0.027 A 
ATOM      3  C   UNL     1       7.500  -0.394  22.662  0.00  0.00    +0.047 A 
ATOM      4  C   UNL     1       8.695  -0.967  22.227  0.00  0.00    +0.121 A 
ATOM      5  C   UNL     1       9.682  -0.154  21.686  0.00  0.00    +0.047 A 
ATOM      6  C   UNL     1       9.518   1.228  21.663  0.00  0.00    +0.027 A 
ENDROOT
BRANCH   1   8
ATOM      7  C   UNL     1       8.375   4.046  23.300  0.00  0.00    +0.231 C 
ATOM      8  N   UNL     1       8.191   3.224  22.197  0.00  0.00    -0.284 N 
ATOM      9  H   UNL     1       7.821   3.683  21.366  0.00  0.00    +0.155 HD
ATOM     10  O   UNL     1       8.728   3.707  24.427  0.00  0.00    -0.274 OA
BRANCH   7  11
ATOM     11  C   UNL     1       8.096   5.517  23.008  0.00  0.00    +0.175 C 
BRANCH  11  12
ATOM     12  N   UNL     1       7.424   5.663  21.709  0.00  0.00    -0.322 NA
ATOM     13  H   UNL     1       7.424   4.751  21.247  0.00  0.00    +0.119 HD
ATOM     14  H   UNL     1       6.438   5.859  21.890  0.00  0.00    +0.119 HD
ENDBRANCH  11  12
ENDBRANCH   7  11
ENDBRANCH   1   8
BRANCH   4  15
ATOM     15  O   UNL     1       8.821  -2.320  22.377  0.00  0.00    -0.487 OA
BRANCH  15  16
ATOM     16  C   UNL     1       8.345  -2.819  23.635  0.00  0.00    +0.264 C 
BRANCH  16  17
ATOM     17  C   UNL     1       7.393  -3.960  23.395  0.00  0.00    -0.010 A 
ATOM     18  C   UNL     1       6.646  -4.479  24.461  0.00  0.00    +0.007 A 
ATOM     19  C   UNL     1       5.777  -5.547  24.259  0.00  0.00    +0.000 A 
ATOM     20  C   UNL     1       5.657  -6.113  22.989  0.00  0.00    +0.000 A 
ATOM     21  C   UNL     1       6.411  -5.617  21.927  0.00  0.00    +0.000 A 
ATOM     22  C   UNL     1       7.283  -4.546  22.128  0.00  0.00    +0.007 A 
ENDBRANCH  16  17
ENDBRANCH  15  16
ENDBRANCH   4  15
TORSDOF 6
ENDMDL
