MODEL 1
REMARK VINA RESULT:      -6.3      0.000      0.000
REMARK  Name = 
REMARK  10 active torsions:
REMARK  status: ('A' for Active; 'I' for Inactive)
REMARK    1  A    between atoms: C_1  and  C_2
REMARK    2  A    between atoms: C_2  and  C_3
REMARK    3  A    between atoms: C_2  and  C_4
REMARK    4  A    between atoms: C_2  and  N_5
REMARK    5  A    between atoms: N_5  and  C_6
REMARK    6  A    between atoms: C_6  and  C_7
REMARK    7  A    between atoms: C_7  and  O_9
REMARK    8  A    between atoms: C_7  and  C_10
REMARK    9  A    between atoms: C_10  and  O_11
REMARK   10  A    between atoms: O_11  and  C_12
REMARK                            x       y       z     vdW  Elec       q    Type
REMARK                         _______ _______ _______ _____ _____    ______ ____
ROOT
ATOM      1  O   UNL     1       9.470  -3.497  24.139  0.00  0.00    -0.489 OA
ENDROOT
BRANCH   1   2
ATOM      2  C   UNL     1       9.136  -2.233  24.584  0.00  0.00    +0.124 A 
ATOM      3  C   UNL     1       9.261  -1.152  23.678  0.00  0.00    +0.005 A 
ATOM      4  C   UNL     1       9.639  -1.374  22.229  0.00  0.00    +0.040 C 
ATOM      5  C   UNL     1       9.394  -0.147  21.342  0.00  0.00    +0.013 C 
ATOM      6  C   UNL     1       9.956   1.111  21.978  0.00  0.00    +0.080 C 
ATOM      7  C   UNL     1       9.277   1.348  23.299  0.00  0.00    +0.164 C 
ATOM      8  O   UNL     1       8.999   2.479  23.693  0.00  0.00    -0.292 OA
ATOM      9  C   UNL     1       9.033   0.158  24.159  0.00  0.00    +0.024 A 
ATOM     10  C   UNL     1       8.623   0.387  25.475  0.00  0.00    +0.012 A 
ATOM     11  C   UNL     1       8.474  -0.678  26.349  0.00  0.00    +0.004 A 
ATOM     12  C   UNL     1       8.749  -1.974  25.908  0.00  0.00    +0.046 A 
ENDBRANCH   1   2
BRANCH   1  13
ATOM     13  C   UNL     1       9.735  -4.478  25.158  0.00  0.00    +0.261 C 
BRANCH  13  14
ATOM     14  C   UNL     1       8.633  -5.547  25.282  0.00  0.00    +0.166 C 
BRANCH  14  15
ATOM     15  O   UNL     1       8.320  -5.802  26.657  0.00  0.00    -0.387 OA
ATOM     16  H   UNL     1       8.656  -5.055  27.180  0.00  0.00    +0.210 HD
ENDBRANCH  14  15
BRANCH  14  17
ATOM     17  C   UNL     1       7.325  -5.205  24.529  0.00  0.00    +0.116 C 
BRANCH  17  18
ATOM     18  N   UNL     1       7.444  -5.279  23.061  0.00  0.00    -0.309 NA
ATOM     19  H   UNL     1       8.220  -4.684  22.772  0.00  0.00    +0.123 HD
BRANCH  18  21
ATOM     20  C   UNL     1       6.335  -3.344  21.939  0.00  0.00    +0.027 C 
ATOM     21  C   UNL     1       6.251  -4.836  22.302  0.00  0.00    +0.011 C 
ATOM     22  C   UNL     1       6.239  -5.646  20.988  0.00  0.00    +0.027 C 
ATOM     23  C   UNL     1       4.941  -5.129  23.052  0.00  0.00    +0.027 C 
ENDBRANCH  18  21
ENDBRANCH  17  18
ENDBRANCH  14  17
ENDBRANCH  13  14
ENDBRANCH   1  13
TORSDOF 7
ENDMDL
MODEL 2
REMARK VINA RESULT:      -6.2      2.032      2.901
REMARK  Name = 
REMARK  10 active torsions:
REMARK  status: ('A' for Active; 'I' for Inactive)
REMARK    1  A    between atoms: C_1  and  C_2
REMARK    2  A    between atoms: C_2  and  C_3
REMARK    3  A    between atoms: C_2  and  C_4
REMARK    4  A    between atoms: C_2  and  N_5
REMARK    5  A    between atoms: N_5  and  C_6
REMARK    6  A    between atoms: C_6  and  C_7
REMARK    7  A    between atoms: C_7  and  O_9
REMARK    8  A    between atoms: C_7  and  C_10
REMARK    9  A    between atoms: C_10  and  O_11
REMARK   10  A    between atoms: O_11  and  C_12
REMARK                            x       y       z     vdW  Elec       q    Type
REMARK                         _______ _______ _______ _____ _____    ______ ____
ROOT
ATOM      1  O   UNL     1       9.653  -3.036  24.363  0.00  0.00    -0.489 OA
ENDROOT
BRANCH   1   2
ATOM      2  C   UNL     1       9.155  -1.792  24.699  0.00  0.00    +0.124 A 
ATOM      3  C   UNL     1       9.243  -0.757  23.736  0.00  0.00    +0.005 A 
ATOM      4  C   UNL     1       9.761  -1.019  22.338  0.00  0.00    +0.040 C 
ATOM      5  C   UNL     1       9.466   0.123  21.357  0.00  0.00    +0.013 C 
ATOM      6  C   UNL     1       9.841   1.468  21.951  0.00  0.00    +0.080 C 
ATOM      7  C   UNL     1       9.034   1.705  23.198  0.00  0.00    +0.164 C 
ATOM      8  O   UNL     1       8.609   2.819  23.495  0.00  0.00    -0.292 OA
ATOM      9  C   UNL     1       8.843   0.546  24.112  0.00  0.00    +0.024 A 
ATOM     10  C   UNL     1       8.303   0.804  25.375  0.00  0.00    +0.012 A 
ATOM     11  C   UNL     1       8.192  -0.220  26.302  0.00  0.00    +0.004 A 
ATOM     12  C   UNL     1       8.634  -1.502  25.969  0.00  0.00    +0.046 A 
ENDBRANCH   1   2
BRANCH   1  13
ATOM     13  C   UNL     1       8.697  -4.110  24.322  0.00  0.00    +0.261 C 
BRANCH  13  14
ATOM     14  C   UNL     1       8.993  -5.234  25.334  0.00  0.00    +0.166 C 
BRANCH  14  15
ATOM     15  O   UNL     1      10.385  -5.574  25.326  0.00  0.00    -0.387 OA
ATOM     16  H   UNL     1      10.501  -6.359  25.889  0.00  0.00    +0.210 HD
ENDBRANCH  14  15
BRANCH  14  17
ATOM     17  C   UNL     1       8.568  -4.912  26.787  0.00  0.00    +0.116 C 
BRANCH  17  18
ATOM     18  N   UNL     1       7.712  -5.944  27.401  0.00  0.00    -0.309 NA
ATOM     19  H   UNL     1       7.789  -6.796  26.846  0.00  0.00    +0.123 HD
BRANCH  18  21
ATOM     20  C   UNL     1       5.476  -6.237  26.329  0.00  0.00    +0.027 C 
ATOM     21  C   UNL     1       6.271  -5.609  27.486  0.00  0.00    +0.011 C 
ATOM     22  C   UNL     1       5.753  -6.220  28.805  0.00  0.00    +0.027 C 
ATOM     23  C   UNL     1       6.027  -4.092  27.538  0.00  0.00    +0.027 C 
ENDBRANCH  18  21
ENDBRANCH  17  18
ENDBRANCH  14  17
ENDBRANCH  13  14
ENDBRANCH   1  13
TORSDOF 7
ENDMDL
MODEL 3
REMARK VINA RESULT:      -6.1      2.362      6.115
REMARK  Name = 
REMARK  10 active torsions:
REMARK  status: ('A' for Active; 'I' for Inactive)
REMARK    1  A    between atoms: C_1  and  C_2
REMARK    2  A    between atoms: C_2  and  C_3
REMARK    3  A    between atoms: C_2  and  C_4
REMARK    4  A    between atoms: C_2  and  N_5
REMARK    5  A    between atoms: N_5  and  C_6
REMARK    6  A    between atoms: C_6  and  C_7
REMARK    7  A    between atoms: C_7  and  O_9
REMARK    8  A    between atoms: C_7  and  C_10
REMARK    9  A    between atoms: C_10  and  O_11
REMARK   10  A    between atoms: O_11  and  C_12
REMARK                            x       y       z     vdW  Elec       q    Type
REMARK                         _______ _______ _______ _____ _____    ______ ____
ROOT
ATOM      1  O   UNL     1       9.604  -3.670  24.060  0.00  0.00    -0.489 OA
ENDROOT
BRANCH   1   2
ATOM      2  C   UNL     1       8.635  -4.335  24.786  0.00  0.00    +0.124 A 
ATOM      3  C   UNL     1       7.551  -4.910  24.080  0.00  0.00    +0.005 A 
ATOM      4  C   UNL     1       7.499  -4.904  22.567  0.00  0.00    +0.040 C 
ATOM      5  C   UNL     1       6.443  -5.855  21.991  0.00  0.00    +0.013 C 
ATOM      6  C   UNL     1       5.107  -5.681  22.691  0.00  0.00    +0.080 C 
ATOM      7  C   UNL     1       5.267  -5.993  24.154  0.00  0.00    +0.164 C 
ATOM      8  O   UNL     1       4.391  -6.571  24.794  0.00  0.00    -0.292 OA
ATOM      9  C   UNL     1       6.498  -5.491  24.824  0.00  0.00    +0.024 A 
ATOM     10  C   UNL     1       6.549  -5.567  26.218  0.00  0.00    +0.012 A 
ATOM     11  C   UNL     1       7.627  -5.027  26.901  0.00  0.00    +0.004 A 
ATOM     12  C   UNL     1       8.650  -4.400  26.187  0.00  0.00    +0.046 A 
ENDBRANCH   1   2
BRANCH   1  13
ATOM     13  C   UNL     1       9.526  -2.233  24.067  0.00  0.00    +0.261 C 
BRANCH  13  14
ATOM     14  C   UNL     1      10.304  -1.571  22.914  0.00  0.00    +0.166 C 
BRANCH  14  15
ATOM     15  O   UNL     1       9.716  -1.896  21.648  0.00  0.00    -0.387 OA
ATOM     16  H   UNL     1      10.439  -2.078  21.024  0.00  0.00    +0.210 HD
ENDBRANCH  14  15
BRANCH  14  17
ATOM     17  C   UNL     1      10.422  -0.032  23.026  0.00  0.00    +0.116 C 
BRANCH  17  18
ATOM     18  N   UNL     1       9.515   0.704  22.125  0.00  0.00    -0.309 NA
ATOM     19  H   UNL     1      10.053   1.426  21.648  0.00  0.00    +0.123 HD
BRANCH  18  21
ATOM     20  C   UNL     1       7.149   0.447  22.880  0.00  0.00    +0.027 C 
ATOM     21  C   UNL     1       8.371   1.377  22.784  0.00  0.00    +0.011 C 
ATOM     22  C   UNL     1       8.825   1.715  24.220  0.00  0.00    +0.027 C 
ATOM     23  C   UNL     1       7.986   2.691  22.085  0.00  0.00    +0.027 C 
ENDBRANCH  18  21
ENDBRANCH  17  18
ENDBRANCH  14  17
ENDBRANCH  13  14
ENDBRANCH   1  13
TORSDOF 7
ENDMDL
MODEL 4
REMARK VINA RESULT:      -6.0      2.133      5.797
REMARK  Name = 
REMARK  10 active torsions:
REMARK  status: ('A' for Active; 'I' for Inactive)
REMARK    1  A    between atoms: C_1  and  C_2
REMARK    2  A    between atoms: C_2  and  C_3
REMARK    3  A    between atoms: C_2  and  C_4
REMARK    4  A    between atoms: C_2  and  N_5
REMARK    5  A    between atoms: N_5  and  C_6
REMARK    6  A    between atoms: C_6  and  C_7
REMARK    7  A    between atoms: C_7  and  O_9
REMARK    8  A    between atoms: C_7  and  C_10
REMARK    9  A    between atoms: C_10  and  O_11
REMARK   10  A    between atoms: O_11  and  C_12
REMARK                            x       y       z     vdW  Elec       q    Type
REMARK                         _______ _______ _______ _____ _____    ______ ____
ROOT
ATOM      1  O   UNL     1       9.056  -3.368  23.327  0.00  0.00    -0.489 OA
ENDROOT
BRANCH   1   2
ATOM      2  C   UNL     1       8.438  -4.056  24.352  0.00  0.00    +0.124 A 
ATOM      3  C   UNL     1       7.269  -4.795  24.049  0.00  0.00    +0.005 A 
ATOM      4  C   UNL     1       6.764  -4.929  22.629  0.00  0.00    +0.040 C 
ATOM      5  C   UNL     1       5.705  -6.026  22.461  0.00  0.00    +0.013 C 
ATOM      6  C   UNL     1       4.632  -5.921  23.529  0.00  0.00    +0.080 C 
ATOM      7  C   UNL     1       5.261  -6.084  24.885  0.00  0.00    +0.164 C 
ATOM      8  O   UNL     1       4.694  -6.685  25.796  0.00  0.00    -0.292 OA
ATOM      9  C   UNL     1       6.566  -5.406  25.113  0.00  0.00    +0.024 A 
ATOM     10  C   UNL     1       7.044  -5.352  26.425  0.00  0.00    +0.012 A 
ATOM     11  C   UNL     1       8.205  -4.652  26.710  0.00  0.00    +0.004 A 
ATOM     12  C   UNL     1       8.882  -3.994  25.681  0.00  0.00    +0.046 A 
ENDBRANCH   1   2
BRANCH   1  13
ATOM     13  C   UNL     1      10.107  -2.464  23.714  0.00  0.00    +0.261 C 
BRANCH  13  14
ATOM     14  C   UNL     1      10.160  -1.183  22.861  0.00  0.00    +0.166 C 
BRANCH  14  15
ATOM     15  O   UNL     1      10.127  -1.498  21.463  0.00  0.00    -0.387 OA
ATOM     16  H   UNL     1      10.279  -2.454  21.371  0.00  0.00    +0.210 HD
ENDBRANCH  14  15
BRANCH  14  17
ATOM     17  C   UNL     1       9.034  -0.166  23.167  0.00  0.00    +0.116 C 
BRANCH  17  18
ATOM     18  N   UNL     1       7.680  -0.748  23.139  0.00  0.00    -0.309 NA
ATOM     19  H   UNL     1       7.200  -0.402  22.308  0.00  0.00    +0.123 HD
BRANCH  18  21
ATOM     20  C   UNL     1       5.756  -1.507  24.537  0.00  0.00    +0.027 C 
ATOM     21  C   UNL     1       6.823  -0.424  24.303  0.00  0.00    +0.011 C 
ATOM     22  C   UNL     1       7.748  -0.395  25.538  0.00  0.00    +0.027 C 
ATOM     23  C   UNL     1       6.160   0.957  24.174  0.00  0.00    +0.027 C 
ENDBRANCH  18  21
ENDBRANCH  17  18
ENDBRANCH  14  17
ENDBRANCH  13  14
ENDBRANCH   1  13
TORSDOF 7
ENDMDL
MODEL 5
REMARK VINA RESULT:      -5.9      2.533      7.043
REMARK  Name = 
REMARK  10 active torsions:
REMARK  status: ('A' for Active; 'I' for Inactive)
REMARK    1  A    between atoms: C_1  and  C_2
REMARK    2  A    between atoms: C_2  and  C_3
REMARK    3  A    between atoms: C_2  and  C_4
REMARK    4  A    between atoms: C_2  and  N_5
REMARK    5  A    between atoms: N_5  and  C_6
REMARK    6  A    between atoms: C_6  and  C_7
REMARK    7  A    between atoms: C_7  and  O_9
REMARK    8  A    between atoms: C_7  and  C_10
REMARK    9  A    between atoms: C_10  and  O_11
REMARK   10  A    between atoms: O_11  and  C_12
REMARK                            x       y       z     vdW  Elec       q    Type
REMARK                         _______ _______ _______ _____ _____    ______ ____
ROOT
ATOM      1  O   UNL     1       8.473  -3.614  23.732  0.00  0.00    -0.489 OA
ENDROOT
BRANCH   1   2
ATOM      2  C   UNL     1       7.459  -4.432  23.274  0.00  0.00    +0.124 A 
ATOM      3  C   UNL     1       6.591  -5.014  24.229  0.00  0.00    +0.005 A 
ATOM      4  C   UNL     1       6.686  -4.670  25.699  0.00  0.00    +0.040 C 
ATOM      5  C   UNL     1       5.467  -5.127  26.511  0.00  0.00    +0.013 C 
ATOM      6  C   UNL     1       5.108  -6.568  26.199  0.00  0.00    +0.080 C 
ATOM      7  C   UNL     1       4.770  -6.693  24.739  0.00  0.00    +0.164 C 
ATOM      8  O   UNL     1       3.876  -7.437  24.341  0.00  0.00    -0.292 OA
ATOM      9  C   UNL     1       5.624  -5.943  23.778  0.00  0.00    +0.024 A 
ATOM     10  C   UNL     1       5.472  -6.232  22.420  0.00  0.00    +0.012 A 
ATOM     11  C   UNL     1       6.306  -5.636  21.488  0.00  0.00    +0.004 A 
ATOM     12  C   UNL     1       7.304  -4.759  21.919  0.00  0.00    +0.046 A 
ENDBRANCH   1   2
BRANCH   1  13
ATOM     13  C   UNL     1       8.521  -2.290  23.170  0.00  0.00    +0.261 C 
BRANCH  13  14
ATOM     14  C   UNL     1       9.953  -1.789  22.900  0.00  0.00    +0.166 C 
BRANCH  14  15
ATOM     15  O   UNL     1      10.186  -1.641  21.494  0.00  0.00    -0.387 OA
ATOM     16  H   UNL     1       9.735  -2.373  21.040  0.00  0.00    +0.210 HD
ENDBRANCH  14  15
BRANCH  14  17
ATOM     17  C   UNL     1      10.306  -0.458  23.606  0.00  0.00    +0.116 C 
BRANCH  17  18
ATOM     18  N   UNL     1      10.284   0.715  22.712  0.00  0.00    -0.309 NA
ATOM     19  H   UNL     1      11.220   1.119  22.691  0.00  0.00    +0.123 HD
BRANCH  18  21
ATOM     20  C   UNL     1       8.549   1.423  24.361  0.00  0.00    +0.027 C 
ATOM     21  C   UNL     1       9.352   1.798  23.104  0.00  0.00    +0.011 C 
ATOM     22  C   UNL     1      10.221   3.027  23.444  0.00  0.00    +0.027 C 
ATOM     23  C   UNL     1       8.401   2.190  21.962  0.00  0.00    +0.027 C 
ENDBRANCH  18  21
ENDBRANCH  17  18
ENDBRANCH  14  17
ENDBRANCH  13  14
ENDBRANCH   1  13
TORSDOF 7
ENDMDL
MODEL 6
REMARK VINA RESULT:      -5.6      2.580      6.885
REMARK  Name = 
REMARK  10 active torsions:
REMARK  status: ('A' for Active; 'I' for Inactive)
REMARK    1  A    between atoms: C_1  and  C_2
REMARK    2  A    between atoms: C_2  and  C_3
REMARK    3  A    between atoms: C_2  and  C_4
REMARK    4  A    between atoms: C_2  and  N_5
REMARK    5  A    between atoms: N_5  and  C_6
REMARK    6  A    between atoms: C_6  and  C_7
REMARK    7  A    between atoms: C_7  and  O_9
REMARK    8  A    between atoms: C_7  and  C_10
REMARK    9  A    between atoms: C_10  and  O_11
REMARK   10  A    between atoms: O_11  and  C_12
REMARK                            x       y       z     vdW  Elec       q    Type
REMARK                         _______ _______ _______ _____ _____    ______ ____
ROOT
ATOM      1  O   UNL     1       8.425  -1.957  22.273  0.00  0.00    -0.489 OA
ENDROOT
BRANCH   1   2
ATOM      2  C   UNL     1       7.431  -2.761  22.796  0.00  0.00    +0.124 A 
ATOM      3  C   UNL     1       7.722  -3.505  23.965  0.00  0.00    +0.005 A 
ATOM      4  C   UNL     1       9.039  -3.351  24.695  0.00  0.00    +0.040 C 
ATOM      5  C   UNL     1       9.033  -3.970  26.097  0.00  0.00    +0.013 C 
ATOM      6  C   UNL     1       8.461  -5.376  26.075  0.00  0.00    +0.080 C 
ATOM      7  C   UNL     1       7.041  -5.327  25.580  0.00  0.00    +0.164 C 
ATOM      8  O   UNL     1       6.167  -6.059  26.042  0.00  0.00    -0.292 OA
ATOM      9  C   UNL     1       6.751  -4.417  24.439  0.00  0.00    +0.024 A 
ATOM     10  C   UNL     1       5.503  -4.535  23.822  0.00  0.00    +0.012 A 
ATOM     11  C   UNL     1       5.214  -3.781  22.696  0.00  0.00    +0.004 A 
ATOM     12  C   UNL     1       6.181  -2.917  22.179  0.00  0.00    +0.046 A 
ENDBRANCH   1   2
BRANCH   1  13
ATOM     13  C   UNL     1       8.306  -0.548  22.538  0.00  0.00    +0.261 C 
BRANCH  13  14
ATOM     14  C   UNL     1       9.390   0.300  21.847  0.00  0.00    +0.166 C 
BRANCH  14  15
ATOM     15  O   UNL     1       8.830   1.074  20.778  0.00  0.00    -0.387 OA
ATOM     16  H   UNL     1       9.567   1.452  20.269  0.00  0.00    +0.210 HD
ENDBRANCH  14  15
BRANCH  14  17
ATOM     17  C   UNL     1      10.159   1.249  22.797  0.00  0.00    +0.116 C 
BRANCH  17  18
ATOM     18  N   UNL     1       9.958   2.680  22.503  0.00  0.00    -0.309 NA
ATOM     19  H   UNL     1      10.871   3.133  22.473  0.00  0.00    +0.123 HD
BRANCH  18  21
ATOM     20  C   UNL     1       9.796   4.756  23.881  0.00  0.00    +0.027 C 
ATOM     21  C   UNL     1       9.136   3.424  23.486  0.00  0.00    +0.011 C 
ATOM     22  C   UNL     1       7.797   3.746  22.788  0.00  0.00    +0.027 C 
ATOM     23  C   UNL     1       8.829   2.589  24.740  0.00  0.00    +0.027 C 
ENDBRANCH  18  21
ENDBRANCH  17  18
ENDBRANCH  14  17
ENDBRANCH  13  14
ENDBRANCH   1  13
TORSDOF 7
ENDMDL
MODEL 7
REMARK VINA RESULT:      -5.6      2.286      6.771
REMARK  Name = 
REMARK  10 active torsions:
REMARK  status: ('A' for Active; 'I' for Inactive)
REMARK    1  A    between atoms: C_1  and  C_2
REMARK    2  A    between atoms: C_2  and  C_3
REMARK    3  A    between atoms: C_2  and  C_4
REMARK    4  A    between atoms: C_2  and  N_5
REMARK    5  A    between atoms: N_5  and  C_6
REMARK    6  A    between atoms: C_6  and  C_7
REMARK    7  A    between atoms: C_7  and  O_9
REMARK    8  A    between atoms: C_7  and  C_10
REMARK    9  A    between atoms: C_10  and  O_11
REMARK   10  A    between atoms: O_11  and  C_12
REMARK                            x       y       z     vdW  Elec       q    Type
REMARK                         _______ _______ _______ _____ _____    ______ ____
ROOT
ATOM      1  O   UNL     1       8.737  -4.164  23.899  0.00  0.00    -0.489 OA
ENDROOT
BRANCH   1   2
ATOM      2  C   UNL     1       7.562  -4.686  23.394  0.00  0.00    +0.124 A 
ATOM      3  C   UNL     1       6.632  -5.240  24.307  0.00  0.00    +0.005 A 
ATOM      4  C   UNL     1       6.853  -5.169  25.803  0.00  0.00    +0.040 C 
ATOM      5  C   UNL     1       5.600  -5.510  26.619  0.00  0.00    +0.013 C 
ATOM      6  C   UNL     1       4.947  -6.784  26.116  0.00  0.00    +0.080 C 
ATOM      7  C   UNL     1       4.533  -6.598  24.682  0.00  0.00    +0.164 C 
ATOM      8  O   UNL     1       3.492  -7.081  24.239  0.00  0.00    -0.292 OA
ATOM      9  C   UNL     1       5.482  -5.879  23.789  0.00  0.00    +0.024 A 
ATOM     10  C   UNL     1       5.221  -5.904  22.417  0.00  0.00    +0.012 A 
ATOM     11  C   UNL     1       6.120  -5.334  21.531  0.00  0.00    +0.004 A 
ATOM     12  C   UNL     1       7.290  -4.748  22.019  0.00  0.00    +0.046 A 
ENDBRANCH   1   2
BRANCH   1  13
ATOM     13  C   UNL     1       8.918  -2.745  23.745  0.00  0.00    +0.261 C 
BRANCH  13  14
ATOM     14  C   UNL     1       8.102  -1.910  24.750  0.00  0.00    +0.166 C 
BRANCH  14  15
ATOM     15  O   UNL     1       8.700  -1.951  26.052  0.00  0.00    -0.387 OA
ATOM     16  H   UNL     1       9.405  -1.282  26.075  0.00  0.00    +0.210 HD
ENDBRANCH  14  15
BRANCH  14  17
ATOM     17  C   UNL     1       7.906  -0.431  24.339  0.00  0.00    +0.116 C 
BRANCH  17  18
ATOM     18  N   UNL     1       8.780   0.003  23.234  0.00  0.00    -0.309 NA
ATOM     19  H   UNL     1       9.381  -0.779  22.975  0.00  0.00    +0.123 HD
BRANCH  18  21
ATOM     20  C   UNL     1      10.920   0.711  24.305  0.00  0.00    +0.027 C 
ATOM     21  C   UNL     1       9.664   1.153  23.534  0.00  0.00    +0.011 C 
ATOM     22  C   UNL     1      10.118   1.727  22.175  0.00  0.00    +0.027 C 
ATOM     23  C   UNL     1       8.933   2.267  24.300  0.00  0.00    +0.027 C 
ENDBRANCH  18  21
ENDBRANCH  17  18
ENDBRANCH  14  17
ENDBRANCH  13  14
ENDBRANCH   1  13
TORSDOF 7
ENDMDL
MODEL 8
REMARK VINA RESULT:      -5.6      1.770      2.984
REMARK  Name = 
REMARK  10 active torsions:
REMARK  status: ('A' for Active; 'I' for Inactive)
REMARK    1  A    between atoms: C_1  and  C_2
REMARK    2  A    between atoms: C_2  and  C_3
REMARK    3  A    between atoms: C_2  and  C_4
REMARK    4  A    between atoms: C_2  and  N_5
REMARK    5  A    between atoms: N_5  and  C_6
REMARK    6  A    between atoms: C_6  and  C_7
REMARK    7  A    between atoms: C_7  and  O_9
REMARK    8  A    between atoms: C_7  and  C_10
REMARK    9  A    between atoms: C_10  and  O_11
REMARK   10  A    between atoms: O_11  and  C_12
REMARK                            x       y       z     vdW  Elec       q    Type
REMARK                         _______ _______ _______ _____ _____    ______ ____
ROOT
ATOM      1  O   UNL     1       8.237  -2.048  24.094  0.00  0.00    -0.489 OA
ENDROOT
BRANCH   1   2
ATOM      2  C   UNL     1       8.428  -0.938  23.295  0.00  0.00    +0.124 A 
ATOM      3  C   UNL     1       7.554   0.163  23.464  0.00  0.00    +0.005 A 
ATOM      4  C   UNL     1       6.511   0.185  24.560  0.00  0.00    +0.040 C 
ATOM      5  C   UNL     1       5.905   1.574  24.796  0.00  0.00    +0.013 C 
ATOM      6  C   UNL     1       5.490   2.222  23.488  0.00  0.00    +0.080 C 
ATOM      7  C   UNL     1       6.699   2.383  22.607  0.00  0.00    +0.164 C 
ATOM      8  O   UNL     1       6.850   3.368  21.887  0.00  0.00    -0.292 OA
ATOM      9  C   UNL     1       7.669   1.255  22.572  0.00  0.00    +0.024 A 
ATOM     10  C   UNL     1       8.663   1.290  21.591  0.00  0.00    +0.012 A 
ATOM     11  C   UNL     1       9.534   0.222  21.450  0.00  0.00    +0.004 A 
ATOM     12  C   UNL     1       9.400  -0.890  22.285  0.00  0.00    +0.046 A 
ENDBRANCH   1   2
BRANCH   1  13
ATOM     13  C   UNL     1       9.402  -2.856  24.344  0.00  0.00    +0.261 C 
BRANCH  13  14
ATOM     14  C   UNL     1       9.076  -4.222  24.975  0.00  0.00    +0.166 C 
BRANCH  14  15
ATOM     15  O   UNL     1       8.659  -4.070  26.338  0.00  0.00    -0.387 OA
ATOM     16  H   UNL     1       9.182  -3.349  26.728  0.00  0.00    +0.210 HD
ENDBRANCH  14  15
BRANCH  14  17
ATOM     17  C   UNL     1       8.001  -5.036  24.215  0.00  0.00    +0.116 C 
BRANCH  17  18
ATOM     18  N   UNL     1       7.774  -4.579  22.831  0.00  0.00    -0.309 NA
ATOM     19  H   UNL     1       7.997  -3.586  22.781  0.00  0.00    +0.123 HD
BRANCH  18  21
ATOM     20  C   UNL     1       6.340  -5.702  21.124  0.00  0.00    +0.027 C 
ATOM     21  C   UNL     1       6.391  -4.742  22.325  0.00  0.00    +0.011 C 
ATOM     22  C   UNL     1       5.573  -5.372  23.472  0.00  0.00    +0.027 C 
ATOM     23  C   UNL     1       5.742  -3.397  21.961  0.00  0.00    +0.027 C 
ENDBRANCH  18  21
ENDBRANCH  17  18
ENDBRANCH  14  17
ENDBRANCH  13  14
ENDBRANCH   1  13
TORSDOF 7
ENDMDL
MODEL 9
REMARK VINA RESULT:      -5.6      2.240      6.266
REMARK  Name = 
REMARK  10 active torsions:
REMARK  status: ('A' for Active; 'I' for Inactive)
REMARK    1  A    between atoms: C_1  and  C_2
REMARK    2  A    between atoms: C_2  and  C_3
REMARK    3  A    between atoms: C_2  and  C_4
REMARK    4  A    between atoms: C_2  and  N_5
REMARK    5  A    between atoms: N_5  and  C_6
REMARK    6  A    between atoms: C_6  and  C_7
REMARK    7  A    between atoms: C_7  and  O_9
REMARK    8  A    between atoms: C_7  and  C_10
REMARK    9  A    between atoms: C_10  and  O_11
REMARK   10  A    between atoms: O_11  and  C_12
REMARK                            x       y       z     vdW  Elec       q    Type
REMARK                         _______ _______ _______ _____ _____    ______ ____
ROOT
ATOM      1  O   UNL     1       9.726  -2.740  24.025  0.00  0.00    -0.489 OA
ENDROOT
BRANCH   1   2
ATOM      2  C   UNL     1       8.448  -3.138  23.686  0.00  0.00    +0.124 A 
ATOM      3  C   UNL     1       7.700  -3.865  24.644  0.00  0.00    +0.005 A 
ATOM      4  C   UNL     1       8.228  -4.107  26.042  0.00  0.00    +0.040 C 
ATOM      5  C   UNL     1       7.155  -4.604  27.019  0.00  0.00    +0.013 C 
ATOM      6  C   UNL     1       6.350  -5.742  26.418  0.00  0.00    +0.080 C 
ATOM      7  C   UNL     1       5.659  -5.260  25.173  0.00  0.00    +0.164 C 
ATOM      8  O   UNL     1       4.527  -5.634  24.872  0.00  0.00    -0.292 OA
ATOM      9  C   UNL     1       6.438  -4.376  24.263  0.00  0.00    +0.024 A 
ATOM     10  C   UNL     1       5.899  -4.114  23.001  0.00  0.00    +0.012 A 
ATOM     11  C   UNL     1       6.624  -3.377  22.078  0.00  0.00    +0.004 A 
ATOM     12  C   UNL     1       7.896  -2.912  22.416  0.00  0.00    +0.046 A 
ENDBRANCH   1   2
BRANCH   1  13
ATOM     13  C   UNL     1      10.036  -1.352  23.805  0.00  0.00    +0.261 C 
BRANCH  13  14
ATOM     14  C   UNL     1       9.639  -0.440  24.982  0.00  0.00    +0.166 C 
BRANCH  14  15
ATOM     15  O   UNL     1      10.727   0.416  25.355  0.00  0.00    -0.387 OA
ATOM     16  H   UNL     1      10.749   0.460  26.326  0.00  0.00    +0.210 HD
ENDBRANCH  14  15
BRANCH  14  17
ATOM     17  C   UNL     1       8.388   0.432  24.719  0.00  0.00    +0.116 C 
BRANCH  17  18
ATOM     18  N   UNL     1       8.138   0.702  23.291  0.00  0.00    -0.309 NA
ATOM     19  H   UNL     1       8.589  -0.029  22.743  0.00  0.00    +0.123 HD
BRANCH  18  21
ATOM     20  C   UNL     1       9.957   1.824  22.000  0.00  0.00    +0.027 C 
ATOM     21  C   UNL     1       8.648   2.000  22.790  0.00  0.00    +0.011 C 
ATOM     22  C   UNL     1       7.579   2.549  21.821  0.00  0.00    +0.027 C 
ATOM     23  C   UNL     1       8.840   3.027  23.917  0.00  0.00    +0.027 C 
ENDBRANCH  18  21
ENDBRANCH  17  18
ENDBRANCH  14  17
ENDBRANCH  13  14
ENDBRANCH   1  13
TORSDOF 7
ENDMDL
