MODEL 1
REMARK VINA RESULT:      -4.3      0.000      0.000
REMARK  Name = 
REMARK  1 active torsions:
REMARK  status: ('A' for Active; 'I' for Inactive)
REMARK    1  A    between atoms: O_1  and  C_2
REMARK                            x       y       z     vdW  Elec       q    Type
REMARK                         _______ _______ _______ _____ _____    ______ ____
ROOT
ATOM      1  C   UNL     1       9.814  -0.002  22.075  0.00  0.00    +0.131 A 
ATOM      2  C   UNL     1      10.015  -0.518  23.358  0.00  0.00    +0.059 A 
ATOM      3 BR   UNL     1       9.863  -2.374  23.716  0.00  0.00    -0.047 Br
ATOM      4  C   UNL     1      10.336   0.340  24.411  0.00  0.00    +0.019 A 
ATOM      5  C   UNL     1      10.456   1.712  24.182  0.00  0.00    +0.001 A 
ATOM      6  C   UNL     1      10.254   2.226  22.901  0.00  0.00    +0.004 A 
ATOM      7  C   UNL     1       9.932   1.370  21.845  0.00  0.00    +0.046 A 
ENDROOT
BRANCH   1   8
ATOM      8  O   UNL     1       9.501  -0.838  21.040  0.00  0.00    -0.506 OA
ATOM      9  H   UNL     1      10.081  -0.646  20.287  0.00  0.00    +0.292 HD
ENDBRANCH   1   8
TORSDOF 1
ENDMDL
MODEL 2
REMARK VINA RESULT:      -4.0      2.638      3.590
REMARK  Name = 
REMARK  1 active torsions:
REMARK  status: ('A' for Active; 'I' for Inactive)
REMARK    1  A    between atoms: O_1  and  C_2
REMARK                            x       y       z     vdW  Elec       q    Type
REMARK                         _______ _______ _______ _____ _____    ______ ____
ROOT
ATOM      1  C   UNL     1      10.262   0.178  24.061  0.00  0.00    +0.131 A 
ATOM      2  C   UNL     1      10.144   1.167  23.082  0.00  0.00    +0.059 A 
ATOM      3 BR   UNL     1      10.478   2.993  23.468  0.00  0.00    -0.047 Br
ATOM      4  C   UNL     1       9.770   0.819  21.782  0.00  0.00    +0.019 A 
ATOM      5  C   UNL     1       9.515  -0.517  21.463  0.00  0.00    +0.001 A 
ATOM      6  C   UNL     1       9.634  -1.502  22.443  0.00  0.00    +0.004 A 
ATOM      7  C   UNL     1      10.007  -1.157  23.744  0.00  0.00    +0.046 A 
ENDROOT
BRANCH   1   8
ATOM      8  O   UNL     1      10.629   0.514  25.335  0.00  0.00    -0.506 OA
ATOM      9  H   UNL     1       9.928   0.247  25.950  0.00  0.00    +0.292 HD
ENDBRANCH   1   8
TORSDOF 1
ENDMDL
MODEL 3
REMARK VINA RESULT:      -4.0      1.736      2.428
REMARK  Name = 
REMARK  1 active torsions:
REMARK  status: ('A' for Active; 'I' for Inactive)
REMARK    1  A    between atoms: O_1  and  C_2
REMARK                            x       y       z     vdW  Elec       q    Type
REMARK                         _______ _______ _______ _____ _____    ______ ____
ROOT
ATOM      1  C   UNL     1       9.985   0.547  24.474  0.00  0.00    +0.131 A 
ATOM      2  C   UNL     1       9.878  -0.383  23.437  0.00  0.00    +0.059 A 
ATOM      3 BR   UNL     1       9.768  -2.244  23.781  0.00  0.00    -0.047 Br
ATOM      4  C   UNL     1       9.851   0.052  22.111  0.00  0.00    +0.019 A 
ATOM      5  C   UNL     1       9.931   1.416  21.822  0.00  0.00    +0.001 A 
ATOM      6  C   UNL     1      10.038   2.343  22.859  0.00  0.00    +0.004 A 
ATOM      7  C   UNL     1      10.066   1.911  24.187  0.00  0.00    +0.046 A 
ENDROOT
BRANCH   1   8
ATOM      8  O   UNL     1      10.010   0.126  25.774  0.00  0.00    -0.506 OA
ATOM      9  H   UNL     1      10.801  -0.417  25.919  0.00  0.00    +0.292 HD
ENDBRANCH   1   8
TORSDOF 1
ENDMDL
MODEL 4
REMARK VINA RESULT:      -3.9      2.260      2.875
REMARK  Name = 
REMARK  1 active torsions:
REMARK  status: ('A' for Active; 'I' for Inactive)
REMARK    1  A    between atoms: O_1  and  C_2
REMARK                            x       y       z     vdW  Elec       q    Type
REMARK                         _______ _______ _______ _____ _____    ______ ____
ROOT
ATOM      1  C   UNL     1       9.464   0.917  21.989  0.00  0.00    +0.131 A 
ATOM      2  C   UNL     1       9.667   1.061  23.363  0.00  0.00    +0.059 A 
ATOM      3 BR   UNL     1       9.556   2.753  24.212  0.00  0.00    -0.047 Br
ATOM      4  C   UNL     1       9.960  -0.058  24.145  0.00  0.00    +0.019 A 
ATOM      5  C   UNL     1      10.050  -1.319  23.552  0.00  0.00    +0.001 A 
ATOM      6  C   UNL     1       9.848  -1.460  22.179  0.00  0.00    +0.004 A 
ATOM      7  C   UNL     1       9.555  -0.343  21.395  0.00  0.00    +0.046 A 
ENDROOT
BRANCH   1   8
ATOM      8  O   UNL     1       9.176   2.010  21.219  0.00  0.00    -0.506 OA
ATOM      9  H   UNL     1       8.420   1.807  20.646  0.00  0.00    +0.292 HD
ENDBRANCH   1   8
TORSDOF 1
ENDMDL
MODEL 5
REMARK VINA RESULT:      -3.7      2.096      3.052
REMARK  Name = 
REMARK  1 active torsions:
REMARK  status: ('A' for Active; 'I' for Inactive)
REMARK    1  A    between atoms: O_1  and  C_2
REMARK                            x       y       z     vdW  Elec       q    Type
REMARK                         _______ _______ _______ _____ _____    ______ ____
ROOT
ATOM      1  C   UNL     1       9.845  -1.308  22.752  0.00  0.00    +0.131 A 
ATOM      2  C   UNL     1       9.640  -0.002  23.204  0.00  0.00    +0.059 A 
ATOM      3 BR   UNL     1       9.906   1.494  22.071  0.00  0.00    -0.047 Br
ATOM      4  C   UNL     1       9.229   0.223  24.520  0.00  0.00    +0.019 A 
ATOM      5  C   UNL     1       9.025  -0.857  25.381  0.00  0.00    +0.001 A 
ATOM      6  C   UNL     1       9.231  -2.160  24.928  0.00  0.00    +0.004 A 
ATOM      7  C   UNL     1       9.642  -2.388  23.613  0.00  0.00    +0.046 A 
ENDROOT
BRANCH   1   8
ATOM      8  O   UNL     1      10.246  -1.534  21.465  0.00  0.00    -0.506 OA
ATOM      9  H   UNL     1       9.578  -2.070  21.011  0.00  0.00    +0.292 HD
ENDBRANCH   1   8
TORSDOF 1
ENDMDL
MODEL 6
REMARK VINA RESULT:      -3.7      6.059      6.905
REMARK  Name = 
REMARK  1 active torsions:
REMARK  status: ('A' for Active; 'I' for Inactive)
REMARK    1  A    between atoms: O_1  and  C_2
REMARK                            x       y       z     vdW  Elec       q    Type
REMARK                         _______ _______ _______ _____ _____    ______ ____
ROOT
ATOM      1  C   UNL     1       7.898  -5.327  26.493  0.00  0.00    +0.131 A 
ATOM      2  C   UNL     1       6.867  -5.340  25.551  0.00  0.00    +0.059 A 
ATOM      3 BR   UNL     1       5.197  -6.158  25.919  0.00  0.00    -0.047 Br
ATOM      4  C   UNL     1       7.056  -4.741  24.304  0.00  0.00    +0.019 A 
ATOM      5  C   UNL     1       8.274  -4.131  24.000  0.00  0.00    +0.001 A 
ATOM      6  C   UNL     1       9.303  -4.119  24.942  0.00  0.00    +0.004 A 
ATOM      7  C   UNL     1       9.117  -4.718  26.190  0.00  0.00    +0.046 A 
ENDROOT
BRANCH   1   8
ATOM      8  O   UNL     1       7.719  -5.911  27.717  0.00  0.00    -0.506 OA
ATOM      9  H   UNL     1       7.136  -5.352  28.255  0.00  0.00    +0.292 HD
ENDBRANCH   1   8
TORSDOF 1
ENDMDL
MODEL 7
REMARK VINA RESULT:      -3.6      2.102      2.411
REMARK  Name = 
REMARK  1 active torsions:
REMARK  status: ('A' for Active; 'I' for Inactive)
REMARK    1  A    between atoms: O_1  and  C_2
REMARK                            x       y       z     vdW  Elec       q    Type
REMARK                         _______ _______ _______ _____ _____    ______ ____
ROOT
ATOM      1  C   UNL     1       9.667   2.092  22.714  0.00  0.00    +0.131 A 
ATOM      2  C   UNL     1       9.249   0.791  23.005  0.00  0.00    +0.059 A 
ATOM      3 BR   UNL     1       9.572  -0.646  21.812  0.00  0.00    -0.047 Br
ATOM      4  C   UNL     1       8.576   0.527  24.200  0.00  0.00    +0.019 A 
ATOM      5  C   UNL     1       8.321   1.563  25.101  0.00  0.00    +0.001 A 
ATOM      6  C   UNL     1       8.739   2.861  24.808  0.00  0.00    +0.004 A 
ATOM      7  C   UNL     1       9.412   3.128  23.614  0.00  0.00    +0.046 A 
ENDROOT
BRANCH   1   8
ATOM      8  O   UNL     1      10.327   2.355  21.546  0.00  0.00    -0.506 OA
ATOM      9  H   UNL     1      10.802   1.559  21.261  0.00  0.00    +0.292 HD
ENDBRANCH   1   8
TORSDOF 1
ENDMDL
MODEL 8
REMARK VINA RESULT:      -3.5      2.050      2.413
REMARK  Name = 
REMARK  1 active torsions:
REMARK  status: ('A' for Active; 'I' for Inactive)
REMARK    1  A    between atoms: O_1  and  C_2
REMARK                            x       y       z     vdW  Elec       q    Type
REMARK                         _______ _______ _______ _____ _____    ______ ____
ROOT
ATOM      1  C   UNL     1       7.447   0.147  22.732  0.00  0.00    +0.131 A 
ATOM      2  C   UNL     1       8.669  -0.528  22.690  0.00  0.00    +0.059 A 
ATOM      3 BR   UNL     1       8.825  -2.335  23.243  0.00  0.00    -0.047 Br
ATOM      4  C   UNL     1       9.813   0.129  22.232  0.00  0.00    +0.019 A 
ATOM      5  C   UNL     1       9.734   1.461  21.818  0.00  0.00    +0.001 A 
ATOM      6  C   UNL     1       8.513   2.133  21.862  0.00  0.00    +0.004 A 
ATOM      7  C   UNL     1       7.368   1.479  22.320  0.00  0.00    +0.046 A 
ENDROOT
BRANCH   1   8
ATOM      8  O   UNL     1       6.324  -0.492  23.179  0.00  0.00    -0.506 OA
ATOM      9  H   UNL     1       5.822   0.107  23.752  0.00  0.00    +0.292 HD
ENDBRANCH   1   8
TORSDOF 1
ENDMDL
MODEL 9
REMARK VINA RESULT:      -3.4      6.449      7.324
REMARK  Name = 
REMARK  1 active torsions:
REMARK  status: ('A' for Active; 'I' for Inactive)
REMARK    1  A    between atoms: O_1  and  C_2
REMARK                            x       y       z     vdW  Elec       q    Type
REMARK                         _______ _______ _______ _____ _____    ______ ____
ROOT
ATOM      1  C   UNL     1       5.543  -6.289  23.398  0.00  0.00    +0.131 A 
ATOM      2  C   UNL     1       6.047  -5.513  24.445  0.00  0.00    +0.059 A 
ATOM      3 BR   UNL     1       5.470  -5.763  26.233  0.00  0.00    -0.047 Br
ATOM      4  C   UNL     1       6.999  -4.526  24.184  0.00  0.00    +0.019 A 
ATOM      5  C   UNL     1       7.445  -4.315  22.877  0.00  0.00    +0.001 A 
ATOM      6  C   UNL     1       6.940  -5.090  21.834  0.00  0.00    +0.004 A 
ATOM      7  C   UNL     1       5.988  -6.079  22.092  0.00  0.00    +0.046 A 
ENDROOT
BRANCH   1   8
ATOM      8  O   UNL     1       4.612  -7.259  23.649  0.00  0.00    -0.506 OA
ATOM      9  H   UNL     1       3.770  -6.840  23.886  0.00  0.00    +0.292 HD
ENDBRANCH   1   8
TORSDOF 1
ENDMDL
