MODEL 1
REMARK VINA RESULT:      -6.7      0.000      0.000
REMARK  Name = 
REMARK  13 active torsions:
REMARK  status: ('A' for Active; 'I' for Inactive)
REMARK    1  A    between atoms: C_2  and  C_3
REMARK    2  A    between atoms: C_2  and  N_12
REMARK    3  A    between atoms: C_2  and  C_18
REMARK    4  A    between atoms: C_3  and  O_4
REMARK    5  A    between atoms: O_4  and  C_5
REMARK    6  A    between atoms: C_5  and  C_7
REMARK    7  A    between atoms: C_7  and  C_8
REMARK    8  A    between atoms: C_8  and  C_9
REMARK    9  A    between atoms: C_9  and  O_10
REMARK   10  A    between atoms: C_13  and  C_15
REMARK   11  A    between atoms: C_18  and  O_20
REMARK   12  A    between atoms: C_18  and  C_21
REMARK   13  A    between atoms: C_24  and  N_27
REMARK                            x       y       z     vdW  Elec       q    Type
REMARK                         _______ _______ _______ _____ _____    ______ ____
ROOT
ATOM      1  C   UNL     1       8.235  -2.234  23.204  0.00  0.00    +0.143 C 
ENDROOT
BRANCH   1   2
ATOM      2  N   UNL     1       8.657  -3.217  24.213  0.00  0.00    -0.304 N 
ATOM      3  H   UNL     1       9.475  -3.780  23.998  0.00  0.00    +0.149 HD
ATOM      4  C   UNL     1       8.058  -3.333  25.454  0.00  0.00    +0.246 C 
ATOM      5  O   UNL     1       7.148  -2.587  25.814  0.00  0.00    -0.273 OA
BRANCH   4   6
ATOM      6  C   UNL     1       8.593  -4.440  26.366  0.00  0.00    +0.256 C 
ATOM      7 CL   UNL     1       9.439  -5.664  25.394  0.00  0.00    -0.094 Cl
ATOM      8 CL   UNL     1       7.243  -5.182  27.249  0.00  0.00    -0.094 Cl
ENDBRANCH   4   6
ENDBRANCH   1   2
BRANCH   1   9
ATOM      9  C   UNL     1       9.447  -1.586  22.481  0.00  0.00    +0.168 C 
BRANCH   9  10
ATOM     10  C   UNL     1       9.724  -0.125  22.802  0.00  0.00    -0.017 A 
ATOM     11  C   UNL     1      10.376   0.248  23.988  0.00  0.00    +0.013 A 
ATOM     12  C   UNL     1      10.735   1.577  24.227  0.00  0.00    +0.084 A 
ATOM     13  C   UNL     1      10.458   2.547  23.260  0.00  0.00    +0.273 A 
ATOM     14  C   UNL     1       9.777   2.204  22.087  0.00  0.00    +0.084 A 
ATOM     15  C   UNL     1       9.406   0.873  21.867  0.00  0.00    +0.013 A 
BRANCH  13  16
ATOM     16  N   UNL     1      10.934   3.922  23.454  0.00  0.00    +0.080 N 
ATOM     17  O   UNL     1      10.094   4.791  23.728  0.00  0.00    +0.041 OA
ATOM     18  O   UNL     1      12.152   4.130  23.354  0.00  0.00    -0.576 OA
ENDBRANCH  13  16
ENDBRANCH   9  10
BRANCH   9  19
ATOM     19  O   UNL     1      10.634  -2.352  22.751  0.00  0.00    -0.385 OA
ATOM     20  H   UNL     1      11.060  -2.523  21.892  0.00  0.00    +0.210 HD
ENDBRANCH   9  19
ENDBRANCH   1   9
BRANCH   1  21
ATOM     21  C   UNL     1       7.315  -2.935  22.174  0.00  0.00    +0.257 C 
BRANCH  21  22
ATOM     22  O   UNL     1       7.524  -4.362  22.128  0.00  0.00    -0.463 OA
BRANCH  22  23
ATOM     23  C   UNL     1       6.470  -5.094  21.689  0.00  0.00    +0.308 C 
ATOM     24  O   UNL     1       5.894  -4.944  20.624  0.00  0.00    -0.251 OA
BRANCH  23  25
ATOM     25  C   UNL     1       6.114  -6.171  22.678  0.00  0.00    +0.132 C 
BRANCH  25  26
ATOM     26  C   UNL     1       5.054  -5.714  23.659  0.00  0.00    +0.131 C 
BRANCH  26  27
ATOM     27  C   UNL     1       4.509  -6.826  24.518  0.00  0.00    +0.305 C 
ATOM     28  O   UNL     1       4.806  -6.966  25.696  0.00  0.00    -0.251 OA
BRANCH  27  29
ATOM     29  O   UNL     1       3.711  -7.692  23.864  0.00  0.00    -0.481 OA
ATOM     30  H   UNL     1       3.837  -7.741  22.899  0.00  0.00    +0.295 HD
ENDBRANCH  27  29
ENDBRANCH  26  27
ENDBRANCH  25  26
ENDBRANCH  23  25
ENDBRANCH  22  23
ENDBRANCH  21  22
ENDBRANCH   1  21
TORSDOF 13
ENDMDL
MODEL 2
REMARK VINA RESULT:      -6.7      2.957      7.228
REMARK  Name = 
REMARK  13 active torsions:
REMARK  status: ('A' for Active; 'I' for Inactive)
REMARK    1  A    between atoms: C_2  and  C_3
REMARK    2  A    between atoms: C_2  and  N_12
REMARK    3  A    between atoms: C_2  and  C_18
REMARK    4  A    between atoms: C_3  and  O_4
REMARK    5  A    between atoms: O_4  and  C_5
REMARK    6  A    between atoms: C_5  and  C_7
REMARK    7  A    between atoms: C_7  and  C_8
REMARK    8  A    between atoms: C_8  and  C_9
REMARK    9  A    between atoms: C_9  and  O_10
REMARK   10  A    between atoms: C_13  and  C_15
REMARK   11  A    between atoms: C_18  and  O_20
REMARK   12  A    between atoms: C_18  and  C_21
REMARK   13  A    between atoms: C_24  and  N_27
REMARK                            x       y       z     vdW  Elec       q    Type
REMARK                         _______ _______ _______ _____ _____    ______ ____
ROOT
ATOM      1  C   UNL     1       8.284  -2.153  23.003  0.00  0.00    +0.143 C 
ENDROOT
BRANCH   1   2
ATOM      2  N   UNL     1       7.687  -3.378  22.449  0.00  0.00    -0.304 N 
ATOM      3  H   UNL     1       8.322  -4.128  22.192  0.00  0.00    +0.149 HD
ATOM      4  C   UNL     1       6.322  -3.579  22.357  0.00  0.00    +0.246 C 
ATOM      5  O   UNL     1       5.509  -2.755  22.773  0.00  0.00    -0.273 OA
BRANCH   4   6
ATOM      6  C   UNL     1       5.871  -4.892  21.712  0.00  0.00    +0.256 C 
ATOM      7 CL   UNL     1       4.595  -5.640  22.697  0.00  0.00    -0.094 Cl
ATOM      8 CL   UNL     1       7.261  -5.989  21.570  0.00  0.00    -0.094 Cl
ENDBRANCH   4   6
ENDBRANCH   1   2
BRANCH   1   9
ATOM      9  C   UNL     1       9.141  -2.445  24.266  0.00  0.00    +0.168 C 
BRANCH   9  10
ATOM     10  C   UNL     1       8.471  -3.255  25.365  0.00  0.00    -0.017 A 
ATOM     11  C   UNL     1       7.268  -2.830  25.952  0.00  0.00    +0.013 A 
ATOM     12  C   UNL     1       6.593  -3.633  26.876  0.00  0.00    +0.084 A 
ATOM     13  C   UNL     1       7.114  -4.887  27.205  0.00  0.00    +0.273 A 
ATOM     14  C   UNL     1       8.330  -5.315  26.660  0.00  0.00    +0.084 A 
ATOM     15  C   UNL     1       9.007  -4.495  25.750  0.00  0.00    +0.013 A 
BRANCH  13  16
ATOM     16  N   UNL     1       6.353  -5.781  28.086  0.00  0.00    +0.080 N 
ATOM     17  O   UNL     1       6.364  -5.542  29.301  0.00  0.00    +0.041 OA
ATOM     18  O   UNL     1       5.723  -6.710  27.558  0.00  0.00    -0.576 OA
ENDBRANCH  13  16
ENDBRANCH   9  10
BRANCH   9  19
ATOM     19  O   UNL     1      10.357  -3.107  23.879  0.00  0.00    -0.385 OA
ATOM     20  H   UNL     1      10.633  -3.654  24.636  0.00  0.00    +0.210 HD
ENDBRANCH   9  19
ENDBRANCH   1   9
BRANCH   1  21
ATOM     21  C   UNL     1       9.156  -1.482  21.914  0.00  0.00    +0.257 C 
BRANCH  21  22
ATOM     22  O   UNL     1      10.265  -0.745  22.469  0.00  0.00    -0.463 OA
BRANCH  22  23
ATOM     23  C   UNL     1      10.107   0.601  22.522  0.00  0.00    +0.308 C 
ATOM     24  O   UNL     1       9.662   1.300  21.625  0.00  0.00    -0.251 OA
BRANCH  23  25
ATOM     25  C   UNL     1      10.512   1.138  23.867  0.00  0.00    +0.132 C 
BRANCH  25  26
ATOM     26  C   UNL     1       9.391   1.911  24.532  0.00  0.00    +0.131 C 
BRANCH  26  27
ATOM     27  C   UNL     1       8.304   1.030  25.093  0.00  0.00    +0.305 C 
ATOM     28  O   UNL     1       7.231   0.855  24.532  0.00  0.00    -0.251 OA
BRANCH  27  29
ATOM     29  O   UNL     1       8.587   0.496  26.296  0.00  0.00    -0.481 OA
ATOM     30  H   UNL     1       9.354   0.877  26.761  0.00  0.00    +0.295 HD
ENDBRANCH  27  29
ENDBRANCH  26  27
ENDBRANCH  25  26
ENDBRANCH  23  25
ENDBRANCH  22  23
ENDBRANCH  21  22
ENDBRANCH   1  21
TORSDOF 13
ENDMDL
MODEL 3
REMARK VINA RESULT:      -6.7      2.134      2.944
REMARK  Name = 
REMARK  13 active torsions:
REMARK  status: ('A' for Active; 'I' for Inactive)
REMARK    1  A    between atoms: C_2  and  C_3
REMARK    2  A    between atoms: C_2  and  N_12
REMARK    3  A    between atoms: C_2  and  C_18
REMARK    4  A    between atoms: C_3  and  O_4
REMARK    5  A    between atoms: O_4  and  C_5
REMARK    6  A    between atoms: C_5  and  C_7
REMARK    7  A    between atoms: C_7  and  C_8
REMARK    8  A    between atoms: C_8  and  C_9
REMARK    9  A    between atoms: C_9  and  O_10
REMARK   10  A    between atoms: C_13  and  C_15
REMARK   11  A    between atoms: C_18  and  O_20
REMARK   12  A    between atoms: C_18  and  C_21
REMARK   13  A    between atoms: C_24  and  N_27
REMARK                            x       y       z     vdW  Elec       q    Type
REMARK                         _______ _______ _______ _____ _____    ______ ____
ROOT
ATOM      1  C   UNL     1       7.808  -2.107  22.653  0.00  0.00    +0.143 C 
ENDROOT
BRANCH   1   2
ATOM      2  N   UNL     1       7.128  -1.760  23.909  0.00  0.00    -0.304 N 
ATOM      3  H   UNL     1       7.201  -2.423  24.675  0.00  0.00    +0.149 HD
ATOM      4  C   UNL     1       6.490  -0.550  24.115  0.00  0.00    +0.246 C 
ATOM      5  O   UNL     1       6.485   0.340  23.265  0.00  0.00    -0.273 OA
BRANCH   4   6
ATOM      6  C   UNL     1       5.793  -0.371  25.466  0.00  0.00    +0.256 C 
ATOM      7 CL   UNL     1       7.007  -0.135  26.743  0.00  0.00    -0.094 Cl
ATOM      8 CL   UNL     1       4.804  -1.804  25.816  0.00  0.00    -0.094 Cl
ENDBRANCH   4   6
ENDBRANCH   1   2
BRANCH   1   9
ATOM      9  C   UNL     1       9.347  -1.916  22.753  0.00  0.00    +0.168 C 
BRANCH   9  10
ATOM     10  C   UNL     1       9.843  -0.485  22.889  0.00  0.00    -0.017 A 
ATOM     11  C   UNL     1       9.689   0.441  21.846  0.00  0.00    +0.013 A 
ATOM     12  C   UNL     1      10.037   1.784  22.015  0.00  0.00    +0.084 A 
ATOM     13  C   UNL     1      10.527   2.215  23.250  0.00  0.00    +0.273 A 
ATOM     14  C   UNL     1      10.723   1.302  24.293  0.00  0.00    +0.084 A 
ATOM     15  C   UNL     1      10.389  -0.044  24.106  0.00  0.00    +0.013 A 
BRANCH  13  16
ATOM     16  N   UNL     1      10.786   3.643  23.471  0.00  0.00    +0.080 N 
ATOM     17  O   UNL     1      11.937   4.058  23.275  0.00  0.00    +0.041 OA
ATOM     18  O   UNL     1       9.832   4.355  23.818  0.00  0.00    -0.576 OA
ENDBRANCH  13  16
ENDBRANCH   9  10
BRANCH   9  19
ATOM     19  O   UNL     1       9.856  -2.690  23.853  0.00  0.00    -0.385 OA
ATOM     20  H   UNL     1       9.473  -3.582  23.770  0.00  0.00    +0.210 HD
ENDBRANCH   9  19
ENDBRANCH   1   9
BRANCH   1  21
ATOM     21  C   UNL     1       7.478  -3.577  22.292  0.00  0.00    +0.257 C 
BRANCH  21  22
ATOM     22  O   UNL     1       6.076  -3.778  22.021  0.00  0.00    -0.463 OA
BRANCH  22  23
ATOM     23  C   UNL     1       5.460  -4.714  22.785  0.00  0.00    +0.308 C 
ATOM     24  O   UNL     1       4.272  -4.990  22.750  0.00  0.00    -0.251 OA
BRANCH  23  25
ATOM     25  C   UNL     1       6.449  -5.422  23.669  0.00  0.00    +0.132 C 
BRANCH  25  26
ATOM     26  C   UNL     1       6.211  -5.130  25.137  0.00  0.00    +0.131 C 
BRANCH  26  27
ATOM     27  C   UNL     1       7.471  -4.809  25.899  0.00  0.00    +0.305 C 
ATOM     28  O   UNL     1       7.924  -3.677  25.993  0.00  0.00    -0.251 OA
BRANCH  27  29
ATOM     29  O   UNL     1       8.093  -5.884  26.420  0.00  0.00    -0.481 OA
ATOM     30  H   UNL     1       7.804  -6.750  26.080  0.00  0.00    +0.295 HD
ENDBRANCH  27  29
ENDBRANCH  26  27
ENDBRANCH  25  26
ENDBRANCH  23  25
ENDBRANCH  22  23
ENDBRANCH  21  22
ENDBRANCH   1  21
TORSDOF 13
ENDMDL
MODEL 4
REMARK VINA RESULT:      -6.6      3.292      6.448
REMARK  Name = 
REMARK  13 active torsions:
REMARK  status: ('A' for Active; 'I' for Inactive)
REMARK    1  A    between atoms: C_2  and  C_3
REMARK    2  A    between atoms: C_2  and  N_12
REMARK    3  A    between atoms: C_2  and  C_18
REMARK    4  A    between atoms: C_3  and  O_4
REMARK    5  A    between atoms: O_4  and  C_5
REMARK    6  A    between atoms: C_5  and  C_7
REMARK    7  A    between atoms: C_7  and  C_8
REMARK    8  A    between atoms: C_8  and  C_9
REMARK    9  A    between atoms: C_9  and  O_10
REMARK   10  A    between atoms: C_13  and  C_15
REMARK   11  A    between atoms: C_18  and  O_20
REMARK   12  A    between atoms: C_18  and  C_21
REMARK   13  A    between atoms: C_24  and  N_27
REMARK                            x       y       z     vdW  Elec       q    Type
REMARK                         _______ _______ _______ _____ _____    ______ ____
ROOT
ATOM      1  C   UNL     1       8.174  -1.145  23.781  0.00  0.00    +0.143 C 
ENDROOT
BRANCH   1   2
ATOM      2  N   UNL     1       8.513   0.152  23.178  0.00  0.00    -0.304 N 
ATOM      3  H   UNL     1       7.745   0.787  22.980  0.00  0.00    +0.149 HD
ATOM      4  C   UNL     1       9.814   0.571  22.963  0.00  0.00    +0.246 C 
ATOM      5  O   UNL     1      10.784  -0.106  23.303  0.00  0.00    -0.273 OA
BRANCH   4   6
ATOM      6  C   UNL     1       9.986   1.931  22.282  0.00  0.00    +0.256 C 
ATOM      7 CL   UNL     1      10.861   3.038  23.363  0.00  0.00    -0.094 Cl
ATOM      8 CL   UNL     1       8.390   2.597  21.879  0.00  0.00    -0.094 Cl
ENDBRANCH   4   6
ENDBRANCH   1   2
BRANCH   1   9
ATOM      9  C   UNL     1       8.017  -1.045  25.324  0.00  0.00    +0.168 C 
BRANCH   9  10
ATOM     10  C   UNL     1       7.638  -2.327  26.049  0.00  0.00    -0.017 A 
ATOM     11  C   UNL     1       6.390  -2.466  26.678  0.00  0.00    +0.013 A 
ATOM     12  C   UNL     1       5.996  -3.683  27.240  0.00  0.00    +0.084 A 
ATOM     13  C   UNL     1       6.851  -4.785  27.157  0.00  0.00    +0.273 A 
ATOM     14  C   UNL     1       8.114  -4.660  26.567  0.00  0.00    +0.084 A 
ATOM     15  C   UNL     1       8.505  -3.432  26.023  0.00  0.00    +0.013 A 
BRANCH  13  16
ATOM     16  N   UNL     1       6.398  -6.094  27.643  0.00  0.00    +0.080 N 
ATOM     17  O   UNL     1       6.774  -6.455  28.768  0.00  0.00    +0.041 OA
ATOM     18  O   UNL     1       5.645  -6.752  26.910  0.00  0.00    -0.576 OA
ENDBRANCH  13  16
ENDBRANCH   9  10
BRANCH   9  19
ATOM     19  O   UNL     1       9.231  -0.530  25.897  0.00  0.00    -0.385 OA
ATOM     20  H   UNL     1       9.830  -1.290  26.016  0.00  0.00    +0.210 HD
ENDBRANCH   9  19
ENDBRANCH   1   9
BRANCH   1  21
ATOM     21  C   UNL     1       6.862  -1.667  23.147  0.00  0.00    +0.257 C 
BRANCH  21  22
ATOM     22  O   UNL     1       7.095  -2.685  22.152  0.00  0.00    -0.463 OA
BRANCH  22  23
ATOM     23  C   UNL     1       6.109  -3.606  22.014  0.00  0.00    +0.308 C 
ATOM     24  O   UNL     1       5.740  -4.101  20.962  0.00  0.00    -0.251 OA
BRANCH  23  25
ATOM     25  C   UNL     1       5.540  -3.990  23.353  0.00  0.00    +0.132 C 
BRANCH  25  26
ATOM     26  C   UNL     1       5.722  -5.465  23.647  0.00  0.00    +0.131 C 
BRANCH  26  27
ATOM     27  C   UNL     1       4.465  -6.275  23.458  0.00  0.00    +0.305 C 
ATOM     28  O   UNL     1       3.523  -5.895  22.778  0.00  0.00    -0.251 OA
BRANCH  27  29
ATOM     29  O   UNL     1       4.441  -7.431  24.147  0.00  0.00    -0.481 OA
ATOM     30  H   UNL     1       5.054  -7.489  24.903  0.00  0.00    +0.295 HD
ENDBRANCH  27  29
ENDBRANCH  26  27
ENDBRANCH  25  26
ENDBRANCH  23  25
ENDBRANCH  22  23
ENDBRANCH  21  22
ENDBRANCH   1  21
TORSDOF 13
ENDMDL
MODEL 5
REMARK VINA RESULT:      -6.6      2.444      3.365
REMARK  Name = 
REMARK  13 active torsions:
REMARK  status: ('A' for Active; 'I' for Inactive)
REMARK    1  A    between atoms: C_2  and  C_3
REMARK    2  A    between atoms: C_2  and  N_12
REMARK    3  A    between atoms: C_2  and  C_18
REMARK    4  A    between atoms: C_3  and  O_4
REMARK    5  A    between atoms: O_4  and  C_5
REMARK    6  A    between atoms: C_5  and  C_7
REMARK    7  A    between atoms: C_7  and  C_8
REMARK    8  A    between atoms: C_8  and  C_9
REMARK    9  A    between atoms: C_9  and  O_10
REMARK   10  A    between atoms: C_13  and  C_15
REMARK   11  A    between atoms: C_18  and  O_20
REMARK   12  A    between atoms: C_18  and  C_21
REMARK   13  A    between atoms: C_24  and  N_27
REMARK                            x       y       z     vdW  Elec       q    Type
REMARK                         _______ _______ _______ _____ _____    ______ ____
ROOT
ATOM      1  C   UNL     1       8.033  -2.258  22.895  0.00  0.00    +0.143 C 
ENDROOT
BRANCH   1   2
ATOM      2  N   UNL     1       7.496  -1.582  24.085  0.00  0.00    -0.304 N 
ATOM      3  H   UNL     1       7.762  -1.957  24.991  0.00  0.00    +0.149 HD
ATOM      4  C   UNL     1       6.740  -0.426  24.022  0.00  0.00    +0.246 C 
ATOM      5  O   UNL     1       6.498   0.141  22.957  0.00  0.00    -0.273 OA
BRANCH   4   6
ATOM      6  C   UNL     1       6.221   0.120  25.355  0.00  0.00    +0.256 C 
ATOM      7 CL   UNL     1       7.581   0.719  26.330  0.00  0.00    -0.094 Cl
ATOM      8 CL   UNL     1       5.359  -1.165  26.225  0.00  0.00    -0.094 Cl
ENDBRANCH   4   6
ENDBRANCH   1   2
BRANCH   1   9
ATOM      9  C   UNL     1       9.544  -1.961  22.690  0.00  0.00    +0.168 C 
BRANCH   9  10
ATOM     10  C   UNL     1       9.974  -0.510  22.839  0.00  0.00    -0.017 A 
ATOM     11  C   UNL     1       9.737   0.428  21.822  0.00  0.00    +0.013 A 
ATOM     12  C   UNL     1      10.025   1.783  22.007  0.00  0.00    +0.084 A 
ATOM     13  C   UNL     1      10.538   2.213  23.233  0.00  0.00    +0.273 A 
ATOM     14  C   UNL     1      10.817   1.291  24.248  0.00  0.00    +0.084 A 
ATOM     15  C   UNL     1      10.542  -0.066  24.045  0.00  0.00    +0.013 A 
BRANCH  13  16
ATOM     16  N   UNL     1      10.735   3.648  23.475  0.00  0.00    +0.080 N 
ATOM     17  O   UNL     1      11.869   4.114  23.295  0.00  0.00    +0.041 OA
ATOM     18  O   UNL     1       9.749   4.314  23.823  0.00  0.00    -0.576 OA
ENDBRANCH  13  16
ENDBRANCH   9  10
BRANCH   9  19
ATOM     19  O   UNL     1      10.318  -2.769  23.594  0.00  0.00    -0.385 OA
ATOM     20  H   UNL     1      10.818  -2.155  24.161  0.00  0.00    +0.210 HD
ENDBRANCH   9  19
ENDBRANCH   1   9
BRANCH   1  21
ATOM     21  C   UNL     1       7.806  -3.783  23.037  0.00  0.00    +0.257 C 
BRANCH  21  22
ATOM     22  O   UNL     1       7.592  -4.184  24.406  0.00  0.00    -0.463 OA
BRANCH  22  23
ATOM     23  C   UNL     1       8.553  -4.978  24.941  0.00  0.00    +0.308 C 
ATOM     24  O   UNL     1       9.337  -5.668  24.311  0.00  0.00    -0.251 OA
BRANCH  23  25
ATOM     25  C   UNL     1       8.568  -4.869  26.441  0.00  0.00    +0.132 C 
BRANCH  25  26
ATOM     26  C   UNL     1       7.240  -4.386  26.990  0.00  0.00    +0.131 C 
BRANCH  26  27
ATOM     27  C   UNL     1       6.445  -5.466  27.678  0.00  0.00    +0.305 C 
ATOM     28  O   UNL     1       6.137  -6.517  27.134  0.00  0.00    -0.251 OA
BRANCH  27  29
ATOM     29  O   UNL     1       6.050  -5.154  28.926  0.00  0.00    -0.481 OA
ATOM     30  H   UNL     1       6.720  -5.265  29.626  0.00  0.00    +0.295 HD
ENDBRANCH  27  29
ENDBRANCH  26  27
ENDBRANCH  25  26
ENDBRANCH  23  25
ENDBRANCH  22  23
ENDBRANCH  21  22
ENDBRANCH   1  21
TORSDOF 13
ENDMDL
MODEL 6
REMARK VINA RESULT:      -6.5      2.588      5.614
REMARK  Name = 
REMARK  13 active torsions:
REMARK  status: ('A' for Active; 'I' for Inactive)
REMARK    1  A    between atoms: C_2  and  C_3
REMARK    2  A    between atoms: C_2  and  N_12
REMARK    3  A    between atoms: C_2  and  C_18
REMARK    4  A    between atoms: C_3  and  O_4
REMARK    5  A    between atoms: O_4  and  C_5
REMARK    6  A    between atoms: C_5  and  C_7
REMARK    7  A    between atoms: C_7  and  C_8
REMARK    8  A    between atoms: C_8  and  C_9
REMARK    9  A    between atoms: C_9  and  O_10
REMARK   10  A    between atoms: C_13  and  C_15
REMARK   11  A    between atoms: C_18  and  O_20
REMARK   12  A    between atoms: C_18  and  C_21
REMARK   13  A    between atoms: C_24  and  N_27
REMARK                            x       y       z     vdW  Elec       q    Type
REMARK                         _______ _______ _______ _____ _____    ______ ____
ROOT
ATOM      1  C   UNL     1       7.677  -2.059  23.420  0.00  0.00    +0.143 C 
ENDROOT
BRANCH   1   2
ATOM      2  N   UNL     1       7.074  -3.296  22.903  0.00  0.00    -0.304 N 
ATOM      3  H   UNL     1       6.648  -3.254  21.982  0.00  0.00    +0.149 HD
ATOM      4  C   UNL     1       7.145  -4.507  23.566  0.00  0.00    +0.246 C 
ATOM      5  O   UNL     1       7.761  -4.640  24.623  0.00  0.00    -0.273 OA
BRANCH   4   6
ATOM      6  C   UNL     1       6.422  -5.685  22.908  0.00  0.00    +0.256 C 
ATOM      7 CL   UNL     1       7.018  -5.908  21.249  0.00  0.00    -0.094 Cl
ATOM      8 CL   UNL     1       4.673  -5.373  22.896  0.00  0.00    -0.094 Cl
ENDBRANCH   4   6
ENDBRANCH   1   2
BRANCH   1   9
ATOM      9  C   UNL     1       9.116  -1.842  22.874  0.00  0.00    +0.168 C 
BRANCH   9  10
ATOM     10  C   UNL     1       9.684  -0.438  23.005  0.00  0.00    -0.017 A 
ATOM     11  C   UNL     1       9.750   0.427  21.901  0.00  0.00    +0.013 A 
ATOM     12  C   UNL     1      10.161   1.755  22.046  0.00  0.00    +0.084 A 
ATOM     13  C   UNL     1      10.492   2.235  23.316  0.00  0.00    +0.273 A 
ATOM     14  C   UNL     1      10.468   1.381  24.425  0.00  0.00    +0.084 A 
ATOM     15  C   UNL     1      10.073   0.049  24.264  0.00  0.00    +0.013 A 
BRANCH  13  16
ATOM     16  N   UNL     1      10.814   3.656  23.494  0.00  0.00    +0.080 N 
ATOM     17  O   UNL     1      11.987   4.010  23.312  0.00  0.00    +0.041 OA
ATOM     18  O   UNL     1       9.886   4.423  23.793  0.00  0.00    -0.576 OA
ENDBRANCH  13  16
ENDBRANCH   9  10
BRANCH   9  19
ATOM     19  O   UNL     1      10.015  -2.766  23.510  0.00  0.00    -0.385 OA
ATOM     20  H   UNL     1      10.411  -2.298  24.267  0.00  0.00    +0.210 HD
ENDBRANCH   9  19
ENDBRANCH   1   9
BRANCH   1  21
ATOM     21  C   UNL     1       6.777  -0.860  23.035  0.00  0.00    +0.257 C 
BRANCH  21  22
ATOM     22  O   UNL     1       6.331  -0.111  24.184  0.00  0.00    -0.463 OA
BRANCH  22  23
ATOM     23  C   UNL     1       6.582   1.221  24.148  0.00  0.00    +0.308 C 
ATOM     24  O   UNL     1       6.838   1.922  25.114  0.00  0.00    -0.251 OA
BRANCH  23  25
ATOM     25  C   UNL     1       6.552   1.737  22.736  0.00  0.00    +0.132 C 
BRANCH  25  26
ATOM     26  C   UNL     1       5.740   3.010  22.612  0.00  0.00    +0.131 C 
BRANCH  26  27
ATOM     27  C   UNL     1       6.571   4.265  22.698  0.00  0.00    +0.305 C 
ATOM     28  O   UNL     1       6.246   5.236  23.367  0.00  0.00    -0.251 OA
BRANCH  27  29
ATOM     29  O   UNL     1       7.676   4.252  21.928  0.00  0.00    -0.481 OA
ATOM     30  H   UNL     1       7.678   3.608  21.197  0.00  0.00    +0.295 HD
ENDBRANCH  27  29
ENDBRANCH  26  27
ENDBRANCH  25  26
ENDBRANCH  23  25
ENDBRANCH  22  23
ENDBRANCH  21  22
ENDBRANCH   1  21
TORSDOF 13
ENDMDL
MODEL 7
REMARK VINA RESULT:      -6.5      2.812      7.350
REMARK  Name = 
REMARK  13 active torsions:
REMARK  status: ('A' for Active; 'I' for Inactive)
REMARK    1  A    between atoms: C_2  and  C_3
REMARK    2  A    between atoms: C_2  and  N_12
REMARK    3  A    between atoms: C_2  and  C_18
REMARK    4  A    between atoms: C_3  and  O_4
REMARK    5  A    between atoms: O_4  and  C_5
REMARK    6  A    between atoms: C_5  and  C_7
REMARK    7  A    between atoms: C_7  and  C_8
REMARK    8  A    between atoms: C_8  and  C_9
REMARK    9  A    between atoms: C_9  and  O_10
REMARK   10  A    between atoms: C_13  and  C_15
REMARK   11  A    between atoms: C_18  and  O_20
REMARK   12  A    between atoms: C_18  and  C_21
REMARK   13  A    between atoms: C_24  and  N_27
REMARK                            x       y       z     vdW  Elec       q    Type
REMARK                         _______ _______ _______ _____ _____    ______ ____
ROOT
ATOM      1  C   UNL     1      10.005  -0.769  24.291  0.00  0.00    +0.143 C 
ENDROOT
BRANCH   1   2
ATOM      2  N   UNL     1       8.651  -0.409  24.734  0.00  0.00    -0.304 N 
ATOM      3  H   UNL     1       7.997  -0.098  24.022  0.00  0.00    +0.149 HD
ATOM      4  C   UNL     1       8.214  -0.566  26.037  0.00  0.00    +0.246 C 
ATOM      5  O   UNL     1       8.926  -1.060  26.911  0.00  0.00    -0.273 OA
BRANCH   4   6
ATOM      6  C   UNL     1       6.788  -0.097  26.337  0.00  0.00    +0.256 C 
ATOM      7 CL   UNL     1       5.646  -0.903  25.239  0.00  0.00    -0.094 Cl
ATOM      8 CL   UNL     1       6.691   1.666  26.138  0.00  0.00    -0.094 Cl
ENDBRANCH   4   6
ENDBRANCH   1   2
BRANCH   1   9
ATOM      9  C   UNL     1       9.984  -1.867  23.191  0.00  0.00    +0.168 C 
BRANCH   9  10
ATOM     10  C   UNL     1       8.774  -2.787  23.178  0.00  0.00    -0.017 A 
ATOM     11  C   UNL     1       8.631  -3.816  24.123  0.00  0.00    +0.013 A 
ATOM     12  C   UNL     1       7.465  -4.584  24.184  0.00  0.00    +0.084 A 
ATOM     13  C   UNL     1       6.416  -4.309  23.304  0.00  0.00    +0.273 A 
ATOM     14  C   UNL     1       6.550  -3.313  22.330  0.00  0.00    +0.084 A 
ATOM     15  C   UNL     1       7.729  -2.563  22.266  0.00  0.00    +0.013 A 
BRANCH  13  16
ATOM     16  N   UNL     1       5.146  -5.034  23.438  0.00  0.00    +0.080 N 
ATOM     17  O   UNL     1       4.928  -5.626  24.504  0.00  0.00    +0.041 OA
ATOM     18  O   UNL     1       4.356  -4.992  22.483  0.00  0.00    -0.576 OA
ENDBRANCH  13  16
ENDBRANCH   9  10
BRANCH   9  19
ATOM     19  O   UNL     1      10.113  -1.253  21.897  0.00  0.00    -0.385 OA
ATOM     20  H   UNL     1      10.336  -1.964  21.269  0.00  0.00    +0.210 HD
ENDBRANCH   9  19
ENDBRANCH   1   9
BRANCH   1  21
ATOM     21  C   UNL     1      10.715   0.500  23.759  0.00  0.00    +0.257 C 
BRANCH  21  22
ATOM     22  O   UNL     1      10.361   1.684  24.503  0.00  0.00    -0.463 OA
BRANCH  22  23
ATOM     23  C   UNL     1      10.220   2.817  23.771  0.00  0.00    +0.308 C 
ATOM     24  O   UNL     1      11.125   3.426  23.223  0.00  0.00    -0.251 OA
BRANCH  23  25
ATOM     25  C   UNL     1       8.774   3.218  23.672  0.00  0.00    +0.132 C 
BRANCH  25  26
ATOM     26  C   UNL     1       8.237   3.065  22.263  0.00  0.00    +0.131 C 
BRANCH  26  27
ATOM     27  C   UNL     1       7.982   1.633  21.868  0.00  0.00    +0.305 C 
ATOM     28  O   UNL     1       7.208   0.903  22.471  0.00  0.00    -0.251 OA
BRANCH  27  29
ATOM     29  O   UNL     1       8.723   1.203  20.830  0.00  0.00    -0.481 OA
ATOM     30  H   UNL     1       8.948   0.255  20.831  0.00  0.00    +0.295 HD
ENDBRANCH  27  29
ENDBRANCH  26  27
ENDBRANCH  25  26
ENDBRANCH  23  25
ENDBRANCH  22  23
ENDBRANCH  21  22
ENDBRANCH   1  21
TORSDOF 13
ENDMDL
MODEL 8
REMARK VINA RESULT:      -6.5      2.459      4.597
REMARK  Name = 
REMARK  13 active torsions:
REMARK  status: ('A' for Active; 'I' for Inactive)
REMARK    1  A    between atoms: C_2  and  C_3
REMARK    2  A    between atoms: C_2  and  N_12
REMARK    3  A    between atoms: C_2  and  C_18
REMARK    4  A    between atoms: C_3  and  O_4
REMARK    5  A    between atoms: O_4  and  C_5
REMARK    6  A    between atoms: C_5  and  C_7
REMARK    7  A    between atoms: C_7  and  C_8
REMARK    8  A    between atoms: C_8  and  C_9
REMARK    9  A    between atoms: C_9  and  O_10
REMARK   10  A    between atoms: C_13  and  C_15
REMARK   11  A    between atoms: C_18  and  O_20
REMARK   12  A    between atoms: C_18  and  C_21
REMARK   13  A    between atoms: C_24  and  N_27
REMARK                            x       y       z     vdW  Elec       q    Type
REMARK                         _______ _______ _______ _____ _____    ______ ____
ROOT
ATOM      1  C   UNL     1       7.876  -2.063  23.159  0.00  0.00    +0.143 C 
ENDROOT
BRANCH   1   2
ATOM      2  N   UNL     1       7.214  -3.161  22.439  0.00  0.00    -0.304 N 
ATOM      3  H   UNL     1       7.444  -3.276  21.456  0.00  0.00    +0.149 HD
ATOM      4  C   UNL     1       6.386  -4.080  23.057  0.00  0.00    +0.246 C 
ATOM      5  O   UNL     1       6.178  -4.063  24.270  0.00  0.00    -0.273 OA
BRANCH   4   6
ATOM      6  C   UNL     1       5.742  -5.132  22.150  0.00  0.00    +0.256 C 
ATOM      7 CL   UNL     1       4.259  -5.753  22.907  0.00  0.00    -0.094 Cl
ATOM      8 CL   UNL     1       6.892  -6.456  21.870  0.00  0.00    -0.094 Cl
ENDBRANCH   4   6
ENDBRANCH   1   2
BRANCH   1   9
ATOM      9  C   UNL     1       9.307  -1.792  22.618  0.00  0.00    +0.168 C 
BRANCH   9  10
ATOM     10  C   UNL     1       9.837  -0.377  22.787  0.00  0.00    -0.017 A 
ATOM     11  C   UNL     1       9.661   0.591  21.786  0.00  0.00    +0.013 A 
ATOM     12  C   UNL     1      10.043   1.920  21.991  0.00  0.00    +0.084 A 
ATOM     13  C   UNL     1      10.591   2.294  23.220  0.00  0.00    +0.273 A 
ATOM     14  C   UNL     1      10.809   1.339  24.219  0.00  0.00    +0.084 A 
ATOM     15  C   UNL     1      10.440   0.007  23.996  0.00  0.00    +0.013 A 
BRANCH  13  16
ATOM     16  N   UNL     1      10.888   3.707  23.483  0.00  0.00    +0.080 N 
ATOM     17  O   UNL     1      12.073   4.065  23.446  0.00  0.00    +0.041 OA
ATOM     18  O   UNL     1       9.931   4.465  23.704  0.00  0.00    -0.576 OA
ENDBRANCH  13  16
ENDBRANCH   9  10
BRANCH   9  19
ATOM     19  O   UNL     1      10.232  -2.710  23.226  0.00  0.00    -0.385 OA
ATOM     20  H   UNL     1      10.598  -2.261  24.010  0.00  0.00    +0.210 HD
ENDBRANCH   9  19
ENDBRANCH   1   9
BRANCH   1  21
ATOM     21  C   UNL     1       7.011  -0.785  23.033  0.00  0.00    +0.257 C 
BRANCH  21  22
ATOM     22  O   UNL     1       5.995  -0.703  24.054  0.00  0.00    -0.463 OA
BRANCH  22  23
ATOM     23  C   UNL     1       5.895   0.493  24.686  0.00  0.00    +0.308 C 
ATOM     24  O   UNL     1       4.879   1.162  24.785  0.00  0.00    -0.251 OA
BRANCH  23  25
ATOM     25  C   UNL     1       7.208   0.886  25.305  0.00  0.00    +0.132 C 
BRANCH  25  26
ATOM     26  C   UNL     1       7.319   0.425  26.744  0.00  0.00    +0.131 C 
BRANCH  26  27
ATOM     27  C   UNL     1       8.288  -0.714  26.938  0.00  0.00    +0.305 C 
ATOM     28  O   UNL     1       8.094  -1.837  26.493  0.00  0.00    -0.251 OA
BRANCH  27  29
ATOM     29  O   UNL     1       9.359  -0.409  27.693  0.00  0.00    -0.481 OA
ATOM     30  H   UNL     1      10.225  -0.474  27.250  0.00  0.00    +0.295 HD
ENDBRANCH  27  29
ENDBRANCH  26  27
ENDBRANCH  25  26
ENDBRANCH  23  25
ENDBRANCH  22  23
ENDBRANCH  21  22
ENDBRANCH   1  21
TORSDOF 13
ENDMDL
MODEL 9
REMARK VINA RESULT:      -6.3      3.492      6.968
REMARK  Name = 
REMARK  13 active torsions:
REMARK  status: ('A' for Active; 'I' for Inactive)
REMARK    1  A    between atoms: C_2  and  C_3
REMARK    2  A    between atoms: C_2  and  N_12
REMARK    3  A    between atoms: C_2  and  C_18
REMARK    4  A    between atoms: C_3  and  O_4
REMARK    5  A    between atoms: O_4  and  C_5
REMARK    6  A    between atoms: C_5  and  C_7
REMARK    7  A    between atoms: C_7  and  C_8
REMARK    8  A    between atoms: C_8  and  C_9
REMARK    9  A    between atoms: C_9  and  O_10
REMARK   10  A    between atoms: C_13  and  C_15
REMARK   11  A    between atoms: C_18  and  O_20
REMARK   12  A    between atoms: C_18  and  C_21
REMARK   13  A    between atoms: C_24  and  N_27
REMARK                            x       y       z     vdW  Elec       q    Type
REMARK                         _______ _______ _______ _____ _____    ______ ____
ROOT
ATOM      1  C   UNL     1       7.377  -1.911  24.613  0.00  0.00    +0.143 C 
ENDROOT
BRANCH   1   2
ATOM      2  N   UNL     1       8.416  -0.974  24.160  0.00  0.00    -0.304 N 
ATOM      3  H   UNL     1       8.236   0.017  24.293  0.00  0.00    +0.149 HD
ATOM      4  C   UNL     1       9.639  -1.383  23.662  0.00  0.00    +0.246 C 
ATOM      5  O   UNL     1       9.957  -2.570  23.602  0.00  0.00    -0.273 OA
BRANCH   4   6
ATOM      6  C   UNL     1      10.586  -0.276  23.192  0.00  0.00    +0.256 C 
ATOM      7 CL   UNL     1      10.903   0.852  24.529  0.00  0.00    -0.094 Cl
ATOM      8 CL   UNL     1       9.855   0.586  21.821  0.00  0.00    -0.094 Cl
ENDBRANCH   4   6
ENDBRANCH   1   2
BRANCH   1   9
ATOM      9  C   UNL     1       7.131  -1.809  26.144  0.00  0.00    +0.168 C 
BRANCH   9  10
ATOM     10  C   UNL     1       6.651  -3.075  26.837  0.00  0.00    -0.017 A 
ATOM     11  C   UNL     1       5.354  -3.168  27.368  0.00  0.00    +0.013 A 
ATOM     12  C   UNL     1       4.875  -4.369  27.897  0.00  0.00    +0.084 A 
ATOM     13  C   UNL     1       5.693  -5.501  27.879  0.00  0.00    +0.273 A 
ATOM     14  C   UNL     1       7.001  -5.423  27.388  0.00  0.00    +0.084 A 
ATOM     15  C   UNL     1       7.477  -4.210  26.877  0.00  0.00    +0.013 A 
BRANCH  13  16
ATOM     16  N   UNL     1       5.157  -6.792  28.328  0.00  0.00    +0.080 N 
ATOM     17  O   UNL     1       3.931  -6.962  28.265  0.00  0.00    +0.041 OA
ATOM     18  O   UNL     1       5.966  -7.646  28.722  0.00  0.00    -0.576 OA
ENDBRANCH  13  16
ENDBRANCH   9  10
BRANCH   9  19
ATOM     19  O   UNL     1       8.329  -1.352  26.794  0.00  0.00    -0.385 OA
ATOM     20  H   UNL     1       8.992  -2.057  26.689  0.00  0.00    +0.210 HD
ENDBRANCH   9  19
ENDBRANCH   1   9
BRANCH   1  21
ATOM     21  C   UNL     1       6.065  -1.618  23.844  0.00  0.00    +0.257 C 
BRANCH  21  22
ATOM     22  O   UNL     1       5.160  -2.741  23.848  0.00  0.00    -0.463 OA
BRANCH  22  23
ATOM     23  C   UNL     1       5.171  -3.506  22.728  0.00  0.00    +0.308 C 
ATOM     24  O   UNL     1       5.394  -3.107  21.597  0.00  0.00    -0.251 OA
BRANCH  23  25
ATOM     25  C   UNL     1       4.913  -4.950  23.061  0.00  0.00    +0.132 C 
BRANCH  25  26
ATOM     26  C   UNL     1       6.083  -5.585  23.784  0.00  0.00    +0.131 C 
BRANCH  26  27
ATOM     27  C   UNL     1       7.361  -5.578  22.984  0.00  0.00    +0.305 C 
ATOM     28  O   UNL     1       7.439  -6.029  21.850  0.00  0.00    -0.251 OA
BRANCH  27  29
ATOM     29  O   UNL     1       8.426  -5.086  23.643  0.00  0.00    -0.481 OA
ATOM     30  H   UNL     1       8.725  -4.200  23.368  0.00  0.00    +0.295 HD
ENDBRANCH  27  29
ENDBRANCH  26  27
ENDBRANCH  25  26
ENDBRANCH  23  25
ENDBRANCH  22  23
ENDBRANCH  21  22
ENDBRANCH   1  21
TORSDOF 13
ENDMDL
