MODEL 1
REMARK VINA RESULT:      -8.0      0.000      0.000
REMARK  Name = 
REMARK  10 active torsions:
REMARK  status: ('A' for Active; 'I' for Inactive)
REMARK    1  A    between atoms: C_1  and  N_2
REMARK    2  A    between atoms: N_2  and  C_3
REMARK    3  A    between atoms: C_4  and  C_6
REMARK    4  A    between atoms: C_9  and  S_12
REMARK    5  A    between atoms: S_12  and  C_15
REMARK    6  A    between atoms: C_18  and  N_19
REMARK    7  A    between atoms: C_20  and  C_22
REMARK    8  A    between atoms: C_22  and  C_23
REMARK    9  A    between atoms: C_22  and  O_24
REMARK   10  A    between atoms: C_22  and  C_25
REMARK                            x       y       z     vdW  Elec       q    Type
REMARK                         _______ _______ _______ _____ _____    ______ ____
ROOT
ATOM      1  C   UNL     1       8.258  -3.415  24.927  0.00  0.00    +0.095 A 
ATOM      2  C   UNL     1       7.296  -2.403  24.925  0.00  0.00    +0.049 A 
ATOM      3  C   UNL     1       7.590  -1.190  24.291  0.00  0.00    +0.064 A 
ATOM      4 CL   UNL     1       6.400   0.064  24.355  0.00  0.00    -0.082 Cl
ATOM      5  C   UNL     1       8.828  -0.981  23.650  0.00  0.00    +0.052 A 
ATOM      6  C   UNL     1       9.734  -2.049  23.599  0.00  0.00    +0.026 A 
ATOM      7  C   UNL     1       9.456  -3.260  24.232  0.00  0.00    +0.029 A 
ENDROOT
BRANCH   5   8
ATOM      8  N   UNL     1       9.130   0.300  23.121  0.00  0.00    -0.282 N 
ATOM      9  H   UNL     1       8.703   0.527  22.221  0.00  0.00    +0.155 HD
ATOM     10  C   UNL     1       9.922   1.283  23.699  0.00  0.00    +0.258 C 
ATOM     11  O   UNL     1      10.556   1.157  24.746  0.00  0.00    -0.272 OA
BRANCH  10  12
ATOM     12  C   UNL     1       9.953   2.601  22.921  0.00  0.00    +0.234 C 
ATOM     13  C   UNL     1      11.135   3.450  23.414  0.00  0.00    +0.061 C 
BRANCH  12  14
ATOM     14  C   UNL     1       8.613   3.326  23.190  0.00  0.00    +0.427 C 
ATOM     15  F   UNL     1       7.697   3.042  22.229  0.00  0.00    -0.167 F 
ATOM     16  F   UNL     1       8.754   4.676  23.198  0.00  0.00    -0.167 F 
ATOM     17  F   UNL     1       8.046   2.984  24.368  0.00  0.00    -0.167 F 
ENDBRANCH  12  14
BRANCH  12  18
ATOM     18  O   UNL     1      10.165   2.311  21.519  0.00  0.00    -0.373 OA
ATOM     19  H   UNL     1      11.126   2.253  21.368  0.00  0.00    +0.211 HD
ENDBRANCH  12  18
ENDBRANCH  10  12
ENDBRANCH   5   8
BRANCH   1  20
ATOM     20  S   UNL     1       8.034  -4.877  25.911  0.00  0.00    +0.025 S 
ATOM     21  O   UNL     1       9.053  -5.836  25.530  0.00  0.00    -0.164 OA
ATOM     22  O   UNL     1       7.901  -4.427  27.286  0.00  0.00    -0.164 OA
BRANCH  20  26
ATOM     23  C   UNL     1       4.077  -6.787  24.598  0.00  0.00    +0.037 A 
ATOM     24  C   UNL     1       4.398  -6.670  25.963  0.00  0.00    +0.015 A 
ATOM     25  C   UNL     1       5.588  -6.057  26.368  0.00  0.00    +0.028 A 
ATOM     26  C   UNL     1       6.469  -5.563  25.402  0.00  0.00    +0.094 A 
ATOM     27  C   UNL     1       6.146  -5.632  24.045  0.00  0.00    +0.028 A 
ATOM     28  C   UNL     1       4.936  -6.214  23.651  0.00  0.00    +0.015 A 
BRANCH  23  31
ATOM     29  C   UNL     1       0.496  -7.459  23.435  0.00  0.00    +0.132 C 
ATOM     30  N   UNL     1       1.725  -6.725  23.688  0.00  0.00    -0.304 N 
ATOM     31  C   UNL     1       2.790  -7.450  24.235  0.00  0.00    +0.246 C 
ATOM     32  O   UNL     1       2.715  -8.667  24.421  0.00  0.00    -0.270 OA
ATOM     33  C   UNL     1       1.748  -5.327  23.282  0.00  0.00    +0.132 C 
ENDBRANCH  23  31
ENDBRANCH  20  26
ENDBRANCH   1  20
TORSDOF 7
ENDMDL
MODEL 2
REMARK VINA RESULT:      -7.8      2.729      3.536
REMARK  Name = 
REMARK  10 active torsions:
REMARK  status: ('A' for Active; 'I' for Inactive)
REMARK    1  A    between atoms: C_1  and  N_2
REMARK    2  A    between atoms: N_2  and  C_3
REMARK    3  A    between atoms: C_4  and  C_6
REMARK    4  A    between atoms: C_9  and  S_12
REMARK    5  A    between atoms: S_12  and  C_15
REMARK    6  A    between atoms: C_18  and  N_19
REMARK    7  A    between atoms: C_20  and  C_22
REMARK    8  A    between atoms: C_22  and  C_23
REMARK    9  A    between atoms: C_22  and  O_24
REMARK   10  A    between atoms: C_22  and  C_25
REMARK                            x       y       z     vdW  Elec       q    Type
REMARK                         _______ _______ _______ _____ _____    ______ ____
ROOT
ATOM      1  C   UNL     1       6.942  -3.258  23.036  0.00  0.00    +0.095 A 
ATOM      2  C   UNL     1       8.305  -3.025  22.849  0.00  0.00    +0.049 A 
ATOM      3  C   UNL     1       8.780  -1.708  22.888  0.00  0.00    +0.064 A 
ATOM      4 CL   UNL     1      10.465  -1.448  22.598  0.00  0.00    -0.082 Cl
ATOM      5  C   UNL     1       7.908  -0.624  23.122  0.00  0.00    +0.052 A 
ATOM      6  C   UNL     1       6.562  -0.904  23.390  0.00  0.00    +0.026 A 
ATOM      7  C   UNL     1       6.077  -2.211  23.347  0.00  0.00    +0.029 A 
ENDROOT
BRANCH   5   8
ATOM      8  N   UNL     1       8.410   0.701  23.039  0.00  0.00    -0.282 N 
ATOM      9  H   UNL     1       8.584   1.057  22.097  0.00  0.00    +0.155 HD
ATOM     10  C   UNL     1       8.668   1.569  24.091  0.00  0.00    +0.258 C 
ATOM     11  O   UNL     1       8.571   1.285  25.284  0.00  0.00    -0.272 OA
BRANCH  10  12
ATOM     12  C   UNL     1       9.096   2.972  23.654  0.00  0.00    +0.234 C 
ATOM     13  C   UNL     1       8.222   3.420  22.472  0.00  0.00    +0.061 C 
BRANCH  12  14
ATOM     14  C   UNL     1      10.582   2.890  23.231  0.00  0.00    +0.427 C 
ATOM     15  F   UNL     1      10.707   2.474  21.945  0.00  0.00    -0.167 F 
ATOM     16  F   UNL     1      11.282   2.007  23.988  0.00  0.00    -0.167 F 
ATOM     17  F   UNL     1      11.229   4.074  23.312  0.00  0.00    -0.167 F 
ENDBRANCH  12  14
BRANCH  12  18
ATOM     18  O   UNL     1       8.872   3.892  24.749  0.00  0.00    -0.373 OA
ATOM     19  H   UNL     1       8.033   4.359  24.579  0.00  0.00    +0.211 HD
ENDBRANCH  12  18
ENDBRANCH  10  12
ENDBRANCH   5   8
BRANCH   1  20
ATOM     20  S   UNL     1       6.252  -4.873  22.763  0.00  0.00    +0.025 S 
ATOM     21  O   UNL     1       5.043  -4.719  21.979  0.00  0.00    -0.164 OA
ATOM     22  O   UNL     1       7.346  -5.711  22.303  0.00  0.00    -0.164 OA
BRANCH  20  26
ATOM     23  C   UNL     1       5.077  -6.479  26.894  0.00  0.00    +0.037 A 
ATOM     24  C   UNL     1       6.006  -5.431  26.772  0.00  0.00    +0.015 A 
ATOM     25  C   UNL     1       6.341  -4.915  25.516  0.00  0.00    +0.028 A 
ATOM     26  C   UNL     1       5.748  -5.457  24.371  0.00  0.00    +0.094 A 
ATOM     27  C   UNL     1       4.792  -6.468  24.479  0.00  0.00    +0.028 A 
ATOM     28  C   UNL     1       4.436  -6.952  25.742  0.00  0.00    +0.015 A 
BRANCH  23  31
ATOM     29  C   UNL     1       3.359  -7.195  30.237  0.00  0.00    +0.132 C 
ATOM     30  N   UNL     1       3.531  -6.716  28.875  0.00  0.00    -0.304 N 
ATOM     31  C   UNL     1       4.764  -6.981  28.265  0.00  0.00    +0.246 C 
ATOM     32  O   UNL     1       5.631  -7.655  28.827  0.00  0.00    -0.270 OA
ATOM     33  C   UNL     1       2.383  -6.070  28.258  0.00  0.00    +0.132 C 
ENDBRANCH  23  31
ENDBRANCH  20  26
ENDBRANCH   1  20
TORSDOF 7
ENDMDL
MODEL 3
REMARK VINA RESULT:      -7.8      2.620      3.490
REMARK  Name = 
REMARK  10 active torsions:
REMARK  status: ('A' for Active; 'I' for Inactive)
REMARK    1  A    between atoms: C_1  and  N_2
REMARK    2  A    between atoms: N_2  and  C_3
REMARK    3  A    between atoms: C_4  and  C_6
REMARK    4  A    between atoms: C_9  and  S_12
REMARK    5  A    between atoms: S_12  and  C_15
REMARK    6  A    between atoms: C_18  and  N_19
REMARK    7  A    between atoms: C_20  and  C_22
REMARK    8  A    between atoms: C_22  and  C_23
REMARK    9  A    between atoms: C_22  and  O_24
REMARK   10  A    between atoms: C_22  and  C_25
REMARK                            x       y       z     vdW  Elec       q    Type
REMARK                         _______ _______ _______ _____ _____    ______ ____
ROOT
ATOM      1  C   UNL     1       6.759  -3.220  22.766  0.00  0.00    +0.095 A 
ATOM      2  C   UNL     1       6.002  -2.321  23.519  0.00  0.00    +0.049 A 
ATOM      3  C   UNL     1       6.534  -1.058  23.803  0.00  0.00    +0.064 A 
ATOM      4 CL   UNL     1       5.595   0.012  24.785  0.00  0.00    -0.082 Cl
ATOM      5  C   UNL     1       7.809  -0.679  23.333  0.00  0.00    +0.052 A 
ATOM      6  C   UNL     1       8.502  -1.575  22.510  0.00  0.00    +0.026 A 
ATOM      7  C   UNL     1       7.986  -2.839  22.226  0.00  0.00    +0.029 A 
ENDROOT
BRANCH   5   8
ATOM      8  N   UNL     1       8.358   0.564  23.739  0.00  0.00    -0.282 N 
ATOM      9  H   UNL     1       8.921   0.550  24.592  0.00  0.00    +0.155 HD
ATOM     10  C   UNL     1       8.232   1.789  23.097  0.00  0.00    +0.258 C 
ATOM     11  O   UNL     1       7.546   1.997  22.097  0.00  0.00    -0.272 OA
BRANCH  10  12
ATOM     12  C   UNL     1       9.045   2.918  23.736  0.00  0.00    +0.234 C 
ATOM     13  C   UNL     1       8.493   4.270  23.257  0.00  0.00    +0.061 C 
BRANCH  12  14
ATOM     14  C   UNL     1      10.514   2.739  23.284  0.00  0.00    +0.427 C 
ATOM     15  F   UNL     1      10.585   2.233  22.026  0.00  0.00    -0.167 F 
ATOM     16  F   UNL     1      11.195   1.878  24.082  0.00  0.00    -0.167 F 
ATOM     17  F   UNL     1      11.214   3.895  23.268  0.00  0.00    -0.167 F 
ENDBRANCH  12  14
BRANCH  12  18
ATOM     18  O   UNL     1       8.886   2.854  25.173  0.00  0.00    -0.373 OA
ATOM     19  H   UNL     1       8.656   3.747  25.488  0.00  0.00    +0.211 HD
ENDBRANCH  12  18
ENDBRANCH  10  12
ENDBRANCH   5   8
BRANCH   1  20
ATOM     20  S   UNL     1       6.239  -4.909  22.577  0.00  0.00    +0.025 S 
ATOM     21  O   UNL     1       4.954  -4.910  21.906  0.00  0.00    -0.164 OA
ATOM     22  O   UNL     1       7.376  -5.626  22.027  0.00  0.00    -0.164 OA
BRANCH  20  26
ATOM     23  C   UNL     1       5.406  -6.332  26.855  0.00  0.00    +0.037 A 
ATOM     24  C   UNL     1       4.590  -6.752  25.790  0.00  0.00    +0.015 A 
ATOM     25  C   UNL     1       4.861  -6.347  24.479  0.00  0.00    +0.028 A 
ATOM     26  C   UNL     1       5.953  -5.510  24.231  0.00  0.00    +0.094 A 
ATOM     27  C   UNL     1       6.798  -5.121  25.271  0.00  0.00    +0.028 A 
ATOM     28  C   UNL     1       6.540  -5.560  26.574  0.00  0.00    +0.015 A 
BRANCH  23  31
ATOM     29  C   UNL     1       3.729  -6.792  30.263  0.00  0.00    +0.132 C 
ATOM     30  N   UNL     1       3.933  -6.317  28.904  0.00  0.00    -0.304 N 
ATOM     31  C   UNL     1       5.061  -6.802  28.230  0.00  0.00    +0.246 C 
ATOM     32  O   UNL     1       5.800  -7.649  28.735  0.00  0.00    -0.270 OA
ATOM     33  C   UNL     1       2.908  -5.441  28.356  0.00  0.00    +0.132 C 
ENDBRANCH  23  31
ENDBRANCH  20  26
ENDBRANCH   1  20
TORSDOF 7
ENDMDL
MODEL 4
REMARK VINA RESULT:      -7.8      1.381      1.819
REMARK  Name = 
REMARK  10 active torsions:
REMARK  status: ('A' for Active; 'I' for Inactive)
REMARK    1  A    between atoms: C_1  and  N_2
REMARK    2  A    between atoms: N_2  and  C_3
REMARK    3  A    between atoms: C_4  and  C_6
REMARK    4  A    between atoms: C_9  and  S_12
REMARK    5  A    between atoms: S_12  and  C_15
REMARK    6  A    between atoms: C_18  and  N_19
REMARK    7  A    between atoms: C_20  and  C_22
REMARK    8  A    between atoms: C_22  and  C_23
REMARK    9  A    between atoms: C_22  and  O_24
REMARK   10  A    between atoms: C_22  and  C_25
REMARK                            x       y       z     vdW  Elec       q    Type
REMARK                         _______ _______ _______ _____ _____    ______ ____
ROOT
ATOM      1  C   UNL     1       8.619  -3.298  25.362  0.00  0.00    +0.095 A 
ATOM      2  C   UNL     1       9.424  -3.136  24.233  0.00  0.00    +0.049 A 
ATOM      3  C   UNL     1       9.640  -1.846  23.735  0.00  0.00    +0.064 A 
ATOM      4 CL   UNL     1      10.597  -1.683  22.302  0.00  0.00    -0.082 Cl
ATOM      5  C   UNL     1       9.070  -0.716  24.357  0.00  0.00    +0.052 A 
ATOM      6  C   UNL     1       8.339  -0.910  25.536  0.00  0.00    +0.026 A 
ATOM      7  C   UNL     1       8.111  -2.191  26.039  0.00  0.00    +0.029 A 
ENDROOT
BRANCH   5   8
ATOM      8  N   UNL     1       9.219   0.560  23.753  0.00  0.00    -0.282 N 
ATOM      9  H   UNL     1       8.445   0.870  23.163  0.00  0.00    +0.155 HD
ATOM     10  C   UNL     1      10.286   1.436  23.892  0.00  0.00    +0.258 C 
ATOM     11  O   UNL     1      11.321   1.199  24.514  0.00  0.00    -0.272 OA
BRANCH  10  12
ATOM     12  C   UNL     1      10.084   2.785  23.197  0.00  0.00    +0.234 C 
ATOM     13  C   UNL     1      11.376   3.609  23.312  0.00  0.00    +0.061 C 
BRANCH  12  14
ATOM     14  C   UNL     1       8.915   3.501  23.914  0.00  0.00    +0.427 C 
ATOM     15  F   UNL     1       9.085   4.848  23.909  0.00  0.00    -0.167 F 
ATOM     16  F   UNL     1       8.811   3.134  25.217  0.00  0.00    -0.167 F 
ATOM     17  F   UNL     1       7.713   3.267  23.344  0.00  0.00    -0.167 F 
ENDBRANCH  12  14
BRANCH  12  18
ATOM     18  O   UNL     1       9.826   2.553  21.792  0.00  0.00    -0.373 OA
ATOM     19  H   UNL     1       8.932   2.175  21.711  0.00  0.00    +0.211 HD
ENDBRANCH  12  18
ENDBRANCH  10  12
ENDBRANCH   5   8
BRANCH   1  20
ATOM     20  S   UNL     1       8.120  -4.918  25.896  0.00  0.00    +0.025 S 
ATOM     21  O   UNL     1       9.027  -5.883  25.306  0.00  0.00    -0.164 OA
ATOM     22  O   UNL     1       7.941  -4.836  27.335  0.00  0.00    -0.164 OA
BRANCH  20  26
ATOM     23  C   UNL     1       4.020  -5.787  24.037  0.00  0.00    +0.037 A 
ATOM     24  C   UNL     1       4.125  -5.377  25.378  0.00  0.00    +0.015 A 
ATOM     25  C   UNL     1       5.371  -5.078  25.938  0.00  0.00    +0.028 A 
ATOM     26  C   UNL     1       6.523  -5.197  25.154  0.00  0.00    +0.094 A 
ATOM     27  C   UNL     1       6.431  -5.561  23.810  0.00  0.00    +0.028 A 
ATOM     28  C   UNL     1       5.177  -5.822  23.248  0.00  0.00    +0.015 A 
BRANCH  23  31
ATOM     29  C   UNL     1       0.723  -7.518  23.159  0.00  0.00    +0.132 C 
ATOM     30  N   UNL     1       2.016  -7.301  23.787  0.00  0.00    -0.304 N 
ATOM     31  C   UNL     1       2.659  -6.089  23.502  0.00  0.00    +0.246 C 
ATOM     32  O   UNL     1       2.121  -5.218  22.815  0.00  0.00    -0.270 OA
ATOM     33  C   UNL     1       2.481  -8.331  24.704  0.00  0.00    +0.132 C 
ENDBRANCH  23  31
ENDBRANCH  20  26
ENDBRANCH   1  20
TORSDOF 7
ENDMDL
MODEL 5
REMARK VINA RESULT:      -7.4      2.554      3.100
REMARK  Name = 
REMARK  10 active torsions:
REMARK  status: ('A' for Active; 'I' for Inactive)
REMARK    1  A    between atoms: C_1  and  N_2
REMARK    2  A    between atoms: N_2  and  C_3
REMARK    3  A    between atoms: C_4  and  C_6
REMARK    4  A    between atoms: C_9  and  S_12
REMARK    5  A    between atoms: S_12  and  C_15
REMARK    6  A    between atoms: C_18  and  N_19
REMARK    7  A    between atoms: C_20  and  C_22
REMARK    8  A    between atoms: C_22  and  C_23
REMARK    9  A    between atoms: C_22  and  O_24
REMARK   10  A    between atoms: C_22  and  C_25
REMARK                            x       y       z     vdW  Elec       q    Type
REMARK                         _______ _______ _______ _____ _____    ______ ____
ROOT
ATOM      1  C   UNL     1       7.017  -3.581  22.569  0.00  0.00    +0.095 A 
ATOM      2  C   UNL     1       8.379  -3.277  22.539  0.00  0.00    +0.049 A 
ATOM      3  C   UNL     1       8.780  -1.947  22.710  0.00  0.00    +0.064 A 
ATOM      4 CL   UNL     1      10.470  -1.594  22.613  0.00  0.00    -0.082 Cl
ATOM      5  C   UNL     1       7.836  -0.920  22.921  0.00  0.00    +0.052 A 
ATOM      6  C   UNL     1       6.486  -1.276  23.029  0.00  0.00    +0.026 A 
ATOM      7  C   UNL     1       6.073  -2.596  22.854  0.00  0.00    +0.029 A 
ENDROOT
BRANCH   5   8
ATOM      8  N   UNL     1       8.276   0.428  22.973  0.00  0.00    -0.282 N 
ATOM      9  H   UNL     1       8.307   0.926  22.081  0.00  0.00    +0.155 HD
ATOM     10  C   UNL     1       8.647   1.148  24.101  0.00  0.00    +0.258 C 
ATOM     11  O   UNL     1       8.724   0.690  25.240  0.00  0.00    -0.272 OA
BRANCH  10  12
ATOM     12  C   UNL     1       8.963   2.620  23.829  0.00  0.00    +0.234 C 
ATOM     13  C   UNL     1       8.005   3.150  22.750  0.00  0.00    +0.061 C 
BRANCH  12  14
ATOM     14  C   UNL     1      10.428   2.694  23.338  0.00  0.00    +0.427 C 
ATOM     15  F   UNL     1      11.234   1.882  24.068  0.00  0.00    -0.167 F 
ATOM     16  F   UNL     1      10.943   3.945  23.448  0.00  0.00    -0.167 F 
ATOM     17  F   UNL     1      10.581   2.321  22.048  0.00  0.00    -0.167 F 
ENDBRANCH  12  14
BRANCH  12  18
ATOM     18  O   UNL     1       8.736   3.380  25.040  0.00  0.00    -0.373 OA
ATOM     19  H   UNL     1       8.741   2.756  25.788  0.00  0.00    +0.211 HD
ENDBRANCH  12  18
ENDBRANCH  10  12
ENDBRANCH   5   8
BRANCH   1  20
ATOM     20  S   UNL     1       6.440  -5.203  22.125  0.00  0.00    +0.025 S 
ATOM     21  O   UNL     1       5.776  -5.107  20.840  0.00  0.00    -0.164 OA
ATOM     22  O   UNL     1       7.561  -6.103  22.328  0.00  0.00    -0.164 OA
BRANCH  20  26
ATOM     23  C   UNL     1       3.218  -6.399  25.161  0.00  0.00    +0.037 A 
ATOM     24  C   UNL     1       4.577  -6.392  25.525  0.00  0.00    +0.015 A 
ATOM     25  C   UNL     1       5.559  -5.994  24.612  0.00  0.00    +0.028 A 
ATOM     26  C   UNL     1       5.182  -5.608  23.322  0.00  0.00    +0.094 A 
ATOM     27  C   UNL     1       3.835  -5.568  22.960  0.00  0.00    +0.028 A 
ATOM     28  C   UNL     1       2.856  -5.932  23.891  0.00  0.00    +0.015 A 
BRANCH  23  31
ATOM     29  C   UNL     1       0.532  -8.334  27.077  0.00  0.00    +0.132 C 
ATOM     30  N   UNL     1       1.527  -8.042  26.059  0.00  0.00    -0.304 N 
ATOM     31  C   UNL     1       2.222  -6.833  26.185  0.00  0.00    +0.246 C 
ATOM     32  O   UNL     1       2.053  -6.089  27.153  0.00  0.00    -0.270 OA
ATOM     33  C   UNL     1       1.751  -9.067  25.050  0.00  0.00    +0.132 C 
ENDBRANCH  23  31
ENDBRANCH  20  26
ENDBRANCH   1  20
TORSDOF 7
ENDMDL
MODEL 6
REMARK VINA RESULT:      -7.4      4.807      9.768
REMARK  Name = 
REMARK  10 active torsions:
REMARK  status: ('A' for Active; 'I' for Inactive)
REMARK    1  A    between atoms: C_1  and  N_2
REMARK    2  A    between atoms: N_2  and  C_3
REMARK    3  A    between atoms: C_4  and  C_6
REMARK    4  A    between atoms: C_9  and  S_12
REMARK    5  A    between atoms: S_12  and  C_15
REMARK    6  A    between atoms: C_18  and  N_19
REMARK    7  A    between atoms: C_20  and  C_22
REMARK    8  A    between atoms: C_22  and  C_23
REMARK    9  A    between atoms: C_22  and  O_24
REMARK   10  A    between atoms: C_22  and  C_25
REMARK                            x       y       z     vdW  Elec       q    Type
REMARK                         _______ _______ _______ _____ _____    ______ ____
ROOT
ATOM      1  C   UNL     1       8.352  -2.381  24.044  0.00  0.00    +0.095 A 
ATOM      2  C   UNL     1       7.329  -3.292  23.778  0.00  0.00    +0.049 A 
ATOM      3  C   UNL     1       6.569  -3.788  24.844  0.00  0.00    +0.064 A 
ATOM      4 CL   UNL     1       5.345  -4.958  24.488  0.00  0.00    -0.082 Cl
ATOM      5  C   UNL     1       6.814  -3.377  26.170  0.00  0.00    +0.052 A 
ATOM      6  C   UNL     1       7.792  -2.399  26.389  0.00  0.00    +0.026 A 
ATOM      7  C   UNL     1       8.560  -1.901  25.336  0.00  0.00    +0.029 A 
ENDROOT
BRANCH   5   8
ATOM      8  N   UNL     1       6.100  -3.992  27.232  0.00  0.00    -0.282 N 
ATOM      9  H   UNL     1       5.234  -3.531  27.516  0.00  0.00    +0.155 HD
ATOM     10  C   UNL     1       6.438  -5.155  27.909  0.00  0.00    +0.258 C 
ATOM     11  O   UNL     1       7.471  -5.801  27.736  0.00  0.00    -0.272 OA
BRANCH  10  12
ATOM     12  C   UNL     1       5.392  -5.613  28.928  0.00  0.00    +0.234 C 
ATOM     13  C   UNL     1       6.083  -6.445  30.021  0.00  0.00    +0.061 C 
BRANCH  12  14
ATOM     14  C   UNL     1       4.353  -6.470  28.168  0.00  0.00    +0.427 C 
ATOM     15  F   UNL     1       3.730  -7.343  29.000  0.00  0.00    -0.167 F 
ATOM     16  F   UNL     1       4.923  -7.217  27.188  0.00  0.00    -0.167 F 
ATOM     17  F   UNL     1       3.378  -5.738  27.585  0.00  0.00    -0.167 F 
ENDBRANCH  12  14
BRANCH  12  18
ATOM     18  O   UNL     1       4.809  -4.447  29.557  0.00  0.00    -0.373 OA
ATOM     19  H   UNL     1       4.732  -4.629  30.511  0.00  0.00    +0.211 HD
ENDBRANCH  12  18
ENDBRANCH  10  12
ENDBRANCH   5   8
BRANCH   1  20
ATOM     20  S   UNL     1       9.494  -1.901  22.769  0.00  0.00    +0.025 S 
ATOM     21  O   UNL     1      10.743  -2.600  22.998  0.00  0.00    -0.164 OA
ATOM     22  O   UNL     1       8.778  -2.031  21.512  0.00  0.00    -0.164 OA
BRANCH  20  26
ATOM     23  C   UNL     1      10.461   2.539  23.386  0.00  0.00    +0.037 A 
ATOM     24  C   UNL     1       9.698   2.119  22.282  0.00  0.00    +0.015 A 
ATOM     25  C   UNL     1       9.372   0.770  22.109  0.00  0.00    +0.028 A 
ATOM     26  C   UNL     1       9.818  -0.169  23.043  0.00  0.00    +0.094 A 
ATOM     27  C   UNL     1      10.539   0.237  24.168  0.00  0.00    +0.028 A 
ATOM     28  C   UNL     1      10.829   1.592  24.352  0.00  0.00    +0.015 A 
BRANCH  23  31
ATOM     29  C   UNL     1      10.236   6.292  24.091  0.00  0.00    +0.132 C 
ATOM     30  N   UNL     1       9.858   4.888  24.082  0.00  0.00    -0.304 N 
ATOM     31  C   UNL     1      10.772   3.994  23.511  0.00  0.00    +0.246 C 
ATOM     32  O   UNL     1      11.875   4.368  23.107  0.00  0.00    -0.270 OA
ATOM     33  C   UNL     1       8.600   4.545  24.728  0.00  0.00    +0.132 C 
ENDBRANCH  23  31
ENDBRANCH  20  26
ENDBRANCH   1  20
TORSDOF 7
ENDMDL
MODEL 7
REMARK VINA RESULT:      -7.4      2.870      3.616
REMARK  Name = 
REMARK  10 active torsions:
REMARK  status: ('A' for Active; 'I' for Inactive)
REMARK    1  A    between atoms: C_1  and  N_2
REMARK    2  A    between atoms: N_2  and  C_3
REMARK    3  A    between atoms: C_4  and  C_6
REMARK    4  A    between atoms: C_9  and  S_12
REMARK    5  A    between atoms: S_12  and  C_15
REMARK    6  A    between atoms: C_18  and  N_19
REMARK    7  A    between atoms: C_20  and  C_22
REMARK    8  A    between atoms: C_22  and  C_23
REMARK    9  A    between atoms: C_22  and  O_24
REMARK   10  A    between atoms: C_22  and  C_25
REMARK                            x       y       z     vdW  Elec       q    Type
REMARK                         _______ _______ _______ _____ _____    ______ ____
ROOT
ATOM      1  C   UNL     1       8.282  -1.782  24.202  0.00  0.00    +0.095 A 
ATOM      2  C   UNL     1       9.398  -0.953  24.333  0.00  0.00    +0.049 A 
ATOM      3  C   UNL     1       9.211   0.433  24.386  0.00  0.00    +0.064 A 
ATOM      4 CL   UNL     1      10.618   1.434  24.493  0.00  0.00    -0.082 Cl
ATOM      5  C   UNL     1       7.922   0.999  24.319  0.00  0.00    +0.052 A 
ATOM      6  C   UNL     1       6.821   0.134  24.273  0.00  0.00    +0.026 A 
ATOM      7  C   UNL     1       6.995  -1.248  24.214  0.00  0.00    +0.029 A 
ENDROOT
BRANCH   5   8
ATOM      8  N   UNL     1       7.785   2.411  24.259  0.00  0.00    -0.282 N 
ATOM      9  H   UNL     1       7.646   2.887  25.152  0.00  0.00    +0.155 HD
ATOM     10  C   UNL     1       7.838   3.213  23.127  0.00  0.00    +0.258 C 
ATOM     11  O   UNL     1       7.940   2.802  21.972  0.00  0.00    -0.272 OA
BRANCH  10  12
ATOM     12  C   UNL     1       7.769   4.714  23.419  0.00  0.00    +0.234 C 
ATOM     13  C   UNL     1       7.349   5.457  22.141  0.00  0.00    +0.061 C 
BRANCH  12  14
ATOM     14  C   UNL     1       9.180   5.161  23.869  0.00  0.00    +0.427 C 
ATOM     15  F   UNL     1       9.488   6.388  23.380  0.00  0.00    -0.167 F 
ATOM     16  F   UNL     1      10.149   4.319  23.429  0.00  0.00    -0.167 F 
ATOM     17  F   UNL     1       9.312   5.243  25.212  0.00  0.00    -0.167 F 
ENDBRANCH  12  14
BRANCH  12  18
ATOM     18  O   UNL     1       6.755   4.948  24.425  0.00  0.00    -0.373 OA
ATOM     19  H   UNL     1       6.228   4.134  24.513  0.00  0.00    +0.211 HD
ENDBRANCH  12  18
ENDBRANCH  10  12
ENDBRANCH   5   8
BRANCH   1  20
ATOM     20  S   UNL     1       8.475  -3.521  23.894  0.00  0.00    +0.025 S 
ATOM     21  O   UNL     1       7.898  -3.815  22.597  0.00  0.00    -0.164 OA
ATOM     22  O   UNL     1       9.862  -3.836  24.190  0.00  0.00    -0.164 OA
BRANCH  20  26
ATOM     23  C   UNL     1       5.952  -5.744  27.012  0.00  0.00    +0.037 A 
ATOM     24  C   UNL     1       6.982  -4.874  27.413  0.00  0.00    +0.015 A 
ATOM     25  C   UNL     1       7.731  -4.168  26.466  0.00  0.00    +0.028 A 
ATOM     26  C   UNL     1       7.454  -4.338  25.106  0.00  0.00    +0.094 A 
ATOM     27  C   UNL     1       6.407  -5.164  24.694  0.00  0.00    +0.028 A 
ATOM     28  C   UNL     1       5.639  -5.838  25.649  0.00  0.00    +0.015 A 
BRANCH  23  31
ATOM     29  C   UNL     1       3.350  -6.720  29.641  0.00  0.00    +0.132 C 
ATOM     30  N   UNL     1       3.972  -5.974  28.559  0.00  0.00    -0.304 N 
ATOM     31  C   UNL     1       5.191  -6.465  28.074  0.00  0.00    +0.246 C 
ATOM     32  O   UNL     1       5.673  -7.521  28.491  0.00  0.00    -0.270 OA
ATOM     33  C   UNL     1       3.233  -4.832  28.042  0.00  0.00    +0.132 C 
ENDBRANCH  23  31
ENDBRANCH  20  26
ENDBRANCH   1  20
TORSDOF 7
ENDMDL
MODEL 8
REMARK VINA RESULT:      -7.3      4.340      9.657
REMARK  Name = 
REMARK  10 active torsions:
REMARK  status: ('A' for Active; 'I' for Inactive)
REMARK    1  A    between atoms: C_1  and  N_2
REMARK    2  A    between atoms: N_2  and  C_3
REMARK    3  A    between atoms: C_4  and  C_6
REMARK    4  A    between atoms: C_9  and  S_12
REMARK    5  A    between atoms: S_12  and  C_15
REMARK    6  A    between atoms: C_18  and  N_19
REMARK    7  A    between atoms: C_20  and  C_22
REMARK    8  A    between atoms: C_22  and  C_23
REMARK    9  A    between atoms: C_22  and  O_24
REMARK   10  A    between atoms: C_22  and  C_25
REMARK                            x       y       z     vdW  Elec       q    Type
REMARK                         _______ _______ _______ _____ _____    ______ ____
ROOT
ATOM      1  C   UNL     1       8.376  -2.503  23.493  0.00  0.00    +0.095 A 
ATOM      2  C   UNL     1       7.595  -3.547  22.996  0.00  0.00    +0.049 A 
ATOM      3  C   UNL     1       6.718  -4.210  23.863  0.00  0.00    +0.064 A 
ATOM      4 CL   UNL     1       5.805  -5.535  23.230  0.00  0.00    -0.082 Cl
ATOM      5  C   UNL     1       6.608  -3.835  25.218  0.00  0.00    +0.052 A 
ATOM      6  C   UNL     1       7.345  -2.728  25.659  0.00  0.00    +0.026 A 
ATOM      7  C   UNL     1       8.226  -2.064  24.807  0.00  0.00    +0.029 A 
ENDROOT
BRANCH   5   8
ATOM      8  N   UNL     1       5.795  -4.606  26.089  0.00  0.00    -0.282 N 
ATOM      9  H   UNL     1       4.792  -4.417  26.052  0.00  0.00    +0.155 HD
ATOM     10  C   UNL     1       6.211  -5.599  26.966  0.00  0.00    +0.258 C 
ATOM     11  O   UNL     1       7.382  -5.912  27.178  0.00  0.00    -0.272 OA
BRANCH  10  12
ATOM     12  C   UNL     1       5.067  -6.321  27.682  0.00  0.00    +0.234 C 
ATOM     13  C   UNL     1       3.973  -6.669  26.660  0.00  0.00    +0.061 C 
BRANCH  12  14
ATOM     14  C   UNL     1       4.517  -5.357  28.760  0.00  0.00    +0.427 C 
ATOM     15  F   UNL     1       5.492  -4.540  29.235  0.00  0.00    -0.167 F 
ATOM     16  F   UNL     1       4.017  -6.020  29.833  0.00  0.00    -0.167 F 
ATOM     17  F   UNL     1       3.533  -4.550  28.306  0.00  0.00    -0.167 F 
ENDBRANCH  12  14
BRANCH  12  18
ATOM     18  O   UNL     1       5.570  -7.559  28.237  0.00  0.00    -0.373 OA
ATOM     19  H   UNL     1       4.811  -8.157  28.370  0.00  0.00    +0.211 HD
ENDBRANCH  12  18
ENDBRANCH  10  12
ENDBRANCH   5   8
BRANCH   1  20
ATOM     20  S   UNL     1       9.667  -1.786  22.504  0.00  0.00    +0.025 S 
ATOM     21  O   UNL     1      10.936  -2.305  22.977  0.00  0.00    -0.164 OA
ATOM     22  O   UNL     1       9.258  -1.947  21.120  0.00  0.00    -0.164 OA
BRANCH  20  26
ATOM     23  C   UNL     1       9.503   2.668  23.579  0.00  0.00    +0.037 A 
ATOM     24  C   UNL     1      10.255   1.772  24.358  0.00  0.00    +0.015 A 
ATOM     25  C   UNL     1      10.335   0.418  24.014  0.00  0.00    +0.028 A 
ATOM     26  C   UNL     1       9.652  -0.044  22.885  0.00  0.00    +0.094 A 
ATOM     27  C   UNL     1       8.937   0.841  22.076  0.00  0.00    +0.028 A 
ATOM     28  C   UNL     1       8.893   2.199  22.408  0.00  0.00    +0.015 A 
BRANCH  23  31
ATOM     29  C   UNL     1      10.451   6.285  24.389  0.00  0.00    +0.132 C 
ATOM     30  N   UNL     1      10.583   4.928  23.884  0.00  0.00    -0.304 N 
ATOM     31  C   UNL     1       9.461   4.099  24.003  0.00  0.00    +0.246 C 
ATOM     32  O   UNL     1       8.389   4.522  24.443  0.00  0.00    -0.270 OA
ATOM     33  C   UNL     1      11.845   4.589  23.242  0.00  0.00    +0.132 C 
ENDBRANCH  23  31
ENDBRANCH  20  26
ENDBRANCH   1  20
TORSDOF 7
ENDMDL
MODEL 9
REMARK VINA RESULT:      -7.3      2.301      2.945
REMARK  Name = 
REMARK  10 active torsions:
REMARK  status: ('A' for Active; 'I' for Inactive)
REMARK    1  A    between atoms: C_1  and  N_2
REMARK    2  A    between atoms: N_2  and  C_3
REMARK    3  A    between atoms: C_4  and  C_6
REMARK    4  A    between atoms: C_9  and  S_12
REMARK    5  A    between atoms: S_12  and  C_15
REMARK    6  A    between atoms: C_18  and  N_19
REMARK    7  A    between atoms: C_20  and  C_22
REMARK    8  A    between atoms: C_22  and  C_23
REMARK    9  A    between atoms: C_22  and  O_24
REMARK   10  A    between atoms: C_22  and  C_25
REMARK                            x       y       z     vdW  Elec       q    Type
REMARK                         _______ _______ _______ _____ _____    ______ ____
ROOT
ATOM      1  C   UNL     1       7.000  -3.555  26.772  0.00  0.00    +0.095 A 
ATOM      2  C   UNL     1       8.098  -3.618  25.912  0.00  0.00    +0.049 A 
ATOM      3  C   UNL     1       8.505  -2.455  25.247  0.00  0.00    +0.064 A 
ATOM      4 CL   UNL     1       9.833  -2.577  24.146  0.00  0.00    -0.082 Cl
ATOM      5  C   UNL     1       7.835  -1.229  25.441  0.00  0.00    +0.052 A 
ATOM      6  C   UNL     1       6.793  -1.187  26.376  0.00  0.00    +0.026 A 
ATOM      7  C   UNL     1       6.373  -2.340  27.039  0.00  0.00    +0.029 A 
ENDROOT
BRANCH   5   8
ATOM      8  N   UNL     1       8.206  -0.103  24.662  0.00  0.00    -0.282 N 
ATOM      9  H   UNL     1       8.857   0.551  25.099  0.00  0.00    +0.155 HD
ATOM     10  C   UNL     1       7.800   0.194  23.368  0.00  0.00    +0.258 C 
ATOM     11  O   UNL     1       6.978  -0.450  22.717  0.00  0.00    -0.272 OA
BRANCH  10  12
ATOM     12  C   UNL     1       8.475   1.430  22.768  0.00  0.00    +0.234 C 
ATOM     13  C   UNL     1       7.501   2.115  21.797  0.00  0.00    +0.061 C 
BRANCH  12  14
ATOM     14  C   UNL     1       9.739   0.944  22.018  0.00  0.00    +0.427 C 
ATOM     15  F   UNL     1      10.552   0.226  22.834  0.00  0.00    -0.167 F 
ATOM     16  F   UNL     1      10.484   1.977  21.548  0.00  0.00    -0.167 F 
ATOM     17  F   UNL     1       9.462   0.149  20.961  0.00  0.00    -0.167 F 
ENDBRANCH  12  14
BRANCH  12  18
ATOM     18  O   UNL     1       8.775   2.363  23.832  0.00  0.00    -0.373 OA
ATOM     19  H   UNL     1       7.947   2.814  24.077  0.00  0.00    +0.211 HD
ENDBRANCH  12  18
ENDBRANCH  10  12
ENDBRANCH   5   8
BRANCH   1  20
ATOM     20  S   UNL     1       6.298  -5.038  27.455  0.00  0.00    +0.025 S 
ATOM     21  O   UNL     1       7.317  -6.069  27.434  0.00  0.00    -0.164 OA
ATOM     22  O   UNL     1       5.648  -4.648  28.695  0.00  0.00    -0.164 OA
BRANCH  20  26
ATOM     23  C   UNL     1       3.065  -6.200  24.418  0.00  0.00    +0.037 A 
ATOM     24  C   UNL     1       4.415  -6.517  24.183  0.00  0.00    +0.015 A 
ATOM     25  C   UNL     1       5.399  -6.195  25.123  0.00  0.00    +0.028 A 
ATOM     26  C   UNL     1       5.033  -5.543  26.305  0.00  0.00    +0.094 A 
ATOM     27  C   UNL     1       3.692  -5.260  26.572  0.00  0.00    +0.028 A 
ATOM     28  C   UNL     1       2.711  -5.619  25.643  0.00  0.00    +0.015 A 
BRANCH  23  31
ATOM     29  C   UNL     1       0.568  -8.122  22.249  0.00  0.00    +0.132 C 
ATOM     30  N   UNL     1       1.477  -7.844  23.350  0.00  0.00    -0.304 N 
ATOM     31  C   UNL     1       2.066  -6.573  23.374  0.00  0.00    +0.246 C 
ATOM     32  O   UNL     1       1.769  -5.708  22.547  0.00  0.00    -0.270 OA
ATOM     33  C   UNL     1       1.629  -8.887  24.353  0.00  0.00    +0.132 C 
ENDBRANCH  23  31
ENDBRANCH  20  26
ENDBRANCH   1  20
TORSDOF 7
ENDMDL
