MODEL 1
REMARK VINA RESULT:      -7.0      0.000      0.000
REMARK  Name = 
REMARK  9 active torsions:
REMARK  status: ('A' for Active; 'I' for Inactive)
REMARK    1  A    between atoms: O_1  and  C_2
REMARK    2  A    between atoms: C_2  and  C_4
REMARK    3  A    between atoms: C_4  and  C_5
REMARK    4  A    between atoms: C_5  and  C_6
REMARK    5  A    between atoms: C_6  and  C_7
REMARK    6  A    between atoms: N_9  and  C_10
REMARK    7  A    between atoms: C_13  and  C_14
REMARK    8  A    between atoms: C_14  and  C_15
REMARK    9  A    between atoms: C_15  and  N_16
REMARK                            x       y       z     vdW  Elec       q    Type
REMARK                         _______ _______ _______ _____ _____    ______ ____
ROOT
ATOM      1  C   UNL     1      10.042   2.376  23.211  0.00  0.00    +0.033 A 
ATOM      2  C   UNL     1      10.451   1.599  24.300  0.00  0.00    +0.023 A 
ATOM      3  C   UNL     1      10.557   0.204  24.179  0.00  0.00    +0.005 A 
ATOM      4  C   UNL     1      10.270  -0.430  22.963  0.00  0.00    -0.042 A 
ATOM      5  C   UNL     1       9.912   0.358  21.868  0.00  0.00    +0.005 A 
ATOM      6  C   UNL     1       9.820   1.742  21.989  0.00  0.00    +0.023 A 
ENDROOT
BRANCH   1   8
ATOM      7  C   UNL     1      10.864   4.697  23.481  0.00  0.00    +0.217 C 
ATOM      8  N   UNL     1       9.844   3.765  23.393  0.00  0.00    -0.285 N 
ATOM      9  H   UNL     1       8.898   4.106  23.276  0.00  0.00    +0.155 HD
ATOM     10  O   UNL     1      12.069   4.458  23.427  0.00  0.00    -0.275 OA
BRANCH   7  11
ATOM     11  C   UNL     1      10.392   6.125  23.686  0.00  0.00    +0.096 C 
BRANCH  11  12
ATOM     12  C   UNL     1       8.927   6.109  24.131  0.00  0.00    +0.020 C 
BRANCH  12  13
ATOM     13  C   UNL     1       8.035   6.971  23.258  0.00  0.00    +0.121 C 
BRANCH  13  14
ATOM     14  C   UNL     1       7.438   6.134  22.154  0.00  0.00    +0.305 C 
ATOM     15  O   UNL     1       7.388   4.917  22.177  0.00  0.00    -0.251 OA
BRANCH  14  16
ATOM     16  O   UNL     1       6.992   6.863  21.107  0.00  0.00    -0.481 OA
ATOM     17  H   UNL     1       6.933   7.822  21.280  0.00  0.00    +0.295 HD
ENDBRANCH  14  16
ENDBRANCH  13  14
ENDBRANCH  12  13
ENDBRANCH  11  12
ENDBRANCH   7  11
ENDBRANCH   1   8
BRANCH   4  18
ATOM     18  C   UNL     1      10.273  -1.936  22.834  0.00  0.00    +0.086 C 
BRANCH  18  19
ATOM     19  C   UNL     1       9.590  -2.621  24.020  0.00  0.00    +0.135 C 
BRANCH  19  20
ATOM     20  N   UNL     1       8.164  -3.099  23.754  0.00  0.00    +0.217 N 
ATOM     21  C   UNL     1       8.135  -4.609  23.960  0.00  0.00    +0.130 C 
ATOM     22  C   UNL     1       6.798  -5.234  23.588  0.00  0.00    +0.051 C 
ATOM     23  C   UNL     1       6.427  -4.903  22.148  0.00  0.00    +0.010 C 
ATOM     24  C   UNL     1       6.411  -3.395  21.947  0.00  0.00    +0.051 C 
ATOM     25  C   UNL     1       7.753  -2.780  22.324  0.00  0.00    +0.130 C 
ATOM     26  O   UNL     1       7.315  -2.491  24.640  0.00  0.00    -0.775 OA
ENDBRANCH  19  20
ENDBRANCH  18  19
ENDBRANCH   4  18
TORSDOF 9
ENDMDL
MODEL 2
REMARK VINA RESULT:      -7.0      1.917      3.277
REMARK  Name = 
REMARK  9 active torsions:
REMARK  status: ('A' for Active; 'I' for Inactive)
REMARK    1  A    between atoms: O_1  and  C_2
REMARK    2  A    between atoms: C_2  and  C_4
REMARK    3  A    between atoms: C_4  and  C_5
REMARK    4  A    between atoms: C_5  and  C_6
REMARK    5  A    between atoms: C_6  and  C_7
REMARK    6  A    between atoms: N_9  and  C_10
REMARK    7  A    between atoms: C_13  and  C_14
REMARK    8  A    between atoms: C_14  and  C_15
REMARK    9  A    between atoms: C_15  and  N_16
REMARK                            x       y       z     vdW  Elec       q    Type
REMARK                         _______ _______ _______ _____ _____    ______ ____
ROOT
ATOM      1  C   UNL     1      10.149   1.817  23.316  0.00  0.00    +0.033 A 
ATOM      2  C   UNL     1      10.245   0.799  24.272  0.00  0.00    +0.023 A 
ATOM      3  C   UNL     1       9.908  -0.522  23.941  0.00  0.00    +0.005 A 
ATOM      4  C   UNL     1       9.485  -0.847  22.645  0.00  0.00    -0.042 A 
ATOM      5  C   UNL     1       9.440   0.165  21.685  0.00  0.00    +0.005 A 
ATOM      6  C   UNL     1       9.786   1.472  22.014  0.00  0.00    +0.023 A 
ENDROOT
BRANCH   1   8
ATOM      7  C   UNL     1       9.410   4.053  24.084  0.00  0.00    +0.217 C 
ATOM      8  N   UNL     1      10.394   3.155  23.708  0.00  0.00    -0.285 N 
ATOM      9  H   UNL     1      11.358   3.404  23.885  0.00  0.00    +0.155 HD
ATOM     10  O   UNL     1       8.201   3.829  24.121  0.00  0.00    -0.275 OA
BRANCH   7  11
ATOM     11  C   UNL     1       9.927   5.432  24.451  0.00  0.00    +0.096 C 
BRANCH  11  12
ATOM     12  C   UNL     1      10.899   5.906  23.367  0.00  0.00    +0.020 C 
BRANCH  12  13
ATOM     13  C   UNL     1      12.331   6.006  23.861  0.00  0.00    +0.121 C 
BRANCH  13  14
ATOM     14  C   UNL     1      13.275   5.497  22.799  0.00  0.00    +0.305 C 
ATOM     15  O   UNL     1      13.041   5.548  21.604  0.00  0.00    -0.251 OA
BRANCH  14  16
ATOM     16  O   UNL     1      14.397   4.937  23.300  0.00  0.00    -0.481 OA
ATOM     17  H   UNL     1      14.625   5.231  24.203  0.00  0.00    +0.295 HD
ENDBRANCH  14  16
ENDBRANCH  13  14
ENDBRANCH  12  13
ENDBRANCH  11  12
ENDBRANCH   7  11
ENDBRANCH   1   8
BRANCH   4  18
ATOM     18  C   UNL     1       9.015  -2.239  22.290  0.00  0.00    +0.086 C 
BRANCH  18  19
ATOM     19  C   UNL     1       7.739  -2.630  23.039  0.00  0.00    +0.135 C 
BRANCH  19  20
ATOM     20  N   UNL     1       7.823  -3.944  23.812  0.00  0.00    +0.217 N 
ATOM     21  C   UNL     1       6.694  -3.952  24.836  0.00  0.00    +0.130 C 
ATOM     22  C   UNL     1       6.749  -5.151  25.772  0.00  0.00    +0.051 C 
ATOM     23  C   UNL     1       8.093  -5.219  26.486  0.00  0.00    +0.010 C 
ATOM     24  C   UNL     1       9.223  -5.256  25.467  0.00  0.00    +0.051 C 
ATOM     25  C   UNL     1       9.157  -4.054  24.535  0.00  0.00    +0.130 C 
ATOM     26  O   UNL     1       7.668  -4.988  22.939  0.00  0.00    -0.775 OA
ENDBRANCH  19  20
ENDBRANCH  18  19
ENDBRANCH   4  18
TORSDOF 9
ENDMDL
MODEL 3
REMARK VINA RESULT:      -6.8      1.237      1.859
REMARK  Name = 
REMARK  9 active torsions:
REMARK  status: ('A' for Active; 'I' for Inactive)
REMARK    1  A    between atoms: O_1  and  C_2
REMARK    2  A    between atoms: C_2  and  C_4
REMARK    3  A    between atoms: C_4  and  C_5
REMARK    4  A    between atoms: C_5  and  C_6
REMARK    5  A    between atoms: C_6  and  C_7
REMARK    6  A    between atoms: N_9  and  C_10
REMARK    7  A    between atoms: C_13  and  C_14
REMARK    8  A    between atoms: C_14  and  C_15
REMARK    9  A    between atoms: C_15  and  N_16
REMARK                            x       y       z     vdW  Elec       q    Type
REMARK                         _______ _______ _______ _____ _____    ______ ____
ROOT
ATOM      1  C   UNL     1      10.034   2.273  23.263  0.00  0.00    +0.033 A 
ATOM      2  C   UNL     1      10.228   1.434  24.366  0.00  0.00    +0.023 A 
ATOM      3  C   UNL     1      10.200   0.039  24.211  0.00  0.00    +0.005 A 
ATOM      4  C   UNL     1       9.993  -0.536  22.950  0.00  0.00    -0.042 A 
ATOM      5  C   UNL     1       9.851   0.309  21.848  0.00  0.00    +0.005 A 
ATOM      6  C   UNL     1       9.891   1.692  22.003  0.00  0.00    +0.023 A 
ENDROOT
BRANCH   1   8
ATOM      7  C   UNL     1      11.058   4.519  23.480  0.00  0.00    +0.217 C 
ATOM      8  N   UNL     1       9.962   3.672  23.466  0.00  0.00    -0.285 N 
ATOM      9  H   UNL     1       9.040   4.088  23.425  0.00  0.00    +0.155 HD
ATOM     10  O   UNL     1      12.232   4.184  23.331  0.00  0.00    -0.275 OA
BRANCH   7  11
ATOM     11  C   UNL     1      10.720   5.977  23.727  0.00  0.00    +0.096 C 
BRANCH  11  12
ATOM     12  C   UNL     1       9.296   6.073  24.284  0.00  0.00    +0.020 C 
BRANCH  12  13
ATOM     13  C   UNL     1       8.355   6.834  23.369  0.00  0.00    +0.121 C 
BRANCH  13  14
ATOM     14  C   UNL     1       7.618   5.868  22.475  0.00  0.00    +0.305 C 
ATOM     15  O   UNL     1       7.242   4.765  22.833  0.00  0.00    -0.251 OA
BRANCH  14  16
ATOM     16  O   UNL     1       7.443   6.325  21.216  0.00  0.00    -0.481 OA
ATOM     17  H   UNL     1       8.185   6.861  20.876  0.00  0.00    +0.295 HD
ENDBRANCH  14  16
ENDBRANCH  13  14
ENDBRANCH  12  13
ENDBRANCH  11  12
ENDBRANCH   7  11
ENDBRANCH   1   8
BRANCH   4  18
ATOM     18  C   UNL     1       9.853  -2.030  22.773  0.00  0.00    +0.086 C 
BRANCH  18  19
ATOM     19  C   UNL     1       8.430  -2.517  23.055  0.00  0.00    +0.135 C 
BRANCH  19  20
ATOM     20  N   UNL     1       8.338  -3.782  23.906  0.00  0.00    +0.217 N 
ATOM     21  C   UNL     1       7.116  -3.647  24.806  0.00  0.00    +0.130 C 
ATOM     22  C   UNL     1       6.988  -4.785  25.809  0.00  0.00    +0.051 C 
ATOM     23  C   UNL     1       8.246  -4.899  26.661  0.00  0.00    +0.010 C 
ATOM     24  C   UNL     1       9.465  -5.078  25.769  0.00  0.00    +0.051 C 
ATOM     25  C   UNL     1       9.582  -3.936  24.768  0.00  0.00    +0.130 C 
ATOM     26  O   UNL     1       8.194  -4.867  23.082  0.00  0.00    -0.775 OA
ENDBRANCH  19  20
ENDBRANCH  18  19
ENDBRANCH   4  18
TORSDOF 9
ENDMDL
MODEL 4
REMARK VINA RESULT:      -6.8      1.359      2.472
REMARK  Name = 
REMARK  9 active torsions:
REMARK  status: ('A' for Active; 'I' for Inactive)
REMARK    1  A    between atoms: O_1  and  C_2
REMARK    2  A    between atoms: C_2  and  C_4
REMARK    3  A    between atoms: C_4  and  C_5
REMARK    4  A    between atoms: C_5  and  C_6
REMARK    5  A    between atoms: C_6  and  C_7
REMARK    6  A    between atoms: N_9  and  C_10
REMARK    7  A    between atoms: C_13  and  C_14
REMARK    8  A    between atoms: C_14  and  C_15
REMARK    9  A    between atoms: C_15  and  N_16
REMARK                            x       y       z     vdW  Elec       q    Type
REMARK                         _______ _______ _______ _____ _____    ______ ____
ROOT
ATOM      1  C   UNL     1       9.708   2.446  22.898  0.00  0.00    +0.033 A 
ATOM      2  C   UNL     1      10.450   1.788  23.885  0.00  0.00    +0.023 A 
ATOM      3  C   UNL     1      10.685   0.407  23.795  0.00  0.00    +0.005 A 
ATOM      4  C   UNL     1      10.194  -0.332  22.710  0.00  0.00    -0.042 A 
ATOM      5  C   UNL     1       9.498   0.342  21.705  0.00  0.00    +0.005 A 
ATOM      6  C   UNL     1       9.277   1.714  21.791  0.00  0.00    +0.023 A 
ENDROOT
BRANCH   1   8
ATOM      7  C   UNL     1       8.347   4.292  23.834  0.00  0.00    +0.217 C 
ATOM      8  N   UNL     1       9.398   3.816  23.069  0.00  0.00    -0.285 N 
ATOM      9  H   UNL     1      10.093   4.480  22.751  0.00  0.00    +0.155 HD
ATOM     10  O   UNL     1       7.537   3.607  24.456  0.00  0.00    -0.275 OA
BRANCH   7  11
ATOM     11  C   UNL     1       8.219   5.804  23.852  0.00  0.00    +0.096 C 
BRANCH  11  12
ATOM     12  C   UNL     1       9.578   6.425  23.519  0.00  0.00    +0.020 C 
BRANCH  12  13
ATOM     13  C   UNL     1      10.484   6.545  24.731  0.00  0.00    +0.121 C 
BRANCH  13  14
ATOM     14  C   UNL     1      11.878   6.091  24.373  0.00  0.00    +0.305 C 
ATOM     15  O   UNL     1      12.119   5.220  23.555  0.00  0.00    -0.251 OA
BRANCH  14  16
ATOM     16  O   UNL     1      12.846   6.717  25.079  0.00  0.00    -0.481 OA
ATOM     17  H   UNL     1      12.684   7.668  25.227  0.00  0.00    +0.295 HD
ENDBRANCH  14  16
ENDBRANCH  13  14
ENDBRANCH  12  13
ENDBRANCH  11  12
ENDBRANCH   7  11
ENDBRANCH   1   8
BRANCH   4  18
ATOM     18  C   UNL     1      10.341  -1.835  22.642  0.00  0.00    +0.086 C 
BRANCH  18  19
ATOM     19  C   UNL     1       9.854  -2.523  23.919  0.00  0.00    +0.135 C 
BRANCH  19  20
ATOM     20  N   UNL     1       8.390  -2.959  23.898  0.00  0.00    +0.217 N 
ATOM     21  C   UNL     1       8.307  -4.337  24.543  0.00  0.00    +0.130 C 
ATOM     22  C   UNL     1       6.916  -4.950  24.459  0.00  0.00    +0.051 C 
ATOM     23  C   UNL     1       6.445  -5.028  23.013  0.00  0.00    +0.010 C 
ATOM     24  C   UNL     1       6.483  -3.646  22.377  0.00  0.00    +0.051 C 
ATOM     25  C   UNL     1       7.879  -3.042  22.468  0.00  0.00    +0.130 C 
ATOM     26  O   UNL     1       7.646  -2.062  24.618  0.00  0.00    -0.775 OA
ENDBRANCH  19  20
ENDBRANCH  18  19
ENDBRANCH   4  18
TORSDOF 9
ENDMDL
MODEL 5
REMARK VINA RESULT:      -6.7      1.841      3.162
REMARK  Name = 
REMARK  9 active torsions:
REMARK  status: ('A' for Active; 'I' for Inactive)
REMARK    1  A    between atoms: O_1  and  C_2
REMARK    2  A    between atoms: C_2  and  C_4
REMARK    3  A    between atoms: C_4  and  C_5
REMARK    4  A    between atoms: C_5  and  C_6
REMARK    5  A    between atoms: C_6  and  C_7
REMARK    6  A    between atoms: N_9  and  C_10
REMARK    7  A    between atoms: C_13  and  C_14
REMARK    8  A    between atoms: C_14  and  C_15
REMARK    9  A    between atoms: C_15  and  N_16
REMARK                            x       y       z     vdW  Elec       q    Type
REMARK                         _______ _______ _______ _____ _____    ______ ____
ROOT
ATOM      1  C   UNL     1      10.156   1.811  23.481  0.00  0.00    +0.033 A 
ATOM      2  C   UNL     1      10.091   0.806  24.453  0.00  0.00    +0.023 A 
ATOM      3  C   UNL     1       9.765  -0.511  24.093  0.00  0.00    +0.005 A 
ATOM      4  C   UNL     1       9.515  -0.844  22.755  0.00  0.00    -0.042 A 
ATOM      5  C   UNL     1       9.632   0.155  21.786  0.00  0.00    +0.005 A 
ATOM      6  C   UNL     1       9.966   1.457  22.146  0.00  0.00    +0.023 A 
ENDROOT
BRANCH   1   8
ATOM      7  C   UNL     1       9.387   4.095  24.057  0.00  0.00    +0.217 C 
ATOM      8  N   UNL     1      10.383   3.148  23.888  0.00  0.00    -0.285 N 
ATOM      9  H   UNL     1      11.308   3.363  24.238  0.00  0.00    +0.155 HD
ATOM     10  O   UNL     1       8.184   3.920  23.871  0.00  0.00    -0.275 OA
BRANCH   7  11
ATOM     11  C   UNL     1       9.887   5.461  24.490  0.00  0.00    +0.096 C 
BRANCH  11  12
ATOM     12  C   UNL     1      10.859   5.994  23.434  0.00  0.00    +0.020 C 
BRANCH  12  13
ATOM     13  C   UNL     1      12.301   6.003  23.909  0.00  0.00    +0.121 C 
BRANCH  13  14
ATOM     14  C   UNL     1      13.199   5.460  22.826  0.00  0.00    +0.305 C 
ATOM     15  O   UNL     1      12.886   5.405  21.649  0.00  0.00    -0.251 OA
BRANCH  14  16
ATOM     16  O   UNL     1      14.382   4.998  23.288  0.00  0.00    -0.481 OA
ATOM     17  H   UNL     1      14.997   5.695  23.586  0.00  0.00    +0.295 HD
ENDBRANCH  14  16
ENDBRANCH  13  14
ENDBRANCH  12  13
ENDBRANCH  11  12
ENDBRANCH   7  11
ENDBRANCH   1   8
BRANCH   4  18
ATOM     18  C   UNL     1       9.060  -2.228  22.354  0.00  0.00    +0.086 C 
BRANCH  18  19
ATOM     19  C   UNL     1       7.542  -2.311  22.178  0.00  0.00    +0.135 C 
BRANCH  19  20
ATOM     20  N   UNL     1       6.900  -3.589  22.715  0.00  0.00    +0.217 N 
ATOM     21  C   UNL     1       5.389  -3.388  22.703  0.00  0.00    +0.130 C 
ATOM     22  C   UNL     1       4.632  -4.540  23.349  0.00  0.00    +0.051 C 
ATOM     23  C   UNL     1       5.110  -4.771  24.777  0.00  0.00    +0.010 C 
ATOM     24  C   UNL     1       6.612  -5.015  24.790  0.00  0.00    +0.051 C 
ATOM     25  C   UNL     1       7.360  -3.858  24.140  0.00  0.00    +0.130 C 
ATOM     26  O   UNL     1       7.238  -4.637  21.900  0.00  0.00    -0.775 OA
ENDBRANCH  19  20
ENDBRANCH  18  19
ENDBRANCH   4  18
TORSDOF 9
ENDMDL
MODEL 6
REMARK VINA RESULT:      -6.5      1.898      8.421
REMARK  Name = 
REMARK  9 active torsions:
REMARK  status: ('A' for Active; 'I' for Inactive)
REMARK    1  A    between atoms: O_1  and  C_2
REMARK    2  A    between atoms: C_2  and  C_4
REMARK    3  A    between atoms: C_4  and  C_5
REMARK    4  A    between atoms: C_5  and  C_6
REMARK    5  A    between atoms: C_6  and  C_7
REMARK    6  A    between atoms: N_9  and  C_10
REMARK    7  A    between atoms: C_13  and  C_14
REMARK    8  A    between atoms: C_14  and  C_15
REMARK    9  A    between atoms: C_15  and  N_16
REMARK                            x       y       z     vdW  Elec       q    Type
REMARK                         _______ _______ _______ _____ _____    ______ ____
ROOT
ATOM      1  C   UNL     1       8.786  -1.692  23.556  0.00  0.00    +0.033 A 
ATOM      2  C   UNL     1       8.938  -1.401  22.195  0.00  0.00    +0.023 A 
ATOM      3  C   UNL     1       9.448  -0.159  21.786  0.00  0.00    +0.005 A 
ATOM      4  C   UNL     1       9.827   0.804  22.732  0.00  0.00    -0.042 A 
ATOM      5  C   UNL     1       9.719   0.485  24.087  0.00  0.00    +0.005 A 
ATOM      6  C   UNL     1       9.224  -0.752  24.488  0.00  0.00    +0.023 A 
ENDROOT
BRANCH   1   8
ATOM      7  C   UNL     1       8.857  -4.024  24.388  0.00  0.00    +0.217 C 
ATOM      8  N   UNL     1       8.173  -2.909  23.935  0.00  0.00    -0.285 N 
ATOM      9  H   UNL     1       7.166  -2.894  24.041  0.00  0.00    +0.155 HD
ATOM     10  O   UNL     1      10.076  -4.122  24.514  0.00  0.00    -0.275 OA
BRANCH   7  11
ATOM     11  C   UNL     1       7.972  -5.210  24.722  0.00  0.00    +0.096 C 
BRANCH  11  12
ATOM     12  C   UNL     1       6.734  -5.179  23.823  0.00  0.00    +0.020 C 
BRANCH  12  13
ATOM     13  C   UNL     1       6.950  -5.884  22.495  0.00  0.00    +0.121 C 
BRANCH  13  14
ATOM     14  C   UNL     1       6.331  -5.077  21.381  0.00  0.00    +0.305 C 
ATOM     15  O   UNL     1       5.938  -5.559  20.333  0.00  0.00    -0.251 OA
BRANCH  14  16
ATOM     16  O   UNL     1       6.285  -3.752  21.638  0.00  0.00    -0.481 OA
ATOM     17  H   UNL     1       5.943  -3.524  22.523  0.00  0.00    +0.295 HD
ENDBRANCH  14  16
ENDBRANCH  13  14
ENDBRANCH  12  13
ENDBRANCH  11  12
ENDBRANCH   7  11
ENDBRANCH   1   8
BRANCH   4  18
ATOM     18  C   UNL     1      10.278   2.186  22.319  0.00  0.00    +0.086 C 
BRANCH  18  19
ATOM     19  C   UNL     1      10.479   3.113  23.520  0.00  0.00    +0.135 C 
BRANCH  19  20
ATOM     20  N   UNL     1       9.373   4.145  23.728  0.00  0.00    +0.217 N 
ATOM     21  C   UNL     1       8.318   3.918  22.652  0.00  0.00    +0.130 C 
ATOM     22  C   UNL     1       7.223   4.976  22.661  0.00  0.00    +0.051 C 
ATOM     23  C   UNL     1       7.816   6.371  22.515  0.00  0.00    +0.010 C 
ATOM     24  C   UNL     1       8.838   6.620  23.614  0.00  0.00    +0.051 C 
ATOM     25  C   UNL     1       9.928   5.556  23.597  0.00  0.00    +0.130 C 
ATOM     26  O   UNL     1       8.820   3.965  24.969  0.00  0.00    -0.775 OA
ENDBRANCH  19  20
ENDBRANCH  18  19
ENDBRANCH   4  18
TORSDOF 9
ENDMDL
MODEL 7
REMARK VINA RESULT:      -6.2      1.627      2.685
REMARK  Name = 
REMARK  9 active torsions:
REMARK  status: ('A' for Active; 'I' for Inactive)
REMARK    1  A    between atoms: O_1  and  C_2
REMARK    2  A    between atoms: C_2  and  C_4
REMARK    3  A    between atoms: C_4  and  C_5
REMARK    4  A    between atoms: C_5  and  C_6
REMARK    5  A    between atoms: C_6  and  C_7
REMARK    6  A    between atoms: N_9  and  C_10
REMARK    7  A    between atoms: C_13  and  C_14
REMARK    8  A    between atoms: C_14  and  C_15
REMARK    9  A    between atoms: C_15  and  N_16
REMARK                            x       y       z     vdW  Elec       q    Type
REMARK                         _______ _______ _______ _____ _____    ______ ____
ROOT
ATOM      1  C   UNL     1       9.139   1.962  22.549  0.00  0.00    +0.033 A 
ATOM      2  C   UNL     1       9.525   1.535  23.825  0.00  0.00    +0.023 A 
ATOM      3  C   UNL     1       9.848   0.189  24.058  0.00  0.00    +0.005 A 
ATOM      4  C   UNL     1       9.804  -0.746  23.015  0.00  0.00    -0.042 A 
ATOM      5  C   UNL     1       9.466  -0.301  21.735  0.00  0.00    +0.005 A 
ATOM      6  C   UNL     1       9.158   1.036  21.506  0.00  0.00    +0.023 A 
ENDROOT
BRANCH   1   8
ATOM      7  C   UNL     1       7.396   3.700  22.273  0.00  0.00    +0.217 C 
ATOM      8  N   UNL     1       8.718   3.301  22.369  0.00  0.00    -0.285 N 
ATOM      9  H   UNL     1       9.423   4.017  22.493  0.00  0.00    +0.155 HD
ATOM     10  O   UNL     1       6.413   2.963  22.317  0.00  0.00    -0.275 OA
BRANCH   7  11
ATOM     11  C   UNL     1       7.204   5.192  22.072  0.00  0.00    +0.096 C 
BRANCH  11  12
ATOM     12  C   UNL     1       7.441   5.910  23.404  0.00  0.00    +0.020 C 
BRANCH  12  13
ATOM     13  C   UNL     1       8.728   6.715  23.420  0.00  0.00    +0.121 C 
BRANCH  13  14
ATOM     14  C   UNL     1       9.745   6.037  24.303  0.00  0.00    +0.305 C 
ATOM     15  O   UNL     1      10.915   6.371  24.371  0.00  0.00    -0.251 OA
BRANCH  14  16
ATOM     16  O   UNL     1       9.245   4.987  24.992  0.00  0.00    -0.481 OA
ATOM     17  H   UNL     1       9.515   4.956  25.930  0.00  0.00    +0.295 HD
ENDBRANCH  14  16
ENDBRANCH  13  14
ENDBRANCH  12  13
ENDBRANCH  11  12
ENDBRANCH   7  11
ENDBRANCH   1   8
BRANCH   4  18
ATOM     18  C   UNL     1      10.043  -2.218  23.259  0.00  0.00    +0.086 C 
BRANCH  18  19
ATOM     19  C   UNL     1       9.377  -2.709  24.546  0.00  0.00    +0.135 C 
BRANCH  19  20
ATOM     20  N   UNL     1       8.585  -4.007  24.407  0.00  0.00    +0.217 N 
ATOM     21  C   UNL     1       7.909  -3.994  23.041  0.00  0.00    +0.130 C 
ATOM     22  C   UNL     1       6.970  -5.174  22.831  0.00  0.00    +0.051 C 
ATOM     23  C   UNL     1       5.915  -5.229  23.929  0.00  0.00    +0.010 C 
ATOM     24  C   UNL     1       6.586  -5.287  25.293  0.00  0.00    +0.051 C 
ATOM     25  C   UNL     1       7.523  -4.103  25.492  0.00  0.00    +0.130 C 
ATOM     26  O   UNL     1       9.447  -5.068  24.490  0.00  0.00    -0.775 OA
ENDBRANCH  19  20
ENDBRANCH  18  19
ENDBRANCH   4  18
TORSDOF 9
ENDMDL
MODEL 8
REMARK VINA RESULT:      -6.0      1.947      8.152
REMARK  Name = 
REMARK  9 active torsions:
REMARK  status: ('A' for Active; 'I' for Inactive)
REMARK    1  A    between atoms: O_1  and  C_2
REMARK    2  A    between atoms: C_2  and  C_4
REMARK    3  A    between atoms: C_4  and  C_5
REMARK    4  A    between atoms: C_5  and  C_6
REMARK    5  A    between atoms: C_6  and  C_7
REMARK    6  A    between atoms: N_9  and  C_10
REMARK    7  A    between atoms: C_13  and  C_14
REMARK    8  A    between atoms: C_14  and  C_15
REMARK    9  A    between atoms: C_15  and  N_16
REMARK                            x       y       z     vdW  Elec       q    Type
REMARK                         _______ _______ _______ _____ _____    ______ ____
ROOT
ATOM      1  C   UNL     1       9.003  -1.809  22.766  0.00  0.00    +0.033 A 
ATOM      2  C   UNL     1       9.374  -0.865  21.802  0.00  0.00    +0.023 A 
ATOM      3  C   UNL     1       9.964   0.349  22.186  0.00  0.00    +0.005 A 
ATOM      4  C   UNL     1      10.204   0.630  23.538  0.00  0.00    -0.042 A 
ATOM      5  C   UNL     1       9.876  -0.338  24.488  0.00  0.00    +0.005 A 
ATOM      6  C   UNL     1       9.302  -1.546  24.103  0.00  0.00    +0.023 A 
ENDROOT
BRANCH   1   8
ATOM      7  C   UNL     1       6.938  -3.094  22.296  0.00  0.00    +0.217 C 
ATOM      8  N   UNL     1       8.316  -2.977  22.357  0.00  0.00    -0.285 N 
ATOM      9  H   UNL     1       8.874  -3.701  21.923  0.00  0.00    +0.155 HD
ATOM     10  O   UNL     1       6.124  -2.221  22.594  0.00  0.00    -0.275 OA
BRANCH   7  11
ATOM     11  C   UNL     1       6.443  -4.453  21.835  0.00  0.00    +0.096 C 
BRANCH  11  12
ATOM     12  C   UNL     1       6.958  -5.525  22.800  0.00  0.00    +0.020 C 
BRANCH  12  13
ATOM     13  C   UNL     1       6.666  -5.200  24.254  0.00  0.00    +0.121 C 
BRANCH  13  14
ATOM     14  C   UNL     1       7.916  -5.381  25.078  0.00  0.00    +0.305 C 
ATOM     15  O   UNL     1       7.913  -5.710  26.252  0.00  0.00    -0.251 OA
BRANCH  14  16
ATOM     16  O   UNL     1       9.053  -5.104  24.402  0.00  0.00    -0.481 OA
ATOM     17  H   UNL     1       9.871  -5.360  24.868  0.00  0.00    +0.295 HD
ENDBRANCH  14  16
ENDBRANCH  13  14
ENDBRANCH  12  13
ENDBRANCH  11  12
ENDBRANCH   7  11
ENDBRANCH   1   8
BRANCH   4  18
ATOM     18  C   UNL     1      10.739   1.971  23.986  0.00  0.00    +0.086 C 
BRANCH  18  19
ATOM     19  C   UNL     1      10.272   3.114  23.081  0.00  0.00    +0.135 C 
BRANCH  19  20
ATOM     20  N   UNL     1       8.962   3.775  23.503  0.00  0.00    +0.217 N 
ATOM     21  C   UNL     1       8.622   3.280  24.903  0.00  0.00    +0.130 C 
ATOM     22  C   UNL     1       7.260   3.756  25.388  0.00  0.00    +0.051 C 
ATOM     23  C   UNL     1       6.163   3.344  24.415  0.00  0.00    +0.010 C 
ATOM     24  C   UNL     1       6.475   3.874  23.023  0.00  0.00    +0.051 C 
ATOM     25  C   UNL     1       7.840   3.392  22.548  0.00  0.00    +0.130 C 
ATOM     26  O   UNL     1       9.130   5.134  23.517  0.00  0.00    -0.775 OA
ENDBRANCH  19  20
ENDBRANCH  18  19
ENDBRANCH   4  18
TORSDOF 9
ENDMDL
MODEL 9
REMARK VINA RESULT:      -5.9      2.970      9.128
REMARK  Name = 
REMARK  9 active torsions:
REMARK  status: ('A' for Active; 'I' for Inactive)
REMARK    1  A    between atoms: O_1  and  C_2
REMARK    2  A    between atoms: C_2  and  C_4
REMARK    3  A    between atoms: C_4  and  C_5
REMARK    4  A    between atoms: C_5  and  C_6
REMARK    5  A    between atoms: C_6  and  C_7
REMARK    6  A    between atoms: N_9  and  C_10
REMARK    7  A    between atoms: C_13  and  C_14
REMARK    8  A    between atoms: C_14  and  C_15
REMARK    9  A    between atoms: C_15  and  N_16
REMARK                            x       y       z     vdW  Elec       q    Type
REMARK                         _______ _______ _______ _____ _____    ______ ____
ROOT
ATOM      1  C   UNL     1       7.139  -3.819  24.157  0.00  0.00    +0.033 A 
ATOM      2  C   UNL     1       6.881  -3.063  23.008  0.00  0.00    +0.023 A 
ATOM      3  C   UNL     1       7.904  -2.311  22.407  0.00  0.00    +0.005 A 
ATOM      4  C   UNL     1       9.200  -2.317  22.939  0.00  0.00    -0.042 A 
ATOM      5  C   UNL     1       9.459  -3.114  24.056  0.00  0.00    +0.005 A 
ATOM      6  C   UNL     1       8.446  -3.867  24.642  0.00  0.00    +0.023 A 
ENDROOT
BRANCH   1   8
ATOM      7  C   UNL     1       5.408  -5.587  24.288  0.00  0.00    +0.217 C 
ATOM      8  N   UNL     1       6.066  -4.481  24.800  0.00  0.00    -0.285 N 
ATOM      9  H   UNL     1       5.892  -4.230  25.765  0.00  0.00    +0.155 HD
ATOM     10  O   UNL     1       5.648  -6.138  23.215  0.00  0.00    -0.275 OA
BRANCH   7  11
ATOM     11  C   UNL     1       4.284  -6.108  25.163  0.00  0.00    +0.096 C 
BRANCH  11  12
ATOM     12  C   UNL     1       4.883  -6.913  26.320  0.00  0.00    +0.020 C 
BRANCH  12  13
ATOM     13  C   UNL     1       4.745  -6.212  27.659  0.00  0.00    +0.121 C 
BRANCH  13  14
ATOM     14  C   UNL     1       6.111  -5.871  28.200  0.00  0.00    +0.305 C 
ATOM     15  O   UNL     1       6.309  -5.445  29.325  0.00  0.00    -0.251 OA
BRANCH  14  16
ATOM     16  O   UNL     1       7.105  -6.044  27.301  0.00  0.00    -0.481 OA
ATOM     17  H   UNL     1       7.115  -6.923  26.877  0.00  0.00    +0.295 HD
ENDBRANCH  14  16
ENDBRANCH  13  14
ENDBRANCH  12  13
ENDBRANCH  11  12
ENDBRANCH   7  11
ENDBRANCH   1   8
BRANCH   4  18
ATOM     18  C   UNL     1      10.292  -1.436  22.376  0.00  0.00    +0.086 C 
BRANCH  18  19
ATOM     19  C   UNL     1       9.785  -0.034  22.029  0.00  0.00    +0.135 C 
BRANCH  19  20
ATOM     20  N   UNL     1       9.968   1.008  23.130  0.00  0.00    +0.217 N 
ATOM     21  C   UNL     1       8.631   1.168  23.844  0.00  0.00    +0.130 C 
ATOM     22  C   UNL     1       8.639   2.286  24.878  0.00  0.00    +0.051 C 
ATOM     23  C   UNL     1       9.046   3.609  24.242  0.00  0.00    +0.010 C 
ATOM     24  C   UNL     1      10.402   3.467  23.565  0.00  0.00    +0.051 C 
ATOM     25  C   UNL     1      10.383   2.345  22.535  0.00  0.00    +0.130 C 
ATOM     26  O   UNL     1      10.918   0.566  24.012  0.00  0.00    -0.775 OA
ENDBRANCH  19  20
ENDBRANCH  18  19
ENDBRANCH   4  18
TORSDOF 9
ENDMDL
