MODEL 1
REMARK VINA RESULT:      -4.4      0.000      0.000
REMARK  Name = 
REMARK  9 active torsions:
REMARK  status: ('A' for Active; 'I' for Inactive)
REMARK    1  A    between atoms: N_1  and  C_2
REMARK    2  A    between atoms: C_2  and  C_4
REMARK    3  A    between atoms: C_2  and  C_10
REMARK    4  A    between atoms: C_4  and  S_5
REMARK    5  A    between atoms: S_5  and  S_6
REMARK    6  A    between atoms: S_6  and  C_7
REMARK    7  A    between atoms: C_7  and  C_8
REMARK    8  A    between atoms: C_8  and  O_9
REMARK    9  A    between atoms: C_10  and  O_11
REMARK                            x       y       z     vdW  Elec       q    Type
REMARK                         _______ _______ _______ _____ _____    ______ ____
ROOT
ATOM      1  C   UNK     1       9.148  -4.563  25.515  0.00  0.00    +0.171 C 
ENDROOT
BRANCH   1   2
ATOM      2  N   UNK     1      10.232  -5.590  25.368  0.00  0.00    -0.318 NA
ATOM      3  H   UNK     1      11.114  -5.098  25.175  0.00  0.00    +0.119 HD
ATOM      4  H   UNK     1      10.393  -5.983  26.304  0.00  0.00    +0.119 HD
ENDBRANCH   1   2
BRANCH   1   5
ATOM      5  C   UNK     1       7.899  -5.247  26.093  0.00  0.00    +0.323 C 
ATOM      6  O   UNK     1       6.827  -5.348  25.520  0.00  0.00    -0.249 OA
BRANCH   5   7
ATOM      7  O   UNK     1       8.132  -5.729  27.339  0.00  0.00    -0.480 OA
ATOM      8  H   UNK     1       7.613  -6.571  27.407  0.00  0.00    +0.295 HD
ENDBRANCH   5   7
ENDBRANCH   1   5
BRANCH   1   9
ATOM      9  C   UNK     1       8.752  -3.897  24.196  0.00  0.00    +0.111 C 
BRANCH   9  10
ATOM     10  S   UNK     1       9.618  -2.308  23.953  0.00  0.00    -0.091 S 
BRANCH  10  11
ATOM     11  S   UNK     1       8.378  -1.372  22.603  0.00  0.00    -0.091 S 
BRANCH  11  12
ATOM     12  C   UNK     1       9.571  -0.394  21.620  0.00  0.00    +0.108 C 
BRANCH  12  13
ATOM     13  C   UNK     1       9.977   0.878  22.356  0.00  0.00    +0.167 C 
BRANCH  13  14
ATOM     14  O   UNK     1      10.027   1.998  21.479  0.00  0.00    -0.394 OA
ATOM     15  H   UNK     1      10.581   1.736  20.721  0.00  0.00    +0.209 HD
ENDBRANCH  13  14
ENDBRANCH  12  13
ENDBRANCH  11  12
ENDBRANCH  10  11
ENDBRANCH   9  10
ENDBRANCH   1   9
TORSDOF 9
ENDMDL
MODEL 2
REMARK VINA RESULT:      -4.3      3.203      3.369
REMARK  Name = 
REMARK  9 active torsions:
REMARK  status: ('A' for Active; 'I' for Inactive)
REMARK    1  A    between atoms: N_1  and  C_2
REMARK    2  A    between atoms: C_2  and  C_4
REMARK    3  A    between atoms: C_2  and  C_10
REMARK    4  A    between atoms: C_4  and  S_5
REMARK    5  A    between atoms: S_5  and  S_6
REMARK    6  A    between atoms: S_6  and  C_7
REMARK    7  A    between atoms: C_7  and  C_8
REMARK    8  A    between atoms: C_8  and  O_9
REMARK    9  A    between atoms: C_10  and  O_11
REMARK                            x       y       z     vdW  Elec       q    Type
REMARK                         _______ _______ _______ _____ _____    ______ ____
ROOT
ATOM      1  C   UNK     1       9.038  -4.515  25.914  0.00  0.00    +0.171 C 
ENDROOT
BRANCH   1   2
ATOM      2  N   UNK     1       9.886  -5.344  24.995  0.00  0.00    -0.318 NA
ATOM      3  H   UNK     1      10.050  -6.254  25.445  0.00  0.00    +0.119 HD
ATOM      4  H   UNK     1       9.294  -5.592  24.193  0.00  0.00    +0.119 HD
ENDBRANCH   1   2
BRANCH   1   5
ATOM      5  C   UNK     1       7.802  -5.335  26.316  0.00  0.00    +0.323 C 
ATOM      6  O   UNK     1       6.810  -5.491  25.625  0.00  0.00    -0.249 OA
BRANCH   5   7
ATOM      7  O   UNK     1       7.946  -5.869  27.555  0.00  0.00    -0.480 OA
ATOM      8  H   UNK     1       7.993  -5.099  28.178  0.00  0.00    +0.295 HD
ENDBRANCH   5   7
ENDBRANCH   1   5
BRANCH   1   9
ATOM      9  C   UNK     1       8.552  -3.207  25.284  0.00  0.00    +0.111 C 
BRANCH   9  10
ATOM     10  S   UNK     1       9.688  -2.619  23.982  0.00  0.00    -0.091 S 
BRANCH  10  11
ATOM     11  S   UNK     1       8.376  -2.226  22.446  0.00  0.00    -0.091 S 
BRANCH  11  12
ATOM     12  C   UNK     1       6.979  -3.331  22.860  0.00  0.00    +0.108 C 
BRANCH  12  13
ATOM     13  C   UNK     1       7.061  -4.637  22.077  0.00  0.00    +0.167 C 
BRANCH  13  14
ATOM     14  O   UNK     1       7.715  -5.657  22.825  0.00  0.00    -0.394 OA
ATOM     15  H   UNK     1       7.017  -6.249  23.161  0.00  0.00    +0.209 HD
ENDBRANCH  13  14
ENDBRANCH  12  13
ENDBRANCH  11  12
ENDBRANCH  10  11
ENDBRANCH   9  10
ENDBRANCH   1   9
TORSDOF 9
ENDMDL
MODEL 3
REMARK VINA RESULT:      -4.3      2.294      2.520
REMARK  Name = 
REMARK  9 active torsions:
REMARK  status: ('A' for Active; 'I' for Inactive)
REMARK    1  A    between atoms: N_1  and  C_2
REMARK    2  A    between atoms: C_2  and  C_4
REMARK    3  A    between atoms: C_2  and  C_10
REMARK    4  A    between atoms: C_4  and  S_5
REMARK    5  A    between atoms: S_5  and  S_6
REMARK    6  A    between atoms: S_6  and  C_7
REMARK    7  A    between atoms: C_7  and  C_8
REMARK    8  A    between atoms: C_8  and  O_9
REMARK    9  A    between atoms: C_10  and  O_11
REMARK                            x       y       z     vdW  Elec       q    Type
REMARK                         _______ _______ _______ _____ _____    ______ ____
ROOT
ATOM      1  C   UNK     1       8.068  -4.751  26.028  0.00  0.00    +0.171 C 
ENDROOT
BRANCH   1   2
ATOM      2  N   UNK     1       8.161  -5.640  27.233  0.00  0.00    -0.318 NA
ATOM      3  H   UNK     1       8.142  -6.616  26.912  0.00  0.00    +0.119 HD
ATOM      4  H   UNK     1       9.116  -5.540  27.598  0.00  0.00    +0.119 HD
ENDBRANCH   1   2
BRANCH   1   5
ATOM      5  C   UNK     1       8.998  -5.303  24.937  0.00  0.00    +0.323 C 
ATOM      6  O   UNK     1       8.671  -5.520  23.781  0.00  0.00    -0.249 OA
BRANCH   5   7
ATOM      7  O   UNK     1      10.245  -5.532  25.420  0.00  0.00    -0.480 OA
ATOM      8  H   UNK     1      10.851  -5.485  24.637  0.00  0.00    +0.295 HD
ENDBRANCH   5   7
ENDBRANCH   1   5
BRANCH   1   9
ATOM      9  C   UNK     1       8.475  -3.301  26.304  0.00  0.00    +0.111 C 
BRANCH   9  10
ATOM     10  S   UNK     1       7.979  -2.188  24.944  0.00  0.00    -0.091 S 
BRANCH  10  11
ATOM     11  S   UNK     1       9.169  -0.548  25.307  0.00  0.00    -0.091 S 
BRANCH  11  12
ATOM     12  C   UNK     1      10.216  -0.511  23.808  0.00  0.00    +0.108 C 
BRANCH  12  13
ATOM     13  C   UNK     1      10.136  -1.832  23.050  0.00  0.00    +0.167 C 
BRANCH  13  14
ATOM     14  O   UNK     1      10.143  -1.629  21.640  0.00  0.00    -0.394 OA
ATOM     15  H   UNK     1       9.358  -2.086  21.288  0.00  0.00    +0.209 HD
ENDBRANCH  13  14
ENDBRANCH  12  13
ENDBRANCH  11  12
ENDBRANCH  10  11
ENDBRANCH   9  10
ENDBRANCH   1   9
TORSDOF 9
ENDMDL
MODEL 4
REMARK VINA RESULT:      -4.1      2.210      6.598
REMARK  Name = 
REMARK  9 active torsions:
REMARK  status: ('A' for Active; 'I' for Inactive)
REMARK    1  A    between atoms: N_1  and  C_2
REMARK    2  A    between atoms: C_2  and  C_4
REMARK    3  A    between atoms: C_2  and  C_10
REMARK    4  A    between atoms: C_4  and  S_5
REMARK    5  A    between atoms: S_5  and  S_6
REMARK    6  A    between atoms: S_6  and  C_7
REMARK    7  A    between atoms: C_7  and  C_8
REMARK    8  A    between atoms: C_8  and  O_9
REMARK    9  A    between atoms: C_10  and  O_11
REMARK                            x       y       z     vdW  Elec       q    Type
REMARK                         _______ _______ _______ _____ _____    ______ ____
ROOT
ATOM      1  C   UNK     1       9.126  -0.076  22.301  0.00  0.00    +0.171 C 
ENDROOT
BRANCH   1   2
ATOM      2  N   UNK     1       9.857  -0.991  21.364  0.00  0.00    -0.318 NA
ATOM      3  H   UNK     1       9.614  -0.724  20.402  0.00  0.00    +0.119 HD
ATOM      4  H   UNK     1      10.851  -0.740  21.424  0.00  0.00    +0.119 HD
ENDBRANCH   1   2
BRANCH   1   5
ATOM      5  C   UNK     1       9.992   1.170  22.545  0.00  0.00    +0.323 C 
ATOM      6  O   UNK     1      10.647   1.383  23.551  0.00  0.00    -0.249 OA
BRANCH   5   7
ATOM      7  O   UNK     1       9.934   2.025  21.493  0.00  0.00    -0.480 OA
ATOM      8  H   UNK     1       9.692   2.908  21.873  0.00  0.00    +0.295 HD
ENDBRANCH   5   7
ENDBRANCH   1   5
BRANCH   1   9
ATOM      9  C   UNK     1       8.819  -0.709  23.660  0.00  0.00    +0.111 C 
BRANCH   9  10
ATOM     10  S   UNK     1       9.705  -2.290  23.886  0.00  0.00    -0.091 S 
BRANCH  10  11
ATOM     11  S   UNK     1       8.152  -3.639  23.814  0.00  0.00    -0.091 S 
BRANCH  11  12
ATOM     12  C   UNK     1       8.835  -5.041  24.770  0.00  0.00    +0.108 C 
BRANCH  12  13
ATOM     13  C   UNK     1       8.841  -4.735  26.264  0.00  0.00    +0.167 C 
BRANCH  13  14
ATOM     14  O   UNK     1       8.222  -5.775  27.015  0.00  0.00    -0.394 OA
ATOM     15  H   UNK     1       8.020  -6.492  26.386  0.00  0.00    +0.209 HD
ENDBRANCH  13  14
ENDBRANCH  12  13
ENDBRANCH  11  12
ENDBRANCH  10  11
ENDBRANCH   9  10
ENDBRANCH   1   9
TORSDOF 9
ENDMDL
MODEL 5
REMARK VINA RESULT:      -4.1      3.673      3.961
REMARK  Name = 
REMARK  9 active torsions:
REMARK  status: ('A' for Active; 'I' for Inactive)
REMARK    1  A    between atoms: N_1  and  C_2
REMARK    2  A    between atoms: C_2  and  C_4
REMARK    3  A    between atoms: C_2  and  C_10
REMARK    4  A    between atoms: C_4  and  S_5
REMARK    5  A    between atoms: S_5  and  S_6
REMARK    6  A    between atoms: S_6  and  C_7
REMARK    7  A    between atoms: C_7  and  C_8
REMARK    8  A    between atoms: C_8  and  O_9
REMARK    9  A    between atoms: C_10  and  O_11
REMARK                            x       y       z     vdW  Elec       q    Type
REMARK                         _______ _______ _______ _____ _____    ______ ____
ROOT
ATOM      1  C   UNK     1       8.049  -4.873  26.079  0.00  0.00    +0.171 C 
ENDROOT
BRANCH   1   2
ATOM      2  N   UNK     1       7.932  -5.731  27.304  0.00  0.00    -0.318 NA
ATOM      3  H   UNK     1       7.481  -5.176  28.042  0.00  0.00    +0.119 HD
ATOM      4  H   UNK     1       7.224  -6.446  27.095  0.00  0.00    +0.119 HD
ENDBRANCH   1   2
BRANCH   1   5
ATOM      5  C   UNK     1       9.194  -5.413  25.208  0.00  0.00    +0.323 C 
ATOM      6  O   UNK     1       9.082  -5.775  24.049  0.00  0.00    -0.249 OA
BRANCH   5   7
ATOM      7  O   UNK     1      10.363  -5.446  25.895  0.00  0.00    -0.480 OA
ATOM      8  H   UNK     1      10.319  -4.696  26.541  0.00  0.00    +0.295 HD
ENDBRANCH   5   7
ENDBRANCH   1   5
BRANCH   1   9
ATOM      9  C   UNK     1       8.346  -3.403  26.388  0.00  0.00    +0.111 C 
BRANCH   9  10
ATOM     10  S   UNK     1       8.271  -2.368  24.886  0.00  0.00    -0.091 S 
BRANCH  10  11
ATOM     11  S   UNK     1       6.515  -3.019  24.030  0.00  0.00    -0.091 S 
BRANCH  11  12
ATOM     12  C   UNK     1       7.066  -3.459  22.343  0.00  0.00    +0.108 C 
BRANCH  12  13
ATOM     13  C   UNK     1       6.391  -4.738  21.861  0.00  0.00    +0.167 C 
BRANCH  13  14
ATOM     14  O   UNK     1       7.334  -5.787  21.665  0.00  0.00    -0.394 OA
ATOM     15  H   UNK     1       7.698  -6.004  22.543  0.00  0.00    +0.209 HD
ENDBRANCH  13  14
ENDBRANCH  12  13
ENDBRANCH  11  12
ENDBRANCH  10  11
ENDBRANCH   9  10
ENDBRANCH   1   9
TORSDOF 9
ENDMDL
MODEL 6
REMARK VINA RESULT:      -4.0      4.735      6.565
REMARK  Name = 
REMARK  9 active torsions:
REMARK  status: ('A' for Active; 'I' for Inactive)
REMARK    1  A    between atoms: N_1  and  C_2
REMARK    2  A    between atoms: C_2  and  C_4
REMARK    3  A    between atoms: C_2  and  C_10
REMARK    4  A    between atoms: C_4  and  S_5
REMARK    5  A    between atoms: S_5  and  S_6
REMARK    6  A    between atoms: S_6  and  C_7
REMARK    7  A    between atoms: C_7  and  C_8
REMARK    8  A    between atoms: C_8  and  O_9
REMARK    9  A    between atoms: C_10  and  O_11
REMARK                            x       y       z     vdW  Elec       q    Type
REMARK                         _______ _______ _______ _____ _____    ______ ____
ROOT
ATOM      1  C   UNK     1       9.011   1.931  22.824  0.00  0.00    +0.171 C 
ENDROOT
BRANCH   1   2
ATOM      2  N   UNK     1       9.865   2.016  21.594  0.00  0.00    -0.318 NA
ATOM      3  H   UNK     1      10.749   1.528  21.784  0.00  0.00    +0.119 HD
ATOM      4  H   UNK     1       9.423   1.416  20.887  0.00  0.00    +0.119 HD
ENDBRANCH   1   2
BRANCH   1   5
ATOM      5  C   UNK     1       7.927   3.017  22.745  0.00  0.00    +0.323 C 
ATOM      6  O   UNK     1       6.729   2.822  22.871  0.00  0.00    -0.249 OA
BRANCH   5   7
ATOM      7  O   UNK     1       8.468   4.239  22.509  0.00  0.00    -0.480 OA
ATOM      8  H   UNK     1       8.221   4.469  21.577  0.00  0.00    +0.295 HD
ENDBRANCH   5   7
ENDBRANCH   1   5
BRANCH   1   9
ATOM      9  C   UNK     1       9.789   2.137  24.126  0.00  0.00    +0.111 C 
BRANCH   9  10
ATOM     10  S   UNK     1      10.830   0.691  24.528  0.00  0.00    -0.091 S 
BRANCH  10  11
ATOM     11  S   UNK     1       9.418  -0.802  24.655  0.00  0.00    -0.091 S 
BRANCH  11  12
ATOM     12  C   UNK     1       9.956  -1.935  23.324  0.00  0.00    +0.108 C 
BRANCH  12  13
ATOM     13  C   UNK     1       9.102  -1.757  22.074  0.00  0.00    +0.167 C 
BRANCH  13  14
ATOM     14  O   UNK     1       9.784  -1.005  21.075  0.00  0.00    -0.394 OA
ATOM     15  H   UNK     1       9.290  -1.130  20.244  0.00  0.00    +0.209 HD
ENDBRANCH  13  14
ENDBRANCH  12  13
ENDBRANCH  11  12
ENDBRANCH  10  11
ENDBRANCH   9  10
ENDBRANCH   1   9
TORSDOF 9
ENDMDL
MODEL 7
REMARK VINA RESULT:      -4.0      3.220      6.415
REMARK  Name = 
REMARK  9 active torsions:
REMARK  status: ('A' for Active; 'I' for Inactive)
REMARK    1  A    between atoms: N_1  and  C_2
REMARK    2  A    between atoms: C_2  and  C_4
REMARK    3  A    between atoms: C_2  and  C_10
REMARK    4  A    between atoms: C_4  and  S_5
REMARK    5  A    between atoms: S_5  and  S_6
REMARK    6  A    between atoms: S_6  and  C_7
REMARK    7  A    between atoms: C_7  and  C_8
REMARK    8  A    between atoms: C_8  and  O_9
REMARK    9  A    between atoms: C_10  and  O_11
REMARK                            x       y       z     vdW  Elec       q    Type
REMARK                         _______ _______ _______ _____ _____    ______ ____
ROOT
ATOM      1  C   UNK     1       9.568   1.266  22.645  0.00  0.00    +0.171 C 
ENDROOT
BRANCH   1   2
ATOM      2  N   UNK     1      10.217   2.340  21.823  0.00  0.00    -0.318 NA
ATOM      3  H   UNK     1      10.419   1.953  20.893  0.00  0.00    +0.119 HD
ATOM      4  H   UNK     1       9.490   3.038  21.625  0.00  0.00    +0.119 HD
ENDBRANCH   1   2
BRANCH   1   5
ATOM      5  C   UNK     1      10.194   1.275  24.049  0.00  0.00    +0.323 C 
ATOM      6  O   UNK     1      11.283   0.805  24.334  0.00  0.00    -0.249 OA
BRANCH   5   7
ATOM      7  O   UNK     1       9.375   1.872  24.950  0.00  0.00    -0.480 OA
ATOM      8  H   UNK     1       8.817   2.507  24.432  0.00  0.00    +0.295 HD
ENDBRANCH   5   7
ENDBRANCH   1   5
BRANCH   1   9
ATOM      9  C   UNK     1       9.739  -0.139  22.063  0.00  0.00    +0.111 C 
BRANCH   9  10
ATOM     10  S   UNK     1       8.535  -1.316  22.769  0.00  0.00    -0.091 S 
BRANCH  10  11
ATOM     11  S   UNK     1       9.766  -2.541  23.875  0.00  0.00    -0.091 S 
BRANCH  11  12
ATOM     12  C   UNK     1       8.554  -3.494  24.858  0.00  0.00    +0.108 C 
BRANCH  12  13
ATOM     13  C   UNK     1       8.579  -4.971  24.479  0.00  0.00    +0.167 C 
BRANCH  13  14
ATOM     14  O   UNK     1       9.815  -5.583  24.833  0.00  0.00    -0.394 OA
ATOM     15  H   UNK     1      10.198  -5.938  24.010  0.00  0.00    +0.209 HD
ENDBRANCH  13  14
ENDBRANCH  12  13
ENDBRANCH  11  12
ENDBRANCH  10  11
ENDBRANCH   9  10
ENDBRANCH   1   9
TORSDOF 9
ENDMDL
MODEL 8
REMARK VINA RESULT:      -4.0      4.708      6.424
REMARK  Name = 
REMARK  9 active torsions:
REMARK  status: ('A' for Active; 'I' for Inactive)
REMARK    1  A    between atoms: N_1  and  C_2
REMARK    2  A    between atoms: C_2  and  C_4
REMARK    3  A    between atoms: C_2  and  C_10
REMARK    4  A    between atoms: C_4  and  S_5
REMARK    5  A    between atoms: S_5  and  S_6
REMARK    6  A    between atoms: S_6  and  C_7
REMARK    7  A    between atoms: C_7  and  C_8
REMARK    8  A    between atoms: C_8  and  O_9
REMARK    9  A    between atoms: C_10  and  O_11
REMARK                            x       y       z     vdW  Elec       q    Type
REMARK                         _______ _______ _______ _____ _____    ______ ____
ROOT
ATOM      1  C   UNK     1       8.313   2.430  22.555  0.00  0.00    +0.171 C 
ENDROOT
BRANCH   1   2
ATOM      2  N   UNK     1       8.023   1.745  21.253  0.00  0.00    -0.318 NA
ATOM      3  H   UNK     1       8.904   1.665  20.730  0.00  0.00    +0.119 HD
ATOM      4  H   UNK     1       7.805   0.766  21.478  0.00  0.00    +0.119 HD
ENDBRANCH   1   2
BRANCH   1   5
ATOM      5  C   UNK     1       9.828   2.393  22.803  0.00  0.00    +0.323 C 
ATOM      6  O   UNK     1      10.362   2.463  23.898  0.00  0.00    -0.249 OA
BRANCH   5   7
ATOM      7  O   UNK     1      10.516   2.277  21.639  0.00  0.00    -0.480 OA
ATOM      8  H   UNK     1      10.944   1.383  21.665  0.00  0.00    +0.295 HD
ENDBRANCH   5   7
ENDBRANCH   1   5
BRANCH   1   9
ATOM      9  C   UNK     1       7.623   1.779  23.757  0.00  0.00    +0.111 C 
BRANCH   9  10
ATOM     10  S   UNK     1       7.340  -0.005  23.490  0.00  0.00    -0.091 S 
BRANCH  10  11
ATOM     11  S   UNK     1       8.868  -0.828  24.597  0.00  0.00    -0.091 S 
BRANCH  11  12
ATOM     12  C   UNK     1       9.727  -1.846  23.344  0.00  0.00    +0.108 C 
BRANCH  12  13
ATOM     13  C   UNK     1       9.131  -1.628  21.957  0.00  0.00    +0.167 C 
BRANCH  13  14
ATOM     14  O   UNK     1       9.904  -0.709  21.192  0.00  0.00    -0.394 OA
ATOM     15  H   UNK     1       9.473   0.161  21.281  0.00  0.00    +0.209 HD
ENDBRANCH  13  14
ENDBRANCH  12  13
ENDBRANCH  11  12
ENDBRANCH  10  11
ENDBRANCH   9  10
ENDBRANCH   1   9
TORSDOF 9
ENDMDL
MODEL 9
REMARK VINA RESULT:      -3.9      3.921      5.907
REMARK  Name = 
REMARK  9 active torsions:
REMARK  status: ('A' for Active; 'I' for Inactive)
REMARK    1  A    between atoms: N_1  and  C_2
REMARK    2  A    between atoms: C_2  and  C_4
REMARK    3  A    between atoms: C_2  and  C_10
REMARK    4  A    between atoms: C_4  and  S_5
REMARK    5  A    between atoms: S_5  and  S_6
REMARK    6  A    between atoms: S_6  and  C_7
REMARK    7  A    between atoms: C_7  and  C_8
REMARK    8  A    between atoms: C_8  and  O_9
REMARK    9  A    between atoms: C_10  and  O_11
REMARK                            x       y       z     vdW  Elec       q    Type
REMARK                         _______ _______ _______ _____ _____    ______ ____
ROOT
ATOM      1  C   UNK     1       8.065  -5.034  25.825  0.00  0.00    +0.171 C 
ENDROOT
BRANCH   1   2
ATOM      2  N   UNK     1       8.179  -5.687  27.170  0.00  0.00    -0.318 NA
ATOM      3  H   UNK     1       8.058  -6.700  27.046  0.00  0.00    +0.119 HD
ATOM      4  H   UNK     1       9.164  -5.610  27.452  0.00  0.00    +0.119 HD
ENDBRANCH   1   2
BRANCH   1   5
ATOM      5  C   UNK     1       9.477  -4.841  25.251  0.00  0.00    +0.323 C 
ATOM      6  O   UNK     1       9.807  -3.953  24.483  0.00  0.00    -0.249 OA
BRANCH   5   7
ATOM      7  O   UNK     1      10.328  -5.797  25.703  0.00  0.00    -0.480 OA
ATOM      8  H   UNK     1       9.794  -6.629  25.763  0.00  0.00    +0.295 HD
ENDBRANCH   5   7
ENDBRANCH   1   5
BRANCH   1   9
ATOM      9  C   UNK     1       7.382  -3.665  25.865  0.00  0.00    +0.111 C 
BRANCH   9  10
ATOM     10  S   UNK     1       6.096  -3.512  24.577  0.00  0.00    -0.091 S 
BRANCH  10  11
ATOM     11  S   UNK     1       5.719  -5.488  24.144  0.00  0.00    -0.091 S 
BRANCH  11  12
ATOM     12  C   UNK     1       4.139  -5.766  25.022  0.00  0.00    +0.108 C 
BRANCH  12  13
ATOM     13  C   UNK     1       4.230  -6.975  25.947  0.00  0.00    +0.167 C 
BRANCH  13  14
ATOM     14  O   UNK     1       5.366  -6.898  26.802  0.00  0.00    -0.394 OA
ATOM     15  H   UNK     1       5.513  -7.795  27.153  0.00  0.00    +0.209 HD
ENDBRANCH  13  14
ENDBRANCH  12  13
ENDBRANCH  11  12
ENDBRANCH  10  11
ENDBRANCH   9  10
ENDBRANCH   1   9
TORSDOF 9
ENDMDL
