MODEL 1
REMARK VINA RESULT:      -6.3      0.000      0.000
REMARK  Name = 
REMARK  8 active torsions:
REMARK  status: ('A' for Active; 'I' for Inactive)
REMARK    1  A    between atoms: CA_2  and  N_3
REMARK    2  A    between atoms: CA_2  and  C_11
REMARK    3  A    between atoms: CA_2  and  C_14
REMARK    4  A    between atoms: C_4  and  C_6
REMARK    5  A    between atoms: C_6  and  C_7
REMARK    6  A    between atoms: C_7  and  C_8
REMARK    7  A    between atoms: C_8  and  O_9
REMARK    8  A    between atoms: C_11  and  O_12
REMARK                            x       y       z     vdW  Elec       q    Type
REMARK                         _______ _______ _______ _____ _____    ______ ____
ROOT
ATOM      1  CA  UNL     1       8.724  -4.334  24.296  0.00  0.00    +0.212 C 
ENDROOT
BRANCH   1   2
ATOM      2  C   UNL     1       7.431  -4.904  23.725  0.00  0.00    -0.017 A 
ATOM      3  C   UNL     1       6.274  -4.908  24.530  0.00  0.00    +0.006 A 
ATOM      4  C   UNL     1       5.068  -5.439  24.061  0.00  0.00    +0.000 A 
ATOM      5  C   UNL     1       4.994  -5.970  22.779  0.00  0.00    +0.000 A 
ATOM      6  C   UNL     1       6.117  -5.954  21.958  0.00  0.00    +0.000 A 
ATOM      7  C   UNL     1       7.323  -5.416  22.422  0.00  0.00    +0.006 A 
ENDBRANCH   1   2
BRANCH   1   8
ATOM      8  N   UNL     1       8.700  -2.868  24.412  0.00  0.00    -0.299 N 
ATOM      9  H   UNL     1       7.878  -2.460  24.840  0.00  0.00    +0.150 HD
ATOM     10  C   UNL     1       9.595  -2.061  23.776  0.00  0.00    +0.214 C 
ATOM     11  O   UNL     1      10.482  -2.491  23.037  0.00  0.00    -0.276 OA
BRANCH  10  12
ATOM     12  C   UNL     1       9.504  -0.586  24.061  0.00  0.00    +0.107 C 
BRANCH  12  13
ATOM     13  C   UNL     1      10.443   0.188  23.153  0.00  0.00    +0.129 C 
BRANCH  13  14
ATOM     14  C   UNL     1       9.879   0.862  21.918  0.00  0.00    +0.305 C 
ATOM     15  O   UNL     1       9.135   0.251  21.158  0.00  0.00    -0.251 OA
BRANCH  14  16
ATOM     16  O   UNL     1      10.212   2.139  21.673  0.00  0.00    -0.481 OA
ATOM     17  H   UNL     1      10.787   2.341  20.904  0.00  0.00    +0.295 HD
ENDBRANCH  14  16
ENDBRANCH  13  14
ENDBRANCH  12  13
ENDBRANCH  10  12
ENDBRANCH   1   8
BRANCH   1  18
ATOM     18  C   UNL     1       9.247  -4.963  25.601  0.00  0.00    +0.330 C 
ATOM     19  OXT UNL     1       9.098  -4.452  26.707  0.00  0.00    -0.249 OA
BRANCH  18  20
ATOM     20  O   UNL     1       9.870  -6.160  25.457  0.00  0.00    -0.479 OA
ATOM     21  H   UNL     1       9.350  -6.794  24.900  0.00  0.00    +0.295 HD
ENDBRANCH  18  20
ENDBRANCH   1  18
TORSDOF 8
ENDMDL
MODEL 2
REMARK VINA RESULT:      -5.8      2.502      5.415
REMARK  Name = 
REMARK  8 active torsions:
REMARK  status: ('A' for Active; 'I' for Inactive)
REMARK    1  A    between atoms: CA_2  and  N_3
REMARK    2  A    between atoms: CA_2  and  C_11
REMARK    3  A    between atoms: CA_2  and  C_14
REMARK    4  A    between atoms: C_4  and  C_6
REMARK    5  A    between atoms: C_6  and  C_7
REMARK    6  A    between atoms: C_7  and  C_8
REMARK    7  A    between atoms: C_8  and  O_9
REMARK    8  A    between atoms: C_11  and  O_12
REMARK                            x       y       z     vdW  Elec       q    Type
REMARK                         _______ _______ _______ _____ _____    ______ ____
ROOT
ATOM      1  CA  UNL     1       8.324  -3.617  24.866  0.00  0.00    +0.212 C 
ENDROOT
BRANCH   1   2
ATOM      2  C   UNL     1       8.922  -2.435  24.111  0.00  0.00    -0.017 A 
ATOM      3  C   UNL     1       8.780  -2.379  22.710  0.00  0.00    +0.006 A 
ATOM      4  C   UNL     1       9.328  -1.327  21.969  0.00  0.00    +0.000 A 
ATOM      5  C   UNL     1      10.023  -0.310  22.614  0.00  0.00    +0.000 A 
ATOM      6  C   UNL     1      10.154  -0.333  23.998  0.00  0.00    +0.000 A 
ATOM      7  C   UNL     1       9.599  -1.379  24.743  0.00  0.00    +0.006 A 
ENDBRANCH   1   2
BRANCH   1   8
ATOM      8  N   UNL     1       7.392  -4.405  24.046  0.00  0.00    -0.299 N 
ATOM      9  H   UNL     1       7.478  -4.309  23.042  0.00  0.00    +0.150 HD
ATOM     10  C   UNL     1       6.308  -5.046  24.568  0.00  0.00    +0.214 C 
ATOM     11  O   UNL     1       6.009  -4.999  25.762  0.00  0.00    -0.276 OA
BRANCH  10  12
ATOM     12  C   UNL     1       5.496  -5.889  23.622  0.00  0.00    +0.107 C 
BRANCH  12  13
ATOM     13  C   UNL     1       6.267  -6.135  22.337  0.00  0.00    +0.129 C 
BRANCH  13  14
ATOM     14  C   UNL     1       5.998  -5.248  21.138  0.00  0.00    +0.305 C 
ATOM     15  O   UNL     1       5.990  -5.716  20.004  0.00  0.00    -0.251 OA
BRANCH  14  16
ATOM     16  O   UNL     1       5.772  -3.941  21.342  0.00  0.00    -0.481 OA
ATOM     17  H   UNL     1       6.175  -3.288  20.730  0.00  0.00    +0.295 HD
ENDBRANCH  14  16
ENDBRANCH  13  14
ENDBRANCH  12  13
ENDBRANCH  10  12
ENDBRANCH   1   8
BRANCH   1  18
ATOM     18  C   UNL     1       9.310  -4.548  25.597  0.00  0.00    +0.330 C 
ATOM     19  OXT UNL     1      10.332  -4.990  25.083  0.00  0.00    -0.249 OA
BRANCH  18  20
ATOM     20  O   UNL     1       8.990  -4.832  26.884  0.00  0.00    -0.479 OA
ATOM     21  H   UNL     1       9.663  -4.491  27.527  0.00  0.00    +0.295 HD
ENDBRANCH  18  20
ENDBRANCH   1  18
TORSDOF 8
ENDMDL
MODEL 3
REMARK VINA RESULT:      -5.7      2.289      3.317
REMARK  Name = 
REMARK  8 active torsions:
REMARK  status: ('A' for Active; 'I' for Inactive)
REMARK    1  A    between atoms: CA_2  and  N_3
REMARK    2  A    between atoms: CA_2  and  C_11
REMARK    3  A    between atoms: CA_2  and  C_14
REMARK    4  A    between atoms: C_4  and  C_6
REMARK    5  A    between atoms: C_6  and  C_7
REMARK    6  A    between atoms: C_7  and  C_8
REMARK    7  A    between atoms: C_8  and  O_9
REMARK    8  A    between atoms: C_11  and  O_12
REMARK                            x       y       z     vdW  Elec       q    Type
REMARK                         _______ _______ _______ _____ _____    ______ ____
ROOT
ATOM      1  CA  UNL     1       7.162  -3.642  22.879  0.00  0.00    +0.212 C 
ENDROOT
BRANCH   1   2
ATOM      2  C   UNL     1       7.450  -4.198  24.269  0.00  0.00    -0.017 A 
ATOM      3  C   UNL     1       6.381  -4.701  25.037  0.00  0.00    +0.006 A 
ATOM      4  C   UNL     1       6.589  -5.203  26.325  0.00  0.00    +0.000 A 
ATOM      5  C   UNL     1       7.868  -5.216  26.869  0.00  0.00    +0.000 A 
ATOM      6  C   UNL     1       8.942  -4.747  26.119  0.00  0.00    +0.000 A 
ATOM      7  C   UNL     1       8.738  -4.253  24.826  0.00  0.00    +0.006 A 
ENDBRANCH   1   2
BRANCH   1   8
ATOM      8  N   UNL     1       8.267  -2.831  22.348  0.00  0.00    -0.299 N 
ATOM      9  H   UNL     1       9.131  -3.319  22.145  0.00  0.00    +0.150 HD
ATOM     10  C   UNL     1       8.249  -1.468  22.343  0.00  0.00    +0.214 C 
ATOM     11  O   UNL     1       7.318  -0.806  22.804  0.00  0.00    -0.276 OA
BRANCH  10  12
ATOM     12  C   UNL     1       9.411  -0.775  21.684  0.00  0.00    +0.107 C 
BRANCH  12  13
ATOM     13  C   UNL     1      10.143   0.101  22.686  0.00  0.00    +0.129 C 
BRANCH  13  14
ATOM     14  C   UNL     1       9.904   1.597  22.666  0.00  0.00    +0.305 C 
ATOM     15  O   UNL     1       9.419   2.165  23.639  0.00  0.00    -0.251 OA
BRANCH  14  16
ATOM     16  O   UNL     1      10.230   2.287  21.562  0.00  0.00    -0.481 OA
ATOM     17  H   UNL     1      10.153   3.266  21.573  0.00  0.00    +0.295 HD
ENDBRANCH  14  16
ENDBRANCH  13  14
ENDBRANCH  12  13
ENDBRANCH  10  12
ENDBRANCH   1   8
BRANCH   1  18
ATOM     18  C   UNL     1       6.676  -4.644  21.815  0.00  0.00    +0.330 C 
ATOM     19  OXT UNL     1       5.788  -4.395  21.006  0.00  0.00    -0.249 OA
BRANCH  18  20
ATOM     20  O   UNL     1       7.324  -5.836  21.803  0.00  0.00    -0.479 OA
ATOM     21  H   UNL     1       6.840  -6.537  22.310  0.00  0.00    +0.295 HD
ENDBRANCH  18  20
ENDBRANCH   1  18
TORSDOF 8
ENDMDL
MODEL 4
REMARK VINA RESULT:      -5.6      2.574      3.880
REMARK  Name = 
REMARK  8 active torsions:
REMARK  status: ('A' for Active; 'I' for Inactive)
REMARK    1  A    between atoms: CA_2  and  N_3
REMARK    2  A    between atoms: CA_2  and  C_11
REMARK    3  A    between atoms: CA_2  and  C_14
REMARK    4  A    between atoms: C_4  and  C_6
REMARK    5  A    between atoms: C_6  and  C_7
REMARK    6  A    between atoms: C_7  and  C_8
REMARK    7  A    between atoms: C_8  and  O_9
REMARK    8  A    between atoms: C_11  and  O_12
REMARK                            x       y       z     vdW  Elec       q    Type
REMARK                         _______ _______ _______ _____ _____    ______ ____
ROOT
ATOM      1  CA  UNL     1       8.508  -1.442  23.150  0.00  0.00    +0.212 C 
ENDROOT
BRANCH   1   2
ATOM      2  C   UNL     1       8.385  -2.657  24.061  0.00  0.00    -0.017 A 
ATOM      3  C   UNL     1       8.619  -2.500  25.442  0.00  0.00    +0.006 A 
ATOM      4  C   UNL     1       8.540  -3.587  26.318  0.00  0.00    +0.000 A 
ATOM      5  C   UNL     1       8.220  -4.850  25.832  0.00  0.00    +0.000 A 
ATOM      6  C   UNL     1       7.961  -5.023  24.476  0.00  0.00    +0.000 A 
ATOM      7  C   UNL     1       8.031  -3.935  23.599  0.00  0.00    +0.006 A 
ENDBRANCH   1   2
BRANCH   1   8
ATOM      8  N   UNL     1       8.408  -0.168  23.879  0.00  0.00    -0.299 N 
ATOM      9  H   UNL     1       8.684  -0.180  24.853  0.00  0.00    +0.150 HD
ATOM     10  C   UNL     1       7.758   0.921  23.380  0.00  0.00    +0.214 C 
ATOM     11  O   UNL     1       7.185   0.921  22.289  0.00  0.00    -0.276 OA
BRANCH  10  12
ATOM     12  C   UNL     1       7.816   2.182  24.199  0.00  0.00    +0.107 C 
BRANCH  12  13
ATOM     13  C   UNL     1       8.769   3.181  23.566  0.00  0.00    +0.129 C 
BRANCH  13  14
ATOM     14  C   UNL     1      10.066   2.679  22.963  0.00  0.00    +0.305 C 
ATOM     15  O   UNL     1      11.094   2.651  23.631  0.00  0.00    -0.251 OA
BRANCH  14  16
ATOM     16  O   UNL     1      10.066   2.268  21.686  0.00  0.00    -0.481 OA
ATOM     17  H   UNL     1       9.294   2.482  21.118  0.00  0.00    +0.295 HD
ENDBRANCH  14  16
ENDBRANCH  13  14
ENDBRANCH  12  13
ENDBRANCH  10  12
ENDBRANCH   1   8
BRANCH   1  18
ATOM     18  C   UNL     1       9.710  -1.411  22.187  0.00  0.00    +0.330 C 
ATOM     19  OXT UNL     1      10.779  -1.966  22.420  0.00  0.00    -0.249 OA
BRANCH  18  20
ATOM     20  O   UNL     1       9.503  -0.745  21.024  0.00  0.00    -0.479 OA
ATOM     21  H   UNL     1       9.752  -1.281  20.229  0.00  0.00    +0.295 HD
ENDBRANCH  18  20
ENDBRANCH   1  18
TORSDOF 8
ENDMDL
MODEL 5
REMARK VINA RESULT:      -5.6      1.740      2.345
REMARK  Name = 
REMARK  8 active torsions:
REMARK  status: ('A' for Active; 'I' for Inactive)
REMARK    1  A    between atoms: CA_2  and  N_3
REMARK    2  A    between atoms: CA_2  and  C_11
REMARK    3  A    between atoms: CA_2  and  C_14
REMARK    4  A    between atoms: C_4  and  C_6
REMARK    5  A    between atoms: C_6  and  C_7
REMARK    6  A    between atoms: C_7  and  C_8
REMARK    7  A    between atoms: C_8  and  O_9
REMARK    8  A    between atoms: C_11  and  O_12
REMARK                            x       y       z     vdW  Elec       q    Type
REMARK                         _______ _______ _______ _____ _____    ______ ____
ROOT
ATOM      1  CA  UNL     1       8.792  -4.348  24.377  0.00  0.00    +0.212 C 
ENDROOT
BRANCH   1   2
ATOM      2  C   UNL     1       7.503  -4.890  23.771  0.00  0.00    -0.017 A 
ATOM      3  C   UNL     1       6.327  -4.877  24.548  0.00  0.00    +0.006 A 
ATOM      4  C   UNL     1       5.123  -5.382  24.046  0.00  0.00    +0.000 A 
ATOM      5  C   UNL     1       5.070  -5.903  22.759  0.00  0.00    +0.000 A 
ATOM      6  C   UNL     1       6.212  -5.903  21.966  0.00  0.00    +0.000 A 
ATOM      7  C   UNL     1       7.416  -5.391  22.461  0.00  0.00    +0.006 A 
ENDBRANCH   1   2
BRANCH   1   8
ATOM      8  N   UNL     1       8.797  -2.882  24.492  0.00  0.00    -0.299 N 
ATOM      9  H   UNL     1       8.002  -2.461  24.959  0.00  0.00    +0.150 HD
ATOM     10  C   UNL     1       9.674  -2.089  23.815  0.00  0.00    +0.214 C 
ATOM     11  O   UNL     1      10.517  -2.533  23.034  0.00  0.00    -0.276 OA
BRANCH  10  12
ATOM     12  C   UNL     1       9.620  -0.613  24.103  0.00  0.00    +0.107 C 
BRANCH  12  13
ATOM     13  C   UNL     1       8.322  -0.260  24.808  0.00  0.00    +0.129 C 
BRANCH  13  14
ATOM     14  C   UNL     1       8.339  -0.029  26.306  0.00  0.00    +0.305 C 
ATOM     15  O   UNL     1       8.780  -0.886  27.065  0.00  0.00    -0.251 OA
BRANCH  14  16
ATOM     16  O   UNL     1       7.862   1.131  26.785  0.00  0.00    -0.481 OA
ATOM     17  H   UNL     1       7.341   1.122  27.617  0.00  0.00    +0.295 HD
ENDBRANCH  14  16
ENDBRANCH  13  14
ENDBRANCH  12  13
ENDBRANCH  10  12
ENDBRANCH   1   8
BRANCH   1  18
ATOM     18  C   UNL     1       9.266  -4.989  25.695  0.00  0.00    +0.330 C 
ATOM     19  OXT UNL     1       9.084  -4.483  26.797  0.00  0.00    -0.249 OA
BRANCH  18  20
ATOM     20  O   UNL     1       9.884  -6.190  25.565  0.00  0.00    -0.479 OA
ATOM     21  H   UNL     1      10.869  -6.122  25.651  0.00  0.00    +0.295 HD
ENDBRANCH  18  20
ENDBRANCH   1  18
TORSDOF 8
ENDMDL
MODEL 6
REMARK VINA RESULT:      -5.6      2.054      6.887
REMARK  Name = 
REMARK  8 active torsions:
REMARK  status: ('A' for Active; 'I' for Inactive)
REMARK    1  A    between atoms: CA_2  and  N_3
REMARK    2  A    between atoms: CA_2  and  C_11
REMARK    3  A    between atoms: CA_2  and  C_14
REMARK    4  A    between atoms: C_4  and  C_6
REMARK    5  A    between atoms: C_6  and  C_7
REMARK    6  A    between atoms: C_7  and  C_8
REMARK    7  A    between atoms: C_8  and  O_9
REMARK    8  A    between atoms: C_11  and  O_12
REMARK                            x       y       z     vdW  Elec       q    Type
REMARK                         _______ _______ _______ _____ _____    ______ ____
ROOT
ATOM      1  CA  UNL     1       9.434  -0.396  23.378  0.00  0.00    +0.212 C 
ENDROOT
BRANCH   1   2
ATOM      2  C   UNL     1       9.125   1.004  23.893  0.00  0.00    -0.017 A 
ATOM      3  C   UNL     1      10.025   2.050  23.607  0.00  0.00    +0.006 A 
ATOM      4  C   UNL     1       9.798   3.348  24.074  0.00  0.00    +0.000 A 
ATOM      5  C   UNL     1       8.666   3.628  24.831  0.00  0.00    +0.000 A 
ATOM      6  C   UNL     1       7.752   2.617  25.105  0.00  0.00    +0.000 A 
ATOM      7  C   UNL     1       7.971   1.318  24.632  0.00  0.00    +0.006 A 
ENDBRANCH   1   2
BRANCH   1   8
ATOM      8  N   UNL     1       8.465  -1.402  23.840  0.00  0.00    -0.299 N 
ATOM      9  H   UNL     1       7.560  -1.057  24.136  0.00  0.00    +0.150 HD
ATOM     10  C   UNL     1       8.808  -2.695  24.099  0.00  0.00    +0.214 C 
ATOM     11  O   UNL     1       9.958  -3.121  23.990  0.00  0.00    -0.276 OA
BRANCH  10  12
ATOM     12  C   UNL     1       7.692  -3.632  24.477  0.00  0.00    +0.107 C 
BRANCH  12  13
ATOM     13  C   UNL     1       8.254  -4.969  24.929  0.00  0.00    +0.129 C 
BRANCH  13  14
ATOM     14  C   UNL     1       8.363  -5.254  26.414  0.00  0.00    +0.305 C 
ATOM     15  O   UNL     1       7.472  -5.861  27.000  0.00  0.00    -0.251 OA
BRANCH  14  16
ATOM     16  O   UNL     1       9.452  -4.829  27.073  0.00  0.00    -0.481 OA
ATOM     17  H   UNL     1       9.837  -3.956  26.841  0.00  0.00    +0.295 HD
ENDBRANCH  14  16
ENDBRANCH  13  14
ENDBRANCH  12  13
ENDBRANCH  10  12
ENDBRANCH   1   8
BRANCH   1  18
ATOM     18  C   UNL     1       9.676  -0.545  21.865  0.00  0.00    +0.330 C 
ATOM     19  OXT UNL     1       9.225   0.231  21.028  0.00  0.00    -0.249 OA
BRANCH  18  20
ATOM     20  O   UNL     1      10.462  -1.590  21.504  0.00  0.00    -0.479 OA
ATOM     21  H   UNL     1       9.940  -2.349  21.137  0.00  0.00    +0.295 HD
ENDBRANCH  18  20
ENDBRANCH   1  18
TORSDOF 8
ENDMDL
MODEL 7
REMARK VINA RESULT:      -5.6      1.772      2.180
REMARK  Name = 
REMARK  8 active torsions:
REMARK  status: ('A' for Active; 'I' for Inactive)
REMARK    1  A    between atoms: CA_2  and  N_3
REMARK    2  A    between atoms: CA_2  and  C_11
REMARK    3  A    between atoms: CA_2  and  C_14
REMARK    4  A    between atoms: C_4  and  C_6
REMARK    5  A    between atoms: C_6  and  C_7
REMARK    6  A    between atoms: C_7  and  C_8
REMARK    7  A    between atoms: C_8  and  O_9
REMARK    8  A    between atoms: C_11  and  O_12
REMARK                            x       y       z     vdW  Elec       q    Type
REMARK                         _______ _______ _______ _____ _____    ______ ____
ROOT
ATOM      1  CA  UNL     1       8.970  -3.948  24.307  0.00  0.00    +0.212 C 
ENDROOT
BRANCH   1   2
ATOM      2  C   UNL     1       7.598  -4.294  23.742  0.00  0.00    -0.017 A 
ATOM      3  C   UNL     1       7.460  -5.449  22.945  0.00  0.00    +0.006 A 
ATOM      4  C   UNL     1       6.227  -5.799  22.386  0.00  0.00    +0.000 A 
ATOM      5  C   UNL     1       5.109  -5.006  22.615  0.00  0.00    +0.000 A 
ATOM      6  C   UNL     1       5.216  -3.876  23.419  0.00  0.00    +0.000 A 
ATOM      7  C   UNL     1       6.446  -3.528  23.987  0.00  0.00    +0.006 A 
ENDBRANCH   1   2
BRANCH   1   8
ATOM      8  N   UNL     1       9.180  -2.500  24.453  0.00  0.00    -0.299 N 
ATOM      9  H   UNL     1       8.557  -2.014  25.086  0.00  0.00    +0.150 HD
ATOM     10  C   UNL     1       9.989  -1.782  23.624  0.00  0.00    +0.214 C 
ATOM     11  O   UNL     1      10.591  -2.282  22.673  0.00  0.00    -0.276 OA
BRANCH  10  12
ATOM     12  C   UNL     1      10.177  -0.325  23.951  0.00  0.00    +0.107 C 
BRANCH  12  13
ATOM     13  C   UNL     1       9.486   0.016  25.260  0.00  0.00    +0.129 C 
BRANCH  13  14
ATOM     14  C   UNL     1       8.396   1.069  25.262  0.00  0.00    +0.305 C 
ATOM     15  O   UNL     1       7.973   1.531  24.207  0.00  0.00    -0.251 OA
BRANCH  14  16
ATOM     16  O   UNL     1       7.904   1.486  26.439  0.00  0.00    -0.481 OA
ATOM     17  H   UNL     1       8.078   0.949  27.242  0.00  0.00    +0.295 HD
ENDBRANCH  14  16
ENDBRANCH  13  14
ENDBRANCH  12  13
ENDBRANCH  10  12
ENDBRANCH   1   8
BRANCH   1  18
ATOM     18  C   UNL     1       9.400  -4.682  25.591  0.00  0.00    +0.330 C 
ATOM     19  OXT UNL     1       8.962  -4.411  26.704  0.00  0.00    -0.249 OA
BRANCH  18  20
ATOM     20  O   UNL     1      10.290  -5.690  25.411  0.00  0.00    -0.479 OA
ATOM     21  H   UNL     1      10.202  -6.402  26.095  0.00  0.00    +0.295 HD
ENDBRANCH  18  20
ENDBRANCH   1  18
TORSDOF 8
ENDMDL
MODEL 8
REMARK VINA RESULT:      -5.4      2.802      6.483
REMARK  Name = 
REMARK  8 active torsions:
REMARK  status: ('A' for Active; 'I' for Inactive)
REMARK    1  A    between atoms: CA_2  and  N_3
REMARK    2  A    between atoms: CA_2  and  C_11
REMARK    3  A    between atoms: CA_2  and  C_14
REMARK    4  A    between atoms: C_4  and  C_6
REMARK    5  A    between atoms: C_6  and  C_7
REMARK    6  A    between atoms: C_7  and  C_8
REMARK    7  A    between atoms: C_8  and  O_9
REMARK    8  A    between atoms: C_11  and  O_12
REMARK                            x       y       z     vdW  Elec       q    Type
REMARK                         _______ _______ _______ _____ _____    ______ ____
ROOT
ATOM      1  CA  UNL     1       8.048  -0.678  24.876  0.00  0.00    +0.212 C 
ENDROOT
BRANCH   1   2
ATOM      2  C   UNL     1       8.798   0.254  23.932  0.00  0.00    -0.017 A 
ATOM      3  C   UNL     1       8.556   0.161  22.547  0.00  0.00    +0.006 A 
ATOM      4  C   UNL     1       9.233   0.978  21.637  0.00  0.00    +0.000 A 
ATOM      5  C   UNL     1      10.161   1.907  22.093  0.00  0.00    +0.000 A 
ATOM      6  C   UNL     1      10.398   2.034  23.458  0.00  0.00    +0.000 A 
ATOM      7  C   UNL     1       9.715   1.223  24.371  0.00  0.00    +0.006 A 
ENDBRANCH   1   2
BRANCH   1   8
ATOM      8  N   UNL     1       8.375  -2.095  24.659  0.00  0.00    -0.299 N 
ATOM      9  H   UNL     1       9.358  -2.336  24.639  0.00  0.00    +0.150 HD
ATOM     10  C   UNL     1       7.451  -3.015  24.262  0.00  0.00    +0.214 C 
ATOM     11  O   UNL     1       6.275  -2.731  24.031  0.00  0.00    -0.276 OA
BRANCH  10  12
ATOM     12  C   UNL     1       7.911  -4.445  24.169  0.00  0.00    +0.107 C 
BRANCH  12  13
ATOM     13  C   UNL     1       7.397  -5.244  25.354  0.00  0.00    +0.129 C 
BRANCH  13  14
ATOM     14  C   UNL     1       8.062  -5.065  26.704  0.00  0.00    +0.305 C 
ATOM     15  O   UNL     1       8.846  -4.141  26.896  0.00  0.00    -0.251 OA
BRANCH  14  16
ATOM     16  O   UNL     1       7.777  -5.937  27.683  0.00  0.00    -0.481 OA
ATOM     17  H   UNL     1       8.372  -6.706  27.822  0.00  0.00    +0.295 HD
ENDBRANCH  14  16
ENDBRANCH  13  14
ENDBRANCH  12  13
ENDBRANCH  10  12
ENDBRANCH   1   8
BRANCH   1  18
ATOM     18  C   UNL     1       8.104  -0.341  26.378  0.00  0.00    +0.330 C 
ATOM     19  OXT UNL     1       7.388   0.500  26.910  0.00  0.00    -0.249 OA
BRANCH  18  20
ATOM     20  O   UNL     1       8.991  -1.070  27.101  0.00  0.00    -0.479 OA
ATOM     21  H   UNL     1       9.906  -0.691  27.072  0.00  0.00    +0.295 HD
ENDBRANCH  18  20
ENDBRANCH   1  18
TORSDOF 8
ENDMDL
MODEL 9
REMARK VINA RESULT:      -5.4      2.701      6.514
REMARK  Name = 
REMARK  8 active torsions:
REMARK  status: ('A' for Active; 'I' for Inactive)
REMARK    1  A    between atoms: CA_2  and  N_3
REMARK    2  A    between atoms: CA_2  and  C_11
REMARK    3  A    between atoms: CA_2  and  C_14
REMARK    4  A    between atoms: C_4  and  C_6
REMARK    5  A    between atoms: C_6  and  C_7
REMARK    6  A    between atoms: C_7  and  C_8
REMARK    7  A    between atoms: C_8  and  O_9
REMARK    8  A    between atoms: C_11  and  O_12
REMARK                            x       y       z     vdW  Elec       q    Type
REMARK                         _______ _______ _______ _____ _____    ______ ____
ROOT
ATOM      1  CA  UNL     1       8.651  -1.069  23.314  0.00  0.00    +0.212 C 
ENDROOT
BRANCH   1   2
ATOM      2  C   UNL     1       8.723   0.451  23.235  0.00  0.00    -0.017 A 
ATOM      3  C   UNL     1       9.448   1.151  24.221  0.00  0.00    +0.006 A 
ATOM      4  C   UNL     1       9.527   2.547  24.206  0.00  0.00    +0.000 A 
ATOM      5  C   UNL     1       8.887   3.269  23.205  0.00  0.00    +0.000 A 
ATOM      6  C   UNL     1       8.187   2.598  22.209  0.00  0.00    +0.000 A 
ATOM      7  C   UNL     1       8.114   1.201  22.216  0.00  0.00    +0.006 A 
ENDBRANCH   1   2
BRANCH   1   8
ATOM      8  N   UNL     1       7.443  -1.618  22.681  0.00  0.00    -0.299 N 
ATOM      9  H   UNL     1       7.072  -1.105  21.890  0.00  0.00    +0.150 HD
ATOM     10  C   UNL     1       6.700  -2.613  23.243  0.00  0.00    +0.214 C 
ATOM     11  O   UNL     1       6.967  -3.117  24.335  0.00  0.00    -0.276 OA
BRANCH  10  12
ATOM     12  C   UNL     1       5.542  -3.135  22.437  0.00  0.00    +0.107 C 
BRANCH  12  13
ATOM     13  C   UNL     1       6.024  -4.148  21.413  0.00  0.00    +0.129 C 
BRANCH  13  14
ATOM     14  C   UNL     1       5.984  -5.622  21.762  0.00  0.00    +0.305 C 
ATOM     15  O   UNL     1       7.023  -6.269  21.858  0.00  0.00    -0.251 OA
BRANCH  14  16
ATOM     16  O   UNL     1       4.793  -6.205  21.963  0.00  0.00    -0.481 OA
ATOM     17  H   UNL     1       4.627  -7.093  21.579  0.00  0.00    +0.295 HD
ENDBRANCH  14  16
ENDBRANCH  13  14
ENDBRANCH  12  13
ENDBRANCH  10  12
ENDBRANCH   1   8
BRANCH   1  18
ATOM     18  C   UNL     1       9.896  -1.850  22.852  0.00  0.00    +0.330 C 
ATOM     19  OXT UNL     1      10.454  -2.701  23.538  0.00  0.00    -0.249 OA
BRANCH  18  20
ATOM     20  O   UNL     1      10.332  -1.558  21.601  0.00  0.00    -0.479 OA
ATOM     21  H   UNL     1      11.174  -2.026  21.373  0.00  0.00    +0.295 HD
ENDBRANCH  18  20
ENDBRANCH   1  18
TORSDOF 8
ENDMDL
