MODEL 1
REMARK VINA RESULT:      -5.1      0.000      0.000
REMARK  Name = 
REMARK  7 active torsions:
REMARK  status: ('A' for Active; 'I' for Inactive)
REMARK    1  A    between atoms: C_1  and  N_2
REMARK    2  A    between atoms: N_2  and  C_3
REMARK    3  A    between atoms: N_5  and  C_6
REMARK    4  A    between atoms: C_12  and  C_13
REMARK    5  A    between atoms: C_13  and  C_14
REMARK    6  A    between atoms: C_14  and  C_15
REMARK    7  A    between atoms: C_15  and  O_16
REMARK                            x       y       z     vdW  Elec       q    Type
REMARK                         _______ _______ _______ _____ _____    ______ ____
ROOT
ATOM      1  C   UNL     1       7.276  -1.110  24.579  0.00  0.00    +0.092 A 
ATOM      2  C   UNL     1       8.084  -0.641  23.491  0.00  0.00    +0.044 A 
ATOM      3  I   UNL     1       9.800  -1.850  22.992  0.00  0.00    -0.041 I 
ATOM      4  C   UNL     1       7.846   0.599  22.817  0.00  0.00    -0.019 A 
ATOM      5  C   UNL     1       6.749   1.361  23.285  0.00  0.00    +0.019 A 
ATOM      6  I   UNL     1       6.187   3.277  22.553  0.00  0.00    -0.043 I 
ATOM      7  C   UNL     1       5.962   0.931  24.361  0.00  0.00    +0.031 A 
ATOM      8  C   UNL     1       6.238  -0.268  25.018  0.00  0.00    +0.041 A 
ATOM      9  I   UNL     1       5.072  -0.600  26.761  0.00  0.00    -0.042 I 
ENDROOT
BRANCH   1  13
ATOM     10  C   UNL     1       5.970  -5.574  25.519  0.00  0.00    +0.129 C 
ATOM     11  N   UNL     1       7.082  -4.637  25.526  0.00  0.00    -0.327 N 
ATOM     12  C   UNL     1       6.942  -3.392  24.957  0.00  0.00    +0.184 C 
ATOM     13  N   UNL     1       7.612  -2.324  25.243  0.00  0.00    -0.238 NA
ATOM     14  C   UNL     1       8.239  -4.956  26.344  0.00  0.00    +0.129 C 
ENDBRANCH   1  13
BRANCH   4  15
ATOM     15  C   UNL     1       8.769   1.165  21.742  0.00  0.00    +0.048 C 
BRANCH  15  16
ATOM     16  C   UNL     1      10.076   1.876  22.112  0.00  0.00    +0.125 C 
BRANCH  16  17
ATOM     17  C   UNL     1      10.181   2.350  23.539  0.00  0.00    +0.305 C 
ATOM     18  O   UNL     1       9.705   3.373  23.996  0.00  0.00    -0.251 OA
BRANCH  17  19
ATOM     19  O   UNL     1      10.888   1.481  24.307  0.00  0.00    -0.481 OA
ATOM     20  H   UNL     1      11.279   1.882  25.106  0.00  0.00    +0.295 HD
ENDBRANCH  17  19
ENDBRANCH  16  17
ENDBRANCH  15  16
ENDBRANCH   4  15
TORSDOF 5
ENDMDL
MODEL 2
REMARK VINA RESULT:      -5.0      3.669      6.622
REMARK  Name = 
REMARK  7 active torsions:
REMARK  status: ('A' for Active; 'I' for Inactive)
REMARK    1  A    between atoms: C_1  and  N_2
REMARK    2  A    between atoms: N_2  and  C_3
REMARK    3  A    between atoms: N_5  and  C_6
REMARK    4  A    between atoms: C_12  and  C_13
REMARK    5  A    between atoms: C_13  and  C_14
REMARK    6  A    between atoms: C_14  and  C_15
REMARK    7  A    between atoms: C_15  and  O_16
REMARK                            x       y       z     vdW  Elec       q    Type
REMARK                         _______ _______ _______ _____ _____    ______ ____
ROOT
ATOM      1  C   UNL     1       7.271  -1.229  24.110  0.00  0.00    +0.092 A 
ATOM      2  C   UNL     1       6.407  -2.179  24.750  0.00  0.00    +0.044 A 
ATOM      3  I   UNL     1       5.523  -1.552  26.615  0.00  0.00    -0.041 I 
ATOM      4  C   UNL     1       6.197  -3.505  24.253  0.00  0.00    -0.019 A 
ATOM      5  C   UNL     1       6.899  -3.846  23.072  0.00  0.00    +0.019 A 
ATOM      6  I   UNL     1       6.865  -5.755  22.135  0.00  0.00    -0.043 I 
ATOM      7  C   UNL     1       7.765  -2.940  22.446  0.00  0.00    +0.031 A 
ATOM      8  C   UNL     1       7.973  -1.665  22.971  0.00  0.00    +0.041 A 
ATOM      9  I   UNL     1       9.499  -0.556  21.998  0.00  0.00    -0.042 I 
ENDROOT
BRANCH   1  13
ATOM     10  C   UNL     1       6.699   3.457  23.640  0.00  0.00    +0.129 C 
ATOM     11  N   UNL     1       6.988   2.386  24.580  0.00  0.00    -0.327 N 
ATOM     12  C   UNL     1       6.872   1.072  24.189  0.00  0.00    +0.184 C 
ATOM     13  N   UNL     1       7.480   0.050  24.697  0.00  0.00    -0.238 NA
ATOM     14  C   UNL     1       7.617   2.734  25.841  0.00  0.00    +0.129 C 
ENDBRANCH   1  13
BRANCH   4  15
ATOM     15  C   UNL     1       5.378  -4.561  24.990  0.00  0.00    +0.048 C 
BRANCH  15  16
ATOM     16  C   UNL     1       6.058  -5.721  25.727  0.00  0.00    +0.125 C 
BRANCH  16  17
ATOM     17  C   UNL     1       7.181  -5.337  26.656  0.00  0.00    +0.305 C 
ATOM     18  O   UNL     1       7.080  -4.674  27.672  0.00  0.00    -0.251 OA
BRANCH  17  19
ATOM     19  O   UNL     1       8.375  -5.829  26.234  0.00  0.00    -0.481 OA
ATOM     20  H   UNL     1       9.150  -5.354  26.590  0.00  0.00    +0.295 HD
ENDBRANCH  17  19
ENDBRANCH  16  17
ENDBRANCH  15  16
ENDBRANCH   4  15
TORSDOF 5
ENDMDL
MODEL 3
REMARK VINA RESULT:      -4.9      2.203      2.418
REMARK  Name = 
REMARK  7 active torsions:
REMARK  status: ('A' for Active; 'I' for Inactive)
REMARK    1  A    between atoms: C_1  and  N_2
REMARK    2  A    between atoms: N_2  and  C_3
REMARK    3  A    between atoms: N_5  and  C_6
REMARK    4  A    between atoms: C_12  and  C_13
REMARK    5  A    between atoms: C_13  and  C_14
REMARK    6  A    between atoms: C_14  and  C_15
REMARK    7  A    between atoms: C_15  and  O_16
REMARK                            x       y       z     vdW  Elec       q    Type
REMARK                         _______ _______ _______ _____ _____    ______ ____
ROOT
ATOM      1  C   UNL     1       7.395  -1.574  24.382  0.00  0.00    +0.092 A 
ATOM      2  C   UNL     1       8.460  -0.670  24.054  0.00  0.00    +0.044 A 
ATOM      3  I   UNL     1      10.148  -1.528  23.021  0.00  0.00    -0.041 I 
ATOM      4  C   UNL     1       8.473   0.703  24.457  0.00  0.00    -0.019 A 
ATOM      5  C   UNL     1       7.360   1.141  25.214  0.00  0.00    +0.019 A 
ATOM      6  I   UNL     1       7.122   3.091  26.028  0.00  0.00    -0.043 I 
ATOM      7  C   UNL     1       6.321   0.268  25.562  0.00  0.00    +0.031 A 
ATOM      8  C   UNL     1       6.352  -1.073  25.181  0.00  0.00    +0.041 A 
ATOM      9  I   UNL     1       4.801  -2.256  26.020  0.00  0.00    -0.042 I 
ENDROOT
BRANCH   1  13
ATOM     10  C   UNL     1       6.006  -4.893  21.289  0.00  0.00    +0.129 C 
ATOM     11  N   UNL     1       6.978  -4.565  22.319  0.00  0.00    -0.327 N 
ATOM     12  C   UNL     1       7.032  -3.292  22.840  0.00  0.00    +0.184 C 
ATOM     13  N   UNL     1       7.481  -2.942  24.001  0.00  0.00    -0.238 NA
ATOM     14  C   UNL     1       7.713  -5.653  22.938  0.00  0.00    +0.129 C 
ENDBRANCH   1  13
BRANCH   4  15
ATOM     15  C   UNL     1       9.655   1.640  24.220  0.00  0.00    +0.048 C 
BRANCH  15  16
ATOM     16  C   UNL     1       9.848   2.348  22.874  0.00  0.00    +0.125 C 
BRANCH  16  17
ATOM     17  C   UNL     1       8.646   2.364  21.965  0.00  0.00    +0.305 C 
ATOM     18  O   UNL     1       7.679   3.098  22.063  0.00  0.00    -0.251 OA
BRANCH  17  19
ATOM     19  O   UNL     1       8.751   1.441  20.975  0.00  0.00    -0.481 OA
ATOM     20  H   UNL     1       7.922   0.960  20.788  0.00  0.00    +0.295 HD
ENDBRANCH  17  19
ENDBRANCH  16  17
ENDBRANCH  15  16
ENDBRANCH   4  15
TORSDOF 5
ENDMDL
MODEL 4
REMARK VINA RESULT:      -4.9      4.472      7.217
REMARK  Name = 
REMARK  7 active torsions:
REMARK  status: ('A' for Active; 'I' for Inactive)
REMARK    1  A    between atoms: C_1  and  N_2
REMARK    2  A    between atoms: N_2  and  C_3
REMARK    3  A    between atoms: N_5  and  C_6
REMARK    4  A    between atoms: C_12  and  C_13
REMARK    5  A    between atoms: C_13  and  C_14
REMARK    6  A    between atoms: C_14  and  C_15
REMARK    7  A    between atoms: C_15  and  O_16
REMARK                            x       y       z     vdW  Elec       q    Type
REMARK                         _______ _______ _______ _____ _____    ______ ____
ROOT
ATOM      1  C   UNL     1       7.115  -1.209  23.922  0.00  0.00    +0.092 A 
ATOM      2  C   UNL     1       6.186  -2.148  24.482  0.00  0.00    +0.044 A 
ATOM      3  I   UNL     1       5.223  -1.549  26.318  0.00  0.00    -0.041 I 
ATOM      4  C   UNL     1       5.960  -3.449  23.931  0.00  0.00    -0.019 A 
ATOM      5  C   UNL     1       6.715  -3.777  22.779  0.00  0.00    +0.019 A 
ATOM      6  I   UNL     1       6.669  -5.653  21.778  0.00  0.00    -0.043 I 
ATOM      7  C   UNL     1       7.642  -2.882  22.230  0.00  0.00    +0.031 A 
ATOM      8  C   UNL     1       7.863  -1.632  22.809  0.00  0.00    +0.041 A 
ATOM      9  I   UNL     1       9.476  -0.547  21.956  0.00  0.00    -0.042 I 
ENDROOT
BRANCH   1  13
ATOM     10  C   UNL     1       6.826   3.511  23.536  0.00  0.00    +0.129 C 
ATOM     11  N   UNL     1       6.973   2.405  24.467  0.00  0.00    -0.327 N 
ATOM     12  C   UNL     1       6.827   1.108  24.030  0.00  0.00    +0.184 C 
ATOM     13  N   UNL     1       7.334   0.044  24.562  0.00  0.00    -0.238 NA
ATOM     14  C   UNL     1       7.501   2.689  25.790  0.00  0.00    +0.129 C 
ENDBRANCH   1  13
BRANCH   4  15
ATOM     15  C   UNL     1       5.068  -4.499  24.587  0.00  0.00    +0.048 C 
BRANCH  15  16
ATOM     16  C   UNL     1       5.643  -5.530  25.565  0.00  0.00    +0.125 C 
BRANCH  16  17
ATOM     17  C   UNL     1       4.873  -6.822  25.680  0.00  0.00    +0.305 C 
ATOM     18  O   UNL     1       4.322  -7.416  24.771  0.00  0.00    -0.251 OA
BRANCH  17  19
ATOM     19  O   UNL     1       4.857  -7.286  26.956  0.00  0.00    -0.481 OA
ATOM     20  H   UNL     1       3.964  -7.346  27.347  0.00  0.00    +0.295 HD
ENDBRANCH  17  19
ENDBRANCH  16  17
ENDBRANCH  15  16
ENDBRANCH   4  15
TORSDOF 5
ENDMDL
MODEL 5
REMARK VINA RESULT:      -4.8      3.787      6.443
REMARK  Name = 
REMARK  7 active torsions:
REMARK  status: ('A' for Active; 'I' for Inactive)
REMARK    1  A    between atoms: C_1  and  N_2
REMARK    2  A    between atoms: N_2  and  C_3
REMARK    3  A    between atoms: N_5  and  C_6
REMARK    4  A    between atoms: C_12  and  C_13
REMARK    5  A    between atoms: C_13  and  C_14
REMARK    6  A    between atoms: C_14  and  C_15
REMARK    7  A    between atoms: C_15  and  O_16
REMARK                            x       y       z     vdW  Elec       q    Type
REMARK                         _______ _______ _______ _____ _____    ______ ____
ROOT
ATOM      1  C   UNL     1       6.720  -2.040  24.741  0.00  0.00    +0.092 A 
ATOM      2  C   UNL     1       6.450  -3.440  24.895  0.00  0.00    +0.044 A 
ATOM      3  I   UNL     1       7.717  -4.780  23.775  0.00  0.00    -0.041 I 
ATOM      4  C   UNL     1       5.355  -3.947  25.665  0.00  0.00    -0.019 A 
ATOM      5  C   UNL     1       4.528  -2.978  26.283  0.00  0.00    +0.019 A 
ATOM      6  I   UNL     1       2.781  -3.404  27.420  0.00  0.00    -0.043 I 
ATOM      7  C   UNL     1       4.762  -1.606  26.126  0.00  0.00    +0.031 A 
ATOM      8  C   UNL     1       5.819  -1.143  25.344  0.00  0.00    +0.041 A 
ATOM      9  I   UNL     1       5.838   0.960  25.054  0.00  0.00    -0.042 I 
ENDROOT
BRANCH   1  13
ATOM     10  C   UNL     1      10.794   0.379  24.503  0.00  0.00    +0.129 C 
ATOM     11  N   UNL     1       9.954  -0.597  23.829  0.00  0.00    -0.327 N 
ATOM     12  C   UNL     1       8.846  -1.112  24.463  0.00  0.00    +0.184 C 
ATOM     13  N   UNL     1       7.790  -1.609  23.907  0.00  0.00    -0.238 NA
ATOM     14  C   UNL     1      10.174  -0.827  22.412  0.00  0.00    +0.129 C 
ENDBRANCH   1  13
BRANCH   4  15
ATOM     15  C   UNL     1       4.987  -5.426  25.736  0.00  0.00    +0.048 C 
BRANCH  15  16
ATOM     16  C   UNL     1       5.579  -6.340  26.815  0.00  0.00    +0.125 C 
BRANCH  16  17
ATOM     17  C   UNL     1       6.451  -5.662  27.840  0.00  0.00    +0.305 C 
ATOM     18  O   UNL     1       6.068  -5.070  28.833  0.00  0.00    -0.251 OA
BRANCH  17  19
ATOM     19  O   UNL     1       7.770  -5.784  27.540  0.00  0.00    -0.481 OA
ATOM     20  H   UNL     1       8.186  -4.958  27.229  0.00  0.00    +0.295 HD
ENDBRANCH  17  19
ENDBRANCH  16  17
ENDBRANCH  15  16
ENDBRANCH   4  15
TORSDOF 5
ENDMDL
MODEL 6
REMARK VINA RESULT:      -4.8      3.999      6.355
REMARK  Name = 
REMARK  7 active torsions:
REMARK  status: ('A' for Active; 'I' for Inactive)
REMARK    1  A    between atoms: C_1  and  N_2
REMARK    2  A    between atoms: N_2  and  C_3
REMARK    3  A    between atoms: N_5  and  C_6
REMARK    4  A    between atoms: C_12  and  C_13
REMARK    5  A    between atoms: C_13  and  C_14
REMARK    6  A    between atoms: C_14  and  C_15
REMARK    7  A    between atoms: C_15  and  O_16
REMARK                            x       y       z     vdW  Elec       q    Type
REMARK                         _______ _______ _______ _____ _____    ______ ____
ROOT
ATOM      1  C   UNL     1       8.133  -0.799  24.979  0.00  0.00    +0.092 A 
ATOM      2  C   UNL     1       8.302  -1.904  24.080  0.00  0.00    +0.044 A 
ATOM      3  I   UNL     1       9.328  -1.475  22.231  0.00  0.00    -0.041 I 
ATOM      4  C   UNL     1       7.752  -3.202  24.323  0.00  0.00    -0.019 A 
ATOM      5  C   UNL     1       7.015  -3.351  25.523  0.00  0.00    +0.019 A 
ATOM      6  I   UNL     1       6.007  -5.123  26.130  0.00  0.00    -0.043 I 
ATOM      7  C   UNL     1       6.821  -2.279  26.403  0.00  0.00    +0.031 A 
ATOM      8  C   UNL     1       7.343  -1.016  26.122  0.00  0.00    +0.041 A 
ATOM      9  I   UNL     1       6.724   0.505  27.467  0.00  0.00    -0.042 I 
ENDROOT
BRANCH   1  13
ATOM     10  C   UNL     1       7.568   3.109  22.349  0.00  0.00    +0.129 C 
ATOM     11  N   UNL     1       8.253   2.543  23.499  0.00  0.00    -0.327 N 
ATOM     12  C   UNL     1       7.910   1.294  23.964  0.00  0.00    +0.184 C 
ATOM     13  N   UNL     1       8.655   0.481  24.639  0.00  0.00    -0.238 NA
ATOM     14  C   UNL     1       9.445   3.216  23.985  0.00  0.00    +0.129 C 
ENDBRANCH   1  13
BRANCH   4  15
ATOM     15  C   UNL     1       7.820  -4.350  23.319  0.00  0.00    +0.048 C 
BRANCH  15  16
ATOM     16  C   UNL     1       6.869  -4.411  22.118  0.00  0.00    +0.125 C 
BRANCH  16  17
ATOM     17  C   UNL     1       5.760  -5.428  22.214  0.00  0.00    +0.305 C 
ATOM     18  O   UNL     1       4.582  -5.193  22.409  0.00  0.00    -0.251 OA
BRANCH  17  19
ATOM     19  O   UNL     1       6.223  -6.694  22.048  0.00  0.00    -0.481 OA
ATOM     20  H   UNL     1       7.139  -6.743  21.715  0.00  0.00    +0.295 HD
ENDBRANCH  17  19
ENDBRANCH  16  17
ENDBRANCH  15  16
ENDBRANCH   4  15
TORSDOF 5
ENDMDL
MODEL 7
REMARK VINA RESULT:      -4.7      1.949      2.371
REMARK  Name = 
REMARK  7 active torsions:
REMARK  status: ('A' for Active; 'I' for Inactive)
REMARK    1  A    between atoms: C_1  and  N_2
REMARK    2  A    between atoms: N_2  and  C_3
REMARK    3  A    between atoms: N_5  and  C_6
REMARK    4  A    between atoms: C_12  and  C_13
REMARK    5  A    between atoms: C_13  and  C_14
REMARK    6  A    between atoms: C_14  and  C_15
REMARK    7  A    between atoms: C_15  and  O_16
REMARK                            x       y       z     vdW  Elec       q    Type
REMARK                         _______ _______ _______ _____ _____    ______ ____
ROOT
ATOM      1  C   UNL     1       7.537  -0.224  24.304  0.00  0.00    +0.092 A 
ATOM      2  C   UNL     1       8.366   0.646  23.521  0.00  0.00    +0.044 A 
ATOM      3  I   UNL     1       9.516  -0.294  21.955  0.00  0.00    -0.041 I 
ATOM      4  C   UNL     1       8.516   2.042  23.796  0.00  0.00    -0.019 A 
ATOM      5  C   UNL     1       7.789   2.539  24.905  0.00  0.00    +0.019 A 
ATOM      6  I   UNL     1       7.863   4.541  25.620  0.00  0.00    -0.043 I 
ATOM      7  C   UNL     1       6.992   1.702  25.695  0.00  0.00    +0.031 A 
ATOM      8  C   UNL     1       6.891   0.338  25.420  0.00  0.00    +0.041 A 
ATOM      9  I   UNL     1       5.826  -0.773  26.882  0.00  0.00    -0.042 I 
ENDROOT
BRANCH   1  13
ATOM     10  C   UNL     1       9.466  -4.486  25.095  0.00  0.00    +0.129 C 
ATOM     11  N   UNL     1       8.298  -3.790  24.580  0.00  0.00    -0.327 N 
ATOM     12  C   UNL     1       8.177  -2.429  24.741  0.00  0.00    +0.184 C 
ATOM     13  N   UNL     1       7.488  -1.616  24.009  0.00  0.00    -0.238 NA
ATOM     14  C   UNL     1       7.399  -4.519  23.703  0.00  0.00    +0.129 C 
ENDBRANCH   1  13
BRANCH   4  15
ATOM     15  C   UNL     1       9.488   2.950  23.048  0.00  0.00    +0.048 C 
BRANCH  15  16
ATOM     16  C   UNL     1      10.955   3.066  23.475  0.00  0.00    +0.125 C 
BRANCH  16  17
ATOM     17  C   UNL     1      11.574   4.433  23.328  0.00  0.00    +0.305 C 
ATOM     18  O   UNL     1      12.757   4.702  23.426  0.00  0.00    -0.251 OA
BRANCH  17  19
ATOM     19  O   UNL     1      10.640   5.382  23.057  0.00  0.00    -0.481 OA
ATOM     20  H   UNL     1      10.516   5.559  22.106  0.00  0.00    +0.295 HD
ENDBRANCH  17  19
ENDBRANCH  16  17
ENDBRANCH  15  16
ENDBRANCH   4  15
TORSDOF 5
ENDMDL
MODEL 8
REMARK VINA RESULT:      -4.7      1.665      2.093
REMARK  Name = 
REMARK  7 active torsions:
REMARK  status: ('A' for Active; 'I' for Inactive)
REMARK    1  A    between atoms: C_1  and  N_2
REMARK    2  A    between atoms: N_2  and  C_3
REMARK    3  A    between atoms: N_5  and  C_6
REMARK    4  A    between atoms: C_12  and  C_13
REMARK    5  A    between atoms: C_13  and  C_14
REMARK    6  A    between atoms: C_14  and  C_15
REMARK    7  A    between atoms: C_15  and  O_16
REMARK                            x       y       z     vdW  Elec       q    Type
REMARK                         _______ _______ _______ _____ _____    ______ ____
ROOT
ATOM      1  C   UNL     1       7.053  -1.067  24.965  0.00  0.00    +0.092 A 
ATOM      2  C   UNL     1       8.294  -0.550  24.466  0.00  0.00    +0.044 A 
ATOM      3  I   UNL     1       9.695  -2.007  23.712  0.00  0.00    -0.041 I 
ATOM      4  C   UNL     1       8.650   0.834  24.536  0.00  0.00    -0.019 A 
ATOM      5  C   UNL     1       7.698   1.693  25.136  0.00  0.00    +0.019 A 
ATOM      6  I   UNL     1       7.961   3.778  25.463  0.00  0.00    -0.043 I 
ATOM      7  C   UNL     1       6.489   1.203  25.649  0.00  0.00    +0.031 A 
ATOM      8  C   UNL     1       6.185  -0.156  25.594  0.00  0.00    +0.041 A 
ATOM      9  I   UNL     1       4.420  -0.700  26.641  0.00  0.00    -0.042 I 
ENDROOT
BRANCH   1  13
ATOM     10  C   UNL     1       7.763  -5.271  27.047  0.00  0.00    +0.129 C 
ATOM     11  N   UNL     1       6.949  -4.547  26.085  0.00  0.00    -0.327 N 
ATOM     12  C   UNL     1       7.076  -3.182  25.958  0.00  0.00    +0.184 C 
ATOM     13  N   UNL     1       6.795  -2.466  24.919  0.00  0.00    -0.238 NA
ATOM     14  C   UNL     1       6.188  -5.316  25.116  0.00  0.00    +0.129 C 
ENDBRANCH   1  13
BRANCH   4  15
ATOM     15  C   UNL     1      10.015   1.376  24.120  0.00  0.00    +0.048 C 
BRANCH  15  16
ATOM     16  C   UNL     1      10.249   1.945  22.716  0.00  0.00    +0.125 C 
BRANCH  16  17
ATOM     17  C   UNL     1       9.189   1.621  21.694  0.00  0.00    +0.305 C 
ATOM     18  O   UNL     1       9.069   0.571  21.089  0.00  0.00    -0.251 OA
BRANCH  17  19
ATOM     19  O   UNL     1       8.335   2.660  21.507  0.00  0.00    -0.481 OA
ATOM     20  H   UNL     1       7.530   2.618  22.057  0.00  0.00    +0.295 HD
ENDBRANCH  17  19
ENDBRANCH  16  17
ENDBRANCH  15  16
ENDBRANCH   4  15
TORSDOF 5
ENDMDL
MODEL 9
REMARK VINA RESULT:      -4.6      3.260      5.952
REMARK  Name = 
REMARK  7 active torsions:
REMARK  status: ('A' for Active; 'I' for Inactive)
REMARK    1  A    between atoms: C_1  and  N_2
REMARK    2  A    between atoms: N_2  and  C_3
REMARK    3  A    between atoms: N_5  and  C_6
REMARK    4  A    between atoms: C_12  and  C_13
REMARK    5  A    between atoms: C_13  and  C_14
REMARK    6  A    between atoms: C_14  and  C_15
REMARK    7  A    between atoms: C_15  and  O_16
REMARK                            x       y       z     vdW  Elec       q    Type
REMARK                         _______ _______ _______ _____ _____    ______ ____
ROOT
ATOM      1  C   UNL     1       7.245  -0.808  24.857  0.00  0.00    +0.092 A 
ATOM      2  C   UNL     1       7.698  -1.946  24.111  0.00  0.00    +0.044 A 
ATOM      3  I   UNL     1       9.383  -1.615  22.805  0.00  0.00    -0.041 I 
ATOM      4  C   UNL     1       7.035  -3.214  24.138  0.00  0.00    -0.019 A 
ATOM      5  C   UNL     1       5.882  -3.297  24.955  0.00  0.00    +0.019 A 
ATOM      6  I   UNL     1       4.634  -5.009  25.144  0.00  0.00    -0.043 I 
ATOM      7  C   UNL     1       5.412  -2.191  25.674  0.00  0.00    +0.031 A 
ATOM      8  C   UNL     1       6.062  -0.959  25.603  0.00  0.00    +0.041 A 
ATOM      9  I   UNL     1       5.041   0.627  26.578  0.00  0.00    -0.042 I 
ENDROOT
BRANCH   1  13
ATOM     10  C   UNL     1       7.750   3.150  22.289  0.00  0.00    +0.129 C 
ATOM     11  N   UNL     1       8.010   2.533  23.579  0.00  0.00    -0.327 N 
ATOM     12  C   UNL     1       7.468   1.303  23.880  0.00  0.00    +0.184 C 
ATOM     13  N   UNL     1       7.918   0.440  24.731  0.00  0.00    -0.238 NA
ATOM     14  C   UNL     1       9.027   3.125  24.429  0.00  0.00    +0.129 C 
ENDBRANCH   1  13
BRANCH   4  15
ATOM     15  C   UNL     1       7.435  -4.393  23.255  0.00  0.00    +0.048 C 
BRANCH  15  16
ATOM     16  C   UNL     1       8.164  -5.609  23.839  0.00  0.00    +0.125 C 
BRANCH  16  17
ATOM     17  C   UNL     1       9.062  -5.330  25.018  0.00  0.00    +0.305 C 
ATOM     18  O   UNL     1      10.151  -4.787  24.980  0.00  0.00    -0.251 OA
BRANCH  17  19
ATOM     19  O   UNL     1       8.511  -5.757  26.183  0.00  0.00    -0.481 OA
ATOM     20  H   UNL     1       8.629  -5.140  26.930  0.00  0.00    +0.295 HD
ENDBRANCH  17  19
ENDBRANCH  16  17
ENDBRANCH  15  16
ENDBRANCH   4  15
TORSDOF 5
ENDMDL
