MODEL 1
REMARK VINA RESULT:      -6.8      0.000      0.000
REMARK  Name = 
REMARK  16 active torsions:
REMARK  status: ('A' for Active; 'I' for Inactive)
REMARK    1  A    between atoms: C_1  and  O_2
REMARK    2  A    between atoms: O_2  and  C_3
REMARK    3  A    between atoms: C_3  and  C_5
REMARK    4  A    between atoms: C_3  and  C_19
REMARK    5  A    between atoms: N_7  and  C_8
REMARK    6  A    between atoms: C_12  and  O_14
REMARK    7  A    between atoms: C_19  and  O_21
REMARK    8  A    between atoms: C_19  and  C_22
REMARK    9  A    between atoms: C_22  and  O_24
REMARK   10  A    between atoms: C_22  and  C_25
REMARK   11  A    between atoms: C_25  and  O_27
REMARK   12  A    between atoms: C_25  and  C_28
REMARK   13  A    between atoms: C_29  and  C_30
REMARK   14  A    between atoms: C_30  and  C_31
REMARK   15  A    between atoms: C_30  and  C_32
REMARK   16  A    between atoms: C_30  and  C_33
REMARK                            x       y       z     vdW  Elec       q    Type
REMARK                         _______ _______ _______ _____ _____    ______ ____
ROOT
ATOM      1  C   UNL     1       9.819  -1.491  23.648  0.00  0.00    +0.234 C 
ENDROOT
BRANCH   1   2
ATOM      2  C   UNL     1       9.363  -2.956  24.008  0.00  0.00    +0.245 C 
ATOM      3  N   UNL     1       8.070  -3.365  23.835  0.00  0.00    -0.302 N 
ATOM      4  H   UNL     1       7.435  -2.750  23.348  0.00  0.00    +0.150 HD
ATOM      5  O   UNL     1      10.198  -3.776  24.405  0.00  0.00    -0.273 OA
BRANCH   3   6
ATOM      6  C   UNL     1       7.617  -4.779  23.895  0.00  0.00    +0.159 C 
ATOM      7  C   UNL     1       7.055  -5.193  25.265  0.00  0.00    +0.233 C 
ATOM      8  O   UNL     1       7.827  -5.324  26.225  0.00  0.00    -0.274 OA
ATOM      9  N   UNL     1       5.737  -5.371  25.518  0.00  0.00    -0.311 N 
ATOM     10  H   UNL     1       5.573  -5.446  26.517  0.00  0.00    +0.149 HD
ATOM     11  C   UNL     1       4.559  -5.177  24.694  0.00  0.00    +0.135 C 
ATOM     12  C   UNL     1       4.551  -5.943  23.376  0.00  0.00    +0.132 C 
ATOM     13  C   UNL     1       5.539  -5.446  22.327  0.00  0.00    +0.035 C 
ATOM     14  C   UNL     1       7.029  -5.475  22.658  0.00  0.00    +0.034 C 
BRANCH  12  15
ATOM     15  O   UNL     1       4.705  -7.349  23.583  0.00  0.00    -0.390 OA
ATOM     16  H   UNL     1       4.818  -7.775  22.716  0.00  0.00    +0.210 HD
ENDBRANCH  12  15
ENDBRANCH   3   6
ENDBRANCH   1   2
BRANCH   1  18
ATOM     17  C   UNL     1      10.749   0.388  24.847  0.00  0.00    +0.195 C 
ATOM     18  O   UNL     1       9.838  -0.717  24.890  0.00  0.00    -0.368 OA
ENDBRANCH   1  18
BRANCH   1  19
ATOM     19  C   UNL     1       9.230  -0.508  22.594  0.00  0.00    +0.183 C 
BRANCH  19  20
ATOM     20  O   UNL     1       9.056  -1.282  21.367  0.00  0.00    -0.386 OA
ATOM     21  H   UNL     1       8.391  -0.810  20.831  0.00  0.00    +0.210 HD
ENDBRANCH  19  20
BRANCH  19  22
ATOM     22  C   UNL     1       7.887   0.192  22.820  0.00  0.00    +0.178 C 
BRANCH  22  23
ATOM     23  O   UNL     1       6.779  -0.696  22.698  0.00  0.00    -0.386 OA
ATOM     24  H   UNL     1       6.103  -0.295  22.125  0.00  0.00    +0.210 HD
ENDBRANCH  22  23
BRANCH  22  25
ATOM     25  C   UNL     1       7.781   1.408  21.835  0.00  0.00    +0.168 C 
BRANCH  25  26
ATOM     26  C   UNL     1       7.571   2.681  22.596  0.00  0.00    +0.003 C 
ATOM     27  C   UNL     1       7.287   3.887  22.078  0.00  0.00    -0.023 C 
BRANCH  27  28
ATOM     28  C   UNL     1       7.358   5.163  22.887  0.00  0.00    -0.020 C 
ATOM     29  C   UNL     1       6.195   5.261  23.887  0.00  0.00    +0.015 C 
ATOM     30  C   UNL     1       7.290   6.365  21.942  0.00  0.00    +0.015 C 
ATOM     31  C   UNL     1       8.702   5.195  23.638  0.00  0.00    +0.015 C 
ENDBRANCH  27  28
ENDBRANCH  25  26
BRANCH  25  32
ATOM     32  O   UNL     1       8.976   1.508  21.054  0.00  0.00    -0.385 OA
ATOM     33  H   UNL     1       8.985   0.723  20.478  0.00  0.00    +0.210 HD
ENDBRANCH  25  32
ENDBRANCH  22  25
ENDBRANCH  19  22
ENDBRANCH   1  19
TORSDOF 12
ENDMDL
MODEL 2
REMARK VINA RESULT:      -6.8      2.774      7.958
REMARK  Name = 
REMARK  16 active torsions:
REMARK  status: ('A' for Active; 'I' for Inactive)
REMARK    1  A    between atoms: C_1  and  O_2
REMARK    2  A    between atoms: O_2  and  C_3
REMARK    3  A    between atoms: C_3  and  C_5
REMARK    4  A    between atoms: C_3  and  C_19
REMARK    5  A    between atoms: N_7  and  C_8
REMARK    6  A    between atoms: C_12  and  O_14
REMARK    7  A    between atoms: C_19  and  O_21
REMARK    8  A    between atoms: C_19  and  C_22
REMARK    9  A    between atoms: C_22  and  O_24
REMARK   10  A    between atoms: C_22  and  C_25
REMARK   11  A    between atoms: C_25  and  O_27
REMARK   12  A    between atoms: C_25  and  C_28
REMARK   13  A    between atoms: C_29  and  C_30
REMARK   14  A    between atoms: C_30  and  C_31
REMARK   15  A    between atoms: C_30  and  C_32
REMARK   16  A    between atoms: C_30  and  C_33
REMARK                            x       y       z     vdW  Elec       q    Type
REMARK                         _______ _______ _______ _____ _____    ______ ____
ROOT
ATOM      1  C   UNL     1       8.520  -4.065  23.669  0.00  0.00    +0.234 C 
ENDROOT
BRANCH   1   2
ATOM      2  C   UNL     1       8.787  -2.512  23.630  0.00  0.00    +0.245 C 
ATOM      3  N   UNL     1       7.766  -1.615  23.482  0.00  0.00    -0.302 N 
ATOM      4  H   UNL     1       6.818  -1.958  23.529  0.00  0.00    +0.150 HD
ATOM      5  O   UNL     1       9.936  -2.085  23.790  0.00  0.00    -0.273 OA
BRANCH   3   6
ATOM      6  C   UNL     1       7.891  -0.150  23.696  0.00  0.00    +0.159 C 
ATOM      7  C   UNL     1       8.365   0.233  25.107  0.00  0.00    +0.233 C 
ATOM      8  O   UNL     1       7.598   0.085  26.069  0.00  0.00    -0.274 OA
ATOM      9  N   UNL     1       9.613   0.676  25.391  0.00  0.00    -0.311 N 
ATOM     10  H   UNL     1       9.770   0.680  26.393  0.00  0.00    +0.149 HD
ATOM     11  C   UNL     1      10.793   0.839  24.562  0.00  0.00    +0.135 C 
ATOM     12  C   UNL     1      10.610   1.722  23.332  0.00  0.00    +0.132 C 
ATOM     13  C   UNL     1       9.742   1.129  22.227  0.00  0.00    +0.035 C 
ATOM     14  C   UNL     1       8.290   0.787  22.545  0.00  0.00    +0.034 C 
BRANCH  12  15
ATOM     15  O   UNL     1      10.146   3.027  23.685  0.00  0.00    -0.390 OA
ATOM     16  H   UNL     1       9.178   3.043  23.594  0.00  0.00    +0.210 HD
ENDBRANCH  12  15
ENDBRANCH   3   6
ENDBRANCH   1   2
BRANCH   1  18
ATOM     17  C   UNL     1       7.198  -5.623  22.382  0.00  0.00    +0.195 C 
ATOM     18  O   UNL     1       7.264  -4.315  22.961  0.00  0.00    -0.368 OA
ENDBRANCH   1  18
BRANCH   1  19
ATOM     19  C   UNL     1       8.466  -5.024  24.895  0.00  0.00    +0.183 C 
BRANCH  19  20
ATOM     20  O   UNL     1       9.685  -5.827  24.838  0.00  0.00    -0.386 OA
ATOM     21  H   UNL     1      10.061  -5.701  23.946  0.00  0.00    +0.210 HD
ENDBRANCH  19  20
BRANCH  19  22
ATOM     22  C   UNL     1       8.409  -4.484  26.327  0.00  0.00    +0.178 C 
BRANCH  22  23
ATOM     23  O   UNL     1       9.609  -4.730  27.054  0.00  0.00    -0.386 OA
ATOM     24  H   UNL     1       9.595  -5.636  27.407  0.00  0.00    +0.210 HD
ENDBRANCH  22  23
BRANCH  22  25
ATOM     25  C   UNL     1       7.150  -5.087  27.042  0.00  0.00    +0.168 C 
BRANCH  25  26
ATOM     26  C   UNL     1       6.147  -5.553  26.032  0.00  0.00    +0.003 C 
ATOM     27  C   UNL     1       5.028  -4.913  25.660  0.00  0.00    -0.023 C 
BRANCH  27  28
ATOM     28  C   UNL     1       3.940  -5.573  24.841  0.00  0.00    -0.020 C 
ATOM     29  C   UNL     1       4.322  -7.009  24.451  0.00  0.00    +0.015 C 
ATOM     30  C   UNL     1       3.711  -4.765  23.561  0.00  0.00    +0.015 C 
ATOM     31  C   UNL     1       2.639  -5.578  25.666  0.00  0.00    +0.015 C 
ENDBRANCH  27  28
ENDBRANCH  25  26
BRANCH  25  32
ATOM     32  O   UNL     1       7.541  -6.185  27.873  0.00  0.00    -0.385 OA
ATOM     33  H   UNL     1       8.355  -6.543  27.478  0.00  0.00    +0.210 HD
ENDBRANCH  25  32
ENDBRANCH  22  25
ENDBRANCH  19  22
ENDBRANCH   1  19
TORSDOF 12
ENDMDL
MODEL 3
REMARK VINA RESULT:      -6.5      1.209      1.628
REMARK  Name = 
REMARK  16 active torsions:
REMARK  status: ('A' for Active; 'I' for Inactive)
REMARK    1  A    between atoms: C_1  and  O_2
REMARK    2  A    between atoms: O_2  and  C_3
REMARK    3  A    between atoms: C_3  and  C_5
REMARK    4  A    between atoms: C_3  and  C_19
REMARK    5  A    between atoms: N_7  and  C_8
REMARK    6  A    between atoms: C_12  and  O_14
REMARK    7  A    between atoms: C_19  and  O_21
REMARK    8  A    between atoms: C_19  and  C_22
REMARK    9  A    between atoms: C_22  and  O_24
REMARK   10  A    between atoms: C_22  and  C_25
REMARK   11  A    between atoms: C_25  and  O_27
REMARK   12  A    between atoms: C_25  and  C_28
REMARK   13  A    between atoms: C_29  and  C_30
REMARK   14  A    between atoms: C_30  and  C_31
REMARK   15  A    between atoms: C_30  and  C_32
REMARK   16  A    between atoms: C_30  and  C_33
REMARK                            x       y       z     vdW  Elec       q    Type
REMARK                         _______ _______ _______ _____ _____    ______ ____
ROOT
ATOM      1  C   UNL     1       9.647  -1.466  24.184  0.00  0.00    +0.234 C 
ENDROOT
BRANCH   1   2
ATOM      2  C   UNL     1       9.293  -2.997  24.315  0.00  0.00    +0.245 C 
ATOM      3  N   UNL     1       8.001  -3.423  24.436  0.00  0.00    -0.302 N 
ATOM      4  H   UNL     1       7.260  -2.749  24.310  0.00  0.00    +0.150 HD
ATOM      5  O   UNL     1      10.195  -3.840  24.253  0.00  0.00    -0.273 OA
BRANCH   3   6
ATOM      6  C   UNL     1       7.562  -4.837  24.300  0.00  0.00    +0.159 C 
ATOM      7  C   UNL     1       7.048  -5.457  25.610  0.00  0.00    +0.233 C 
ATOM      8  O   UNL     1       7.851  -5.717  26.516  0.00  0.00    -0.274 OA
ATOM      9  N   UNL     1       5.741  -5.688  25.874  0.00  0.00    -0.311 N 
ATOM     10  H   UNL     1       5.610  -5.912  26.855  0.00  0.00    +0.149 HD
ATOM     11  C   UNL     1       4.535  -5.390  25.124  0.00  0.00    +0.135 C 
ATOM     12  C   UNL     1       4.491  -5.953  23.708  0.00  0.00    +0.132 C 
ATOM     13  C   UNL     1       5.441  -5.293  22.715  0.00  0.00    +0.035 C 
ATOM     14  C   UNL     1       6.941  -5.350  22.992  0.00  0.00    +0.034 C 
BRANCH  12  15
ATOM     15  O   UNL     1       4.665  -7.372  23.699  0.00  0.00    -0.390 OA
ATOM     16  H   UNL     1       5.606  -7.564  23.545  0.00  0.00    +0.210 HD
ENDBRANCH  12  15
ENDBRANCH   3   6
ENDBRANCH   1   2
BRANCH   1  18
ATOM     17  C   UNL     1       8.575  -0.225  25.957  0.00  0.00    +0.195 C 
ATOM     18  O   UNL     1       8.473  -0.704  24.611  0.00  0.00    -0.368 OA
ENDBRANCH   1  18
BRANCH   1  19
ATOM     19  C   UNL     1      10.184  -0.682  22.951  0.00  0.00    +0.183 C 
BRANCH  19  20
ATOM     20  O   UNL     1      10.313  -1.659  21.872  0.00  0.00    -0.386 OA
ATOM     21  H   UNL     1      10.564  -1.159  21.072  0.00  0.00    +0.210 HD
ENDBRANCH  19  20
BRANCH  19  22
ATOM     22  C   UNL     1       9.398   0.484  22.343  0.00  0.00    +0.178 C 
BRANCH  22  23
ATOM     23  O   UNL     1       9.306   0.403  20.924  0.00  0.00    -0.386 OA
ATOM     24  H   UNL     1       8.638   1.034  20.605  0.00  0.00    +0.210 HD
ENDBRANCH  22  23
BRANCH  22  25
ATOM     25  C   UNL     1      10.048   1.830  22.818  0.00  0.00    +0.168 C 
BRANCH  25  26
ATOM     26  C   UNL     1       8.990   2.853  23.097  0.00  0.00    +0.003 C 
ATOM     27  C   UNL     1       7.662   2.662  23.063  0.00  0.00    -0.023 C 
BRANCH  27  28
ATOM     28  C   UNL     1       6.669   3.804  23.091  0.00  0.00    -0.020 C 
ATOM     29  C   UNL     1       6.412   4.292  24.525  0.00  0.00    +0.015 C 
ATOM     30  C   UNL     1       5.342   3.334  22.491  0.00  0.00    +0.015 C 
ATOM     31  C   UNL     1       7.223   4.957  22.232  0.00  0.00    +0.015 C 
ENDBRANCH  27  28
ENDBRANCH  25  26
BRANCH  25  32
ATOM     32  O   UNL     1      10.823   1.607  24.000  0.00  0.00    -0.385 OA
ATOM     33  H   UNL     1      10.195   1.639  24.743  0.00  0.00    +0.210 HD
ENDBRANCH  25  32
ENDBRANCH  22  25
ENDBRANCH  19  22
ENDBRANCH   1  19
TORSDOF 12
ENDMDL
MODEL 4
REMARK VINA RESULT:      -6.3      1.812      3.056
REMARK  Name = 
REMARK  16 active torsions:
REMARK  status: ('A' for Active; 'I' for Inactive)
REMARK    1  A    between atoms: C_1  and  O_2
REMARK    2  A    between atoms: O_2  and  C_3
REMARK    3  A    between atoms: C_3  and  C_5
REMARK    4  A    between atoms: C_3  and  C_19
REMARK    5  A    between atoms: N_7  and  C_8
REMARK    6  A    between atoms: C_12  and  O_14
REMARK    7  A    between atoms: C_19  and  O_21
REMARK    8  A    between atoms: C_19  and  C_22
REMARK    9  A    between atoms: C_22  and  O_24
REMARK   10  A    between atoms: C_22  and  C_25
REMARK   11  A    between atoms: C_25  and  O_27
REMARK   12  A    between atoms: C_25  and  C_28
REMARK   13  A    between atoms: C_29  and  C_30
REMARK   14  A    between atoms: C_30  and  C_31
REMARK   15  A    between atoms: C_30  and  C_32
REMARK   16  A    between atoms: C_30  and  C_33
REMARK                            x       y       z     vdW  Elec       q    Type
REMARK                         _______ _______ _______ _____ _____    ______ ____
ROOT
ATOM      1  C   UNL     1       7.832  -2.835  23.604  0.00  0.00    +0.234 C 
ENDROOT
BRANCH   1   2
ATOM      2  C   UNL     1       7.518  -4.305  24.080  0.00  0.00    +0.245 C 
ATOM      3  N   UNL     1       6.379  -4.602  24.776  0.00  0.00    -0.302 N 
ATOM      4  H   UNL     1       5.674  -3.885  24.869  0.00  0.00    +0.150 HD
ATOM      5  O   UNL     1       8.285  -5.224  23.775  0.00  0.00    -0.273 OA
BRANCH   3   6
ATOM      6  C   UNL     1       5.880  -5.978  25.030  0.00  0.00    +0.159 C 
ATOM      7  C   UNL     1       5.552  -6.258  26.506  0.00  0.00    +0.233 C 
ATOM      8  O   UNL     1       6.474  -6.363  27.326  0.00  0.00    -0.274 OA
ATOM      9  N   UNL     1       4.293  -6.339  26.996  0.00  0.00    -0.311 N 
ATOM     10  H   UNL     1       4.304  -6.331  28.011  0.00  0.00    +0.149 HD
ATOM     11  C   UNL     1       2.997  -6.136  26.375  0.00  0.00    +0.135 C 
ATOM     12  C   UNL     1       2.721  -6.994  25.146  0.00  0.00    +0.132 C 
ATOM     13  C   UNL     1       3.530  -6.635  23.905  0.00  0.00    +0.035 C 
ATOM     14  C   UNL     1       5.052  -6.727  23.974  0.00  0.00    +0.034 C 
BRANCH  12  15
ATOM     15  O   UNL     1       2.846  -8.388  25.437  0.00  0.00    -0.390 OA
ATOM     16  H   UNL     1       3.457  -8.490  26.188  0.00  0.00    +0.210 HD
ENDBRANCH  12  15
ENDBRANCH   3   6
ENDBRANCH   1   2
BRANCH   1  18
ATOM     17  C   UNL     1       6.191  -3.030  21.842  0.00  0.00    +0.195 C 
ATOM     18  O   UNL     1       7.562  -2.770  22.167  0.00  0.00    -0.368 OA
ENDBRANCH   1  18
BRANCH   1  19
ATOM     19  C   UNL     1       9.132  -1.998  23.787  0.00  0.00    +0.183 C 
BRANCH  19  20
ATOM     20  O   UNL     1      10.232  -2.959  23.835  0.00  0.00    -0.386 OA
ATOM     21  H   UNL     1       9.923  -3.710  24.376  0.00  0.00    +0.210 HD
ENDBRANCH  19  20
BRANCH  19  22
ATOM     22  C   UNL     1       9.559  -0.952  22.752  0.00  0.00    +0.178 C 
BRANCH  22  23
ATOM     23  O   UNL     1      10.150  -1.536  21.595  0.00  0.00    -0.386 OA
ATOM     24  H   UNL     1       9.451  -1.804  20.974  0.00  0.00    +0.210 HD
ENDBRANCH  22  23
BRANCH  22  25
ATOM     25  C   UNL     1      10.513   0.081  23.446  0.00  0.00    +0.168 C 
BRANCH  25  26
ATOM     26  C   UNL     1       9.980   1.472  23.291  0.00  0.00    +0.003 C 
ATOM     27  C   UNL     1       9.567   2.287  24.275  0.00  0.00    -0.023 C 
BRANCH  27  28
ATOM     28  C   UNL     1       8.796   3.562  24.013  0.00  0.00    -0.020 C 
ATOM     29  C   UNL     1       7.933   3.449  22.747  0.00  0.00    +0.015 C 
ATOM     30  C   UNL     1       9.780   4.719  23.830  0.00  0.00    +0.015 C 
ATOM     31  C   UNL     1       7.904   3.855  25.235  0.00  0.00    +0.015 C 
ENDBRANCH  27  28
ENDBRANCH  25  26
BRANCH  25  32
ATOM     32  O   UNL     1      10.641  -0.232  24.837  0.00  0.00    -0.385 OA
ATOM     33  H   UNL     1      11.190   0.474  25.221  0.00  0.00    +0.210 HD
ENDBRANCH  25  32
ENDBRANCH  22  25
ENDBRANCH  19  22
ENDBRANCH   1  19
TORSDOF 12
ENDMDL
MODEL 5
REMARK VINA RESULT:      -6.2      1.612      2.262
REMARK  Name = 
REMARK  16 active torsions:
REMARK  status: ('A' for Active; 'I' for Inactive)
REMARK    1  A    between atoms: C_1  and  O_2
REMARK    2  A    between atoms: O_2  and  C_3
REMARK    3  A    between atoms: C_3  and  C_5
REMARK    4  A    between atoms: C_3  and  C_19
REMARK    5  A    between atoms: N_7  and  C_8
REMARK    6  A    between atoms: C_12  and  O_14
REMARK    7  A    between atoms: C_19  and  O_21
REMARK    8  A    between atoms: C_19  and  C_22
REMARK    9  A    between atoms: C_22  and  O_24
REMARK   10  A    between atoms: C_22  and  C_25
REMARK   11  A    between atoms: C_25  and  O_27
REMARK   12  A    between atoms: C_25  and  C_28
REMARK   13  A    between atoms: C_29  and  C_30
REMARK   14  A    between atoms: C_30  and  C_31
REMARK   15  A    between atoms: C_30  and  C_32
REMARK   16  A    between atoms: C_30  and  C_33
REMARK                            x       y       z     vdW  Elec       q    Type
REMARK                         _______ _______ _______ _____ _____    ______ ____
ROOT
ATOM      1  C   UNL     1      10.121  -0.292  24.286  0.00  0.00    +0.234 C 
ENDROOT
BRANCH   1   2
ATOM      2  C   UNL     1       9.721  -1.617  23.531  0.00  0.00    +0.245 C 
ATOM      3  N   UNL     1       8.676  -2.392  23.953  0.00  0.00    -0.302 N 
ATOM      4  H   UNL     1       8.078  -2.033  24.683  0.00  0.00    +0.150 HD
ATOM      5  O   UNL     1      10.325  -1.942  22.503  0.00  0.00    -0.273 OA
BRANCH   3   6
ATOM      6  C   UNL     1       8.071  -3.496  23.163  0.00  0.00    +0.159 C 
ATOM      7  C   UNL     1       7.936  -4.815  23.941  0.00  0.00    +0.233 C 
ATOM      8  O   UNL     1       8.952  -5.469  24.212  0.00  0.00    -0.274 OA
ATOM      9  N   UNL     1       6.763  -5.294  24.416  0.00  0.00    -0.311 N 
ATOM     10  H   UNL     1       6.925  -6.062  25.059  0.00  0.00    +0.149 HD
ATOM     11  C   UNL     1       5.419  -4.745  24.411  0.00  0.00    +0.135 C 
ATOM     12  C   UNL     1       4.871  -4.373  23.037  0.00  0.00    +0.132 C 
ATOM     13  C   UNL     1       5.522  -3.161  22.381  0.00  0.00    +0.035 C 
ATOM     14  C   UNL     1       7.018  -3.209  22.082  0.00  0.00    +0.034 C 
BRANCH  12  15
ATOM     15  O   UNL     1       4.883  -5.491  22.146  0.00  0.00    -0.390 OA
ATOM     16  H   UNL     1       5.797  -5.632  21.844  0.00  0.00    +0.210 HD
ENDBRANCH  12  15
ENDBRANCH   3   6
ENDBRANCH   1   2
BRANCH   1  18
ATOM     17  C   UNL     1       8.398   0.481  25.791  0.00  0.00    +0.195 C 
ATOM     18  O   UNL     1       9.546  -0.359  25.630  0.00  0.00    -0.368 OA
ENDBRANCH   1  18
BRANCH   1  19
ATOM     19  C   UNL     1       9.910   1.189  23.853  0.00  0.00    +0.183 C 
BRANCH  19  20
ATOM     20  O   UNL     1      11.215   1.836  23.967  0.00  0.00    -0.386 OA
ATOM     21  H   UNL     1      11.825   1.338  23.391  0.00  0.00    +0.210 HD
ENDBRANCH  19  20
BRANCH  19  22
ATOM     22  C   UNL     1       9.407   1.546  22.451  0.00  0.00    +0.178 C 
BRANCH  22  23
ATOM     23  O   UNL     1      10.339   2.338  21.720  0.00  0.00    -0.386 OA
ATOM     24  H   UNL     1      11.129   1.807  21.519  0.00  0.00    +0.210 HD
ENDBRANCH  22  23
BRANCH  22  25
ATOM     25  C   UNL     1       8.010   2.246  22.581  0.00  0.00    +0.168 C 
BRANCH  25  26
ATOM     26  C   UNL     1       8.178   3.689  22.946  0.00  0.00    +0.003 C 
ATOM     27  C   UNL     1       7.216   4.623  22.983  0.00  0.00    -0.023 C 
BRANCH  27  28
ATOM     28  C   UNL     1       7.515   6.102  23.096  0.00  0.00    -0.020 C 
ATOM     29  C   UNL     1       9.019   6.361  23.275  0.00  0.00    +0.015 C 
ATOM     30  C   UNL     1       6.774   6.676  24.307  0.00  0.00    +0.015 C 
ATOM     31  C   UNL     1       7.006   6.804  21.823  0.00  0.00    +0.015 C 
ENDBRANCH  27  28
ENDBRANCH  25  26
BRANCH  25  32
ATOM     32  O   UNL     1       7.296   2.143  21.345  0.00  0.00    -0.385 OA
ATOM     33  H   UNL     1       7.391   1.218  21.058  0.00  0.00    +0.210 HD
ENDBRANCH  25  32
ENDBRANCH  22  25
ENDBRANCH  19  22
ENDBRANCH   1  19
TORSDOF 12
ENDMDL
MODEL 6
REMARK VINA RESULT:      -6.2      1.775      2.344
REMARK  Name = 
REMARK  16 active torsions:
REMARK  status: ('A' for Active; 'I' for Inactive)
REMARK    1  A    between atoms: C_1  and  O_2
REMARK    2  A    between atoms: O_2  and  C_3
REMARK    3  A    between atoms: C_3  and  C_5
REMARK    4  A    between atoms: C_3  and  C_19
REMARK    5  A    between atoms: N_7  and  C_8
REMARK    6  A    between atoms: C_12  and  O_14
REMARK    7  A    between atoms: C_19  and  O_21
REMARK    8  A    between atoms: C_19  and  C_22
REMARK    9  A    between atoms: C_22  and  O_24
REMARK   10  A    between atoms: C_22  and  C_25
REMARK   11  A    between atoms: C_25  and  O_27
REMARK   12  A    between atoms: C_25  and  C_28
REMARK   13  A    between atoms: C_29  and  C_30
REMARK   14  A    between atoms: C_30  and  C_31
REMARK   15  A    between atoms: C_30  and  C_32
REMARK   16  A    between atoms: C_30  and  C_33
REMARK                            x       y       z     vdW  Elec       q    Type
REMARK                         _______ _______ _______ _____ _____    ______ ____
ROOT
ATOM      1  C   UNL     1       9.598  -1.199  24.095  0.00  0.00    +0.234 C 
ENDROOT
BRANCH   1   2
ATOM      2  C   UNL     1       8.627  -2.359  23.653  0.00  0.00    +0.245 C 
ATOM      3  N   UNL     1       7.988  -3.145  24.571  0.00  0.00    -0.302 N 
ATOM      4  H   UNL     1       8.047  -2.888  25.545  0.00  0.00    +0.150 HD
ATOM      5  O   UNL     1       8.389  -2.533  22.453  0.00  0.00    -0.273 OA
BRANCH   3   6
ATOM      6  C   UNL     1       6.870  -4.072  24.256  0.00  0.00    +0.159 C 
ATOM      7  C   UNL     1       5.618  -3.371  23.705  0.00  0.00    +0.233 C 
ATOM      8  O   UNL     1       4.926  -2.677  24.461  0.00  0.00    -0.274 OA
ATOM      9  N   UNL     1       5.242  -3.410  22.405  0.00  0.00    -0.311 N 
ATOM     10  H   UNL     1       4.512  -2.729  22.224  0.00  0.00    +0.149 HD
ATOM     11  C   UNL     1       5.868  -3.994  21.233  0.00  0.00    +0.135 C 
ATOM     12  C   UNL     1       6.175  -5.485  21.333  0.00  0.00    +0.132 C 
ATOM     13  C   UNL     1       7.299  -5.856  22.294  0.00  0.00    +0.035 C 
ATOM     14  C   UNL     1       7.142  -5.504  23.770  0.00  0.00    +0.034 C 
BRANCH  12  15
ATOM     15  O   UNL     1       5.000  -6.247  21.620  0.00  0.00    -0.390 OA
ATOM     16  H   UNL     1       4.288  -5.944  21.030  0.00  0.00    +0.210 HD
ENDBRANCH  12  15
ENDBRANCH   3   6
ENDBRANCH   1   2
BRANCH   1  18
ATOM     17  C   UNL     1       9.020  -0.565  26.353  0.00  0.00    +0.195 C 
ATOM     18  O   UNL     1       8.839  -0.293  24.959  0.00  0.00    -0.368 OA
ENDBRANCH   1  18
BRANCH   1  19
ATOM     19  C   UNL     1      10.465  -0.251  23.215  0.00  0.00    +0.183 C 
BRANCH  19  20
ATOM     20  O   UNL     1      10.475  -0.835  21.876  0.00  0.00    -0.386 OA
ATOM     21  H   UNL     1      10.767  -1.761  21.976  0.00  0.00    +0.210 HD
ENDBRANCH  19  20
BRANCH  19  22
ATOM     22  C   UNL     1      10.083   1.217  23.009  0.00  0.00    +0.178 C 
BRANCH  22  23
ATOM     23  O   UNL     1      10.119   1.968  24.219  0.00  0.00    -0.386 OA
ATOM     24  H   UNL     1       9.243   2.354  24.388  0.00  0.00    +0.210 HD
ENDBRANCH  22  23
BRANCH  22  25
ATOM     25  C   UNL     1       8.678   1.279  22.316  0.00  0.00    +0.168 C 
BRANCH  25  26
ATOM     26  C   UNL     1       7.889   2.443  22.832  0.00  0.00    +0.003 C 
ATOM     27  C   UNL     1       7.481   3.510  22.128  0.00  0.00    -0.023 C 
BRANCH  27  28
ATOM     28  C   UNL     1       6.929   4.759  22.780  0.00  0.00    -0.020 C 
ATOM     29  C   UNL     1       7.304   6.020  21.987  0.00  0.00    +0.015 C 
ATOM     30  C   UNL     1       7.498   4.885  24.194  0.00  0.00    +0.015 C 
ATOM     31  C   UNL     1       5.397   4.629  22.869  0.00  0.00    +0.015 C 
ENDBRANCH  27  28
ENDBRANCH  25  26
BRANCH  25  32
ATOM     32  O   UNL     1       8.839   1.399  20.898  0.00  0.00    -0.385 OA
ATOM     33  H   UNL     1       7.939   1.432  20.529  0.00  0.00    +0.210 HD
ENDBRANCH  25  32
ENDBRANCH  22  25
ENDBRANCH  19  22
ENDBRANCH   1  19
TORSDOF 12
ENDMDL
MODEL 7
REMARK VINA RESULT:      -6.1      2.277      8.332
REMARK  Name = 
REMARK  16 active torsions:
REMARK  status: ('A' for Active; 'I' for Inactive)
REMARK    1  A    between atoms: C_1  and  O_2
REMARK    2  A    between atoms: O_2  and  C_3
REMARK    3  A    between atoms: C_3  and  C_5
REMARK    4  A    between atoms: C_3  and  C_19
REMARK    5  A    between atoms: N_7  and  C_8
REMARK    6  A    between atoms: C_12  and  O_14
REMARK    7  A    between atoms: C_19  and  O_21
REMARK    8  A    between atoms: C_19  and  C_22
REMARK    9  A    between atoms: C_22  and  O_24
REMARK   10  A    between atoms: C_22  and  C_25
REMARK   11  A    between atoms: C_25  and  O_27
REMARK   12  A    between atoms: C_25  and  C_28
REMARK   13  A    between atoms: C_29  and  C_30
REMARK   14  A    between atoms: C_30  and  C_31
REMARK   15  A    between atoms: C_30  and  C_32
REMARK   16  A    between atoms: C_30  and  C_33
REMARK                            x       y       z     vdW  Elec       q    Type
REMARK                         _______ _______ _______ _____ _____    ______ ____
ROOT
ATOM      1  C   UNL     1       7.992  -3.208  24.095  0.00  0.00    +0.234 C 
ENDROOT
BRANCH   1   2
ATOM      2  C   UNL     1       8.915  -2.007  23.661  0.00  0.00    +0.245 C 
ATOM      3  N   UNL     1       8.449  -0.722  23.630  0.00  0.00    -0.302 N 
ATOM      4  H   UNL     1       7.536  -0.535  24.018  0.00  0.00    +0.150 HD
ATOM      5  O   UNL     1      10.103  -2.215  23.392  0.00  0.00    -0.273 OA
BRANCH   3   6
ATOM      6  C   UNL     1       9.306   0.484  23.492  0.00  0.00    +0.159 C 
ATOM      7  C   UNL     1       9.382   1.031  22.058  0.00  0.00    +0.233 C 
ATOM      8  O   UNL     1      10.009   0.399  21.197  0.00  0.00    -0.274 OA
ATOM      9  N   UNL     1       8.747   2.152  21.643  0.00  0.00    -0.311 N 
ATOM     10  H   UNL     1       8.769   2.221  20.631  0.00  0.00    +0.149 HD
ATOM     11  C   UNL     1       7.833   3.053  22.320  0.00  0.00    +0.135 C 
ATOM     12  C   UNL     1       8.357   3.664  23.615  0.00  0.00    +0.132 C 
ATOM     13  C   UNL     1       8.492   2.695  24.784  0.00  0.00    +0.035 C 
ATOM     14  C   UNL     1       9.431   1.501  24.637  0.00  0.00    +0.034 C 
BRANCH  12  15
ATOM     15  O   UNL     1       9.583   4.369  23.406  0.00  0.00    -0.390 OA
ATOM     16  H   UNL     1       9.616   4.658  22.477  0.00  0.00    +0.210 HD
ENDBRANCH  12  15
ENDBRANCH   3   6
ENDBRANCH   1   2
BRANCH   1  18
ATOM     17  C   UNL     1       8.951  -5.055  25.322  0.00  0.00    +0.195 C 
ATOM     18  O   UNL     1       8.800  -4.427  24.043  0.00  0.00    -0.368 OA
ENDBRANCH   1  18
BRANCH   1  19
ATOM     19  C   UNL     1       6.609  -3.642  23.528  0.00  0.00    +0.183 C 
BRANCH  19  20
ATOM     20  O   UNL     1       5.810  -2.423  23.426  0.00  0.00    -0.386 OA
ATOM     21  H   UNL     1       5.005  -2.571  23.958  0.00  0.00    +0.210 HD
ENDBRANCH  19  20
BRANCH  19  22
ATOM     22  C   UNL     1       6.485  -4.318  22.159  0.00  0.00    +0.178 C 
BRANCH  22  23
ATOM     23  O   UNL     1       5.557  -3.656  21.304  0.00  0.00    -0.386 OA
ATOM     24  H   UNL     1       5.981  -2.877  20.905  0.00  0.00    +0.210 HD
ENDBRANCH  22  23
BRANCH  22  25
ATOM     25  C   UNL     1       6.120  -5.827  22.374  0.00  0.00    +0.168 C 
BRANCH  25  26
ATOM     26  C   UNL     1       5.537  -6.037  23.738  0.00  0.00    +0.003 C 
ATOM     27  C   UNL     1       4.369  -6.629  24.028  0.00  0.00    -0.023 C 
BRANCH  27  28
ATOM     28  C   UNL     1       3.732  -6.559  25.399  0.00  0.00    -0.020 C 
ATOM     29  C   UNL     1       4.772  -6.757  26.513  0.00  0.00    +0.015 C 
ATOM     30  C   UNL     1       2.672  -7.656  25.521  0.00  0.00    +0.015 C 
ATOM     31  C   UNL     1       3.050  -5.187  25.553  0.00  0.00    +0.015 C 
ENDBRANCH  27  28
ENDBRANCH  25  26
BRANCH  25  32
ATOM     32  O   UNL     1       5.179  -6.247  21.380  0.00  0.00    -0.385 OA
ATOM     33  H   UNL     1       5.528  -7.079  21.016  0.00  0.00    +0.210 HD
ENDBRANCH  25  32
ENDBRANCH  22  25
ENDBRANCH  19  22
ENDBRANCH   1  19
TORSDOF 12
ENDMDL
MODEL 8
REMARK VINA RESULT:      -6.1      2.324      8.257
REMARK  Name = 
REMARK  16 active torsions:
REMARK  status: ('A' for Active; 'I' for Inactive)
REMARK    1  A    between atoms: C_1  and  O_2
REMARK    2  A    between atoms: O_2  and  C_3
REMARK    3  A    between atoms: C_3  and  C_5
REMARK    4  A    between atoms: C_3  and  C_19
REMARK    5  A    between atoms: N_7  and  C_8
REMARK    6  A    between atoms: C_12  and  O_14
REMARK    7  A    between atoms: C_19  and  O_21
REMARK    8  A    between atoms: C_19  and  C_22
REMARK    9  A    between atoms: C_22  and  O_24
REMARK   10  A    between atoms: C_22  and  C_25
REMARK   11  A    between atoms: C_25  and  O_27
REMARK   12  A    between atoms: C_25  and  C_28
REMARK   13  A    between atoms: C_29  and  C_30
REMARK   14  A    between atoms: C_30  and  C_31
REMARK   15  A    between atoms: C_30  and  C_32
REMARK   16  A    between atoms: C_30  and  C_33
REMARK                            x       y       z     vdW  Elec       q    Type
REMARK                         _______ _______ _______ _____ _____    ______ ____
ROOT
ATOM      1  C   UNL     1       7.993  -3.116  22.934  0.00  0.00    +0.234 C 
ENDROOT
BRANCH   1   2
ATOM      2  C   UNL     1       8.872  -1.811  23.032  0.00  0.00    +0.245 C 
ATOM      3  N   UNL     1       8.314  -0.592  23.296  0.00  0.00    -0.302 N 
ATOM      4  H   UNL     1       7.339  -0.558  23.558  0.00  0.00    +0.150 HD
ATOM      5  O   UNL     1      10.100  -1.892  22.924  0.00  0.00    -0.273 OA
BRANCH   3   6
ATOM      6  C   UNL     1       9.081   0.626  23.664  0.00  0.00    +0.159 C 
ATOM      7  C   UNL     1       9.363   1.564  22.479  0.00  0.00    +0.233 C 
ATOM      8  O   UNL     1      10.179   1.223  21.612  0.00  0.00    -0.274 OA
ATOM      9  N   UNL     1       8.721   2.739  22.278  0.00  0.00    -0.311 N 
ATOM     10  H   UNL     1       8.914   3.096  21.348  0.00  0.00    +0.149 HD
ATOM     11  C   UNL     1       7.633   3.382  22.991  0.00  0.00    +0.135 C 
ATOM     12  C   UNL     1       7.872   3.609  24.479  0.00  0.00    +0.132 C 
ATOM     13  C   UNL     1       7.879   2.349  25.338  0.00  0.00    +0.035 C 
ATOM     14  C   UNL     1       8.922   1.275  25.048  0.00  0.00    +0.034 C 
BRANCH  12  15
ATOM     15  O   UNL     1       9.055   4.379  24.711  0.00  0.00    -0.390 OA
ATOM     16  H   UNL     1       9.750   3.781  25.035  0.00  0.00    +0.210 HD
ENDBRANCH  12  15
ENDBRANCH   3   6
ENDBRANCH   1   2
BRANCH   1  18
ATOM     17  C   UNL     1       5.926  -3.388  21.714  0.00  0.00    +0.195 C 
ATOM     18  O   UNL     1       6.599  -2.698  22.774  0.00  0.00    -0.368 OA
ENDBRANCH   1  18
BRANCH   1  19
ATOM     19  C   UNL     1       7.918  -4.329  23.908  0.00  0.00    +0.183 C 
BRANCH  19  20
ATOM     20  O   UNL     1       8.245  -5.510  23.113  0.00  0.00    -0.386 OA
ATOM     21  H   UNL     1       8.042  -5.287  22.185  0.00  0.00    +0.210 HD
ENDBRANCH  19  20
BRANCH  19  22
ATOM     22  C   UNL     1       8.820  -4.416  25.143  0.00  0.00    +0.178 C 
BRANCH  22  23
ATOM     23  O   UNL     1       9.849  -5.391  25.003  0.00  0.00    -0.386 OA
ATOM     24  H   UNL     1      10.351  -5.455  25.833  0.00  0.00    +0.210 HD
ENDBRANCH  22  23
BRANCH  22  25
ATOM     25  C   UNL     1       7.923  -4.678  26.403  0.00  0.00    +0.168 C 
BRANCH  25  26
ATOM     26  C   UNL     1       6.478  -4.733  26.015  0.00  0.00    +0.003 C 
ATOM     27  C   UNL     1       5.604  -5.706  26.316  0.00  0.00    -0.023 C 
BRANCH  27  28
ATOM     28  C   UNL     1       4.244  -5.817  25.662  0.00  0.00    -0.020 C 
ATOM     29  C   UNL     1       4.119  -7.109  24.839  0.00  0.00    +0.015 C 
ATOM     30  C   UNL     1       4.033  -4.623  24.729  0.00  0.00    +0.015 C 
ATOM     31  C   UNL     1       3.167  -5.787  26.762  0.00  0.00    +0.015 C 
ENDBRANCH  27  28
ENDBRANCH  25  26
BRANCH  25  32
ATOM     32  O   UNL     1       8.302  -5.911  27.023  0.00  0.00    -0.385 OA
ATOM     33  H   UNL     1       9.260  -6.001  26.876  0.00  0.00    +0.210 HD
ENDBRANCH  25  32
ENDBRANCH  22  25
ENDBRANCH  19  22
ENDBRANCH   1  19
TORSDOF 12
ENDMDL
MODEL 9
REMARK VINA RESULT:      -6.1      2.402      8.052
REMARK  Name = 
REMARK  16 active torsions:
REMARK  status: ('A' for Active; 'I' for Inactive)
REMARK    1  A    between atoms: C_1  and  O_2
REMARK    2  A    between atoms: O_2  and  C_3
REMARK    3  A    between atoms: C_3  and  C_5
REMARK    4  A    between atoms: C_3  and  C_19
REMARK    5  A    between atoms: N_7  and  C_8
REMARK    6  A    between atoms: C_12  and  O_14
REMARK    7  A    between atoms: C_19  and  O_21
REMARK    8  A    between atoms: C_19  and  C_22
REMARK    9  A    between atoms: C_22  and  O_24
REMARK   10  A    between atoms: C_22  and  C_25
REMARK   11  A    between atoms: C_25  and  O_27
REMARK   12  A    between atoms: C_25  and  C_28
REMARK   13  A    between atoms: C_29  and  C_30
REMARK   14  A    between atoms: C_30  and  C_31
REMARK   15  A    between atoms: C_30  and  C_32
REMARK   16  A    between atoms: C_30  and  C_33
REMARK                            x       y       z     vdW  Elec       q    Type
REMARK                         _______ _______ _______ _____ _____    ______ ____
ROOT
ATOM      1  C   UNL     1       6.849  -3.729  23.392  0.00  0.00    +0.234 C 
ENDROOT
BRANCH   1   2
ATOM      2  C   UNL     1       7.290  -2.224  23.226  0.00  0.00    +0.245 C 
ATOM      3  N   UNL     1       7.116  -1.314  24.230  0.00  0.00    -0.302 N 
ATOM      4  H   UNL     1       6.817  -1.650  25.134  0.00  0.00    +0.150 HD
ATOM      5  O   UNL     1       7.855  -1.864  22.188  0.00  0.00    -0.273 OA
BRANCH   3   6
ATOM      6  C   UNL     1       7.732   0.038  24.261  0.00  0.00    +0.159 C 
ATOM      7  C   UNL     1       9.269   0.021  24.247  0.00  0.00    +0.233 C 
ATOM      8  O   UNL     1       9.883  -0.360  25.253  0.00  0.00    -0.274 OA
ATOM      9  N   UNL     1      10.018   0.344  23.167  0.00  0.00    -0.311 N 
ATOM     10  H   UNL     1      10.986   0.078  23.312  0.00  0.00    +0.149 HD
ATOM     11  C   UNL     1       9.653   0.696  21.807  0.00  0.00    +0.135 C 
ATOM     12  C   UNL     1       8.700   1.878  21.671  0.00  0.00    +0.132 C 
ATOM     13  C   UNL     1       7.271   1.620  22.138  0.00  0.00    +0.035 C 
ATOM     14  C   UNL     1       7.038   1.239  23.597  0.00  0.00    +0.034 C 
BRANCH  12  15
ATOM     15  O   UNL     1       9.225   3.052  22.295  0.00  0.00    -0.390 OA
ATOM     16  H   UNL     1      10.165   3.129  22.060  0.00  0.00    +0.210 HD
ENDBRANCH  12  15
ENDBRANCH   3   6
ENDBRANCH   1   2
BRANCH   1  18
ATOM     17  C   UNL     1       4.708  -4.796  23.722  0.00  0.00    +0.195 C 
ATOM     18  O   UNL     1       5.584  -3.739  24.128  0.00  0.00    -0.368 OA
ENDBRANCH   1  18
BRANCH   1  19
ATOM     19  C   UNL     1       7.645  -4.928  23.983  0.00  0.00    +0.183 C 
BRANCH  19  20
ATOM     20  O   UNL     1       8.016  -5.770  22.847  0.00  0.00    -0.386 OA
ATOM     21  H   UNL     1       8.412  -5.179  22.179  0.00  0.00    +0.210 HD
ENDBRANCH  19  20
BRANCH  19  22
ATOM     22  C   UNL     1       8.945  -4.715  24.764  0.00  0.00    +0.178 C 
BRANCH  22  23
ATOM     23  O   UNL     1       9.854  -5.803  24.624  0.00  0.00    -0.386 OA
ATOM     24  H   UNL     1      10.234  -5.796  23.729  0.00  0.00    +0.210 HD
ENDBRANCH  22  23
BRANCH  22  25
ATOM     25  C   UNL     1       8.590  -4.430  26.264  0.00  0.00    +0.168 C 
BRANCH  25  26
ATOM     26  C   UNL     1       7.390  -5.226  26.679  0.00  0.00    +0.003 C 
ATOM     27  C   UNL     1       6.407  -4.824  27.499  0.00  0.00    -0.023 C 
BRANCH  27  28
ATOM     28  C   UNL     1       5.381  -5.776  28.076  0.00  0.00    -0.020 C 
ATOM     29  C   UNL     1       4.869  -6.763  27.015  0.00  0.00    +0.015 C 
ATOM     30  C   UNL     1       4.192  -4.974  28.610  0.00  0.00    +0.015 C 
ATOM     31  C   UNL     1       6.028  -6.545  29.243  0.00  0.00    +0.015 C 
ENDBRANCH  27  28
ENDBRANCH  25  26
BRANCH  25  32
ATOM     32  O   UNL     1       9.701  -4.766  27.101  0.00  0.00    -0.385 OA
ATOM     33  H   UNL     1      10.018  -5.632  26.789  0.00  0.00    +0.210 HD
ENDBRANCH  25  32
ENDBRANCH  22  25
ENDBRANCH  19  22
ENDBRANCH   1  19
TORSDOF 12
ENDMDL
