MODEL 1
REMARK VINA RESULT:      -7.3      0.000      0.000
REMARK  Name = 
REMARK  14 active torsions:
REMARK  status: ('A' for Active; 'I' for Inactive)
REMARK    1  A    between atoms: N_8  and  C_9
REMARK    2  A    between atoms: C_12  and  C_14
REMARK    3  A    between atoms: C_14  and  O_15
REMARK    4  A    between atoms: O_15  and  P_16
REMARK    5  A    between atoms: P_16  and  O_17
REMARK    6  A    between atoms: P_16  and  O_19
REMARK    7  A    between atoms: O_19  and  P_20
REMARK    8  A    between atoms: P_20  and  O_21
REMARK    9  A    between atoms: P_20  and  C_23
REMARK   10  A    between atoms: C_23  and  P_24
REMARK   11  A    between atoms: P_24  and  O_25
REMARK   12  A    between atoms: P_24  and  O_26
REMARK   13  A    between atoms: C_28  and  O_30
REMARK   14  A    between atoms: C_31  and  O_33
REMARK                            x       y       z     vdW  Elec       q    Type
REMARK                         _______ _______ _______ _____ _____    ______ ____
ROOT
ATOM      1  C   UNL     1       7.369  -3.386  23.602  0.00  0.00    +0.253 C 
ATOM      2  C   UNL     1       7.884  -4.794  23.285  0.00  0.00    +0.195 C 
ATOM      3  C   UNL     1       8.357  -5.344  24.638  0.00  0.00    +0.178 C 
ATOM      4  C   UNL     1       8.078  -4.237  25.669  0.00  0.00    +0.178 C 
ATOM      5  O   UNL     1       7.056  -3.425  25.040  0.00  0.00    -0.346 OA
ENDROOT
BRANCH   1  17
ATOM      6  N   UNL     1       5.742   1.697  22.917  0.00  0.00    -0.329 N 
ATOM      7  H   UNL     1       5.835   2.668  23.182  0.00  0.00    +0.145 HD
ATOM      8  H   UNL     1       4.953   1.234  23.354  0.00  0.00    +0.145 HD
ATOM      9  C   UNL     1       6.869   0.938  22.909  0.00  0.00    +0.195 A 
ATOM     10  N   UNL     1       8.034   1.614  22.614  0.00  0.00    -0.293 N 
ATOM     11  H   UNL     1       8.008   2.589  22.369  0.00  0.00    +0.172 HD
ATOM     12  C   UNL     1       9.285   1.031  22.564  0.00  0.00    +0.280 A 
ATOM     13  O   UNL     1      10.292   1.679  22.288  0.00  0.00    -0.265 OA
ATOM     14  C   UNL     1       9.242  -0.383  22.864  0.00  0.00    +0.172 A 
ATOM     15  N   UNL     1      10.264  -1.289  22.945  0.00  0.00    -0.229 NA
ATOM     16  C   UNL     1       9.666  -2.419  23.253  0.00  0.00    +0.203 A 
ATOM     17  N   UNL     1       8.298  -2.299  23.313  0.00  0.00    -0.285 N 
ATOM     18  C   UNL     1       8.020  -0.964  23.128  0.00  0.00    +0.171 A 
ATOM     19  N   UNL     1       6.811  -0.343  23.173  0.00  0.00    -0.196 NA
ENDBRANCH   1  17
BRANCH   2  20
ATOM     20  O   UNL     1       6.819  -5.629  22.777  0.00  0.00    -0.385 OA
ATOM     21  H   UNL     1       7.109  -6.557  22.795  0.00  0.00    +0.210 HD
ENDBRANCH   2  20
BRANCH   3  22
ATOM     22  O   UNL     1       9.746  -5.651  24.582  0.00  0.00    -0.386 OA
ATOM     23  H   UNL     1      10.232  -4.859  24.293  0.00  0.00    +0.210 HD
ENDBRANCH   3  22
BRANCH   4  24
ATOM     24  C   UNL     1       7.659  -4.827  27.051  0.00  0.00    +0.206 C 
BRANCH  24  25
ATOM     25  O   UNL     1       6.710  -5.914  27.024  0.00  0.00    -0.284 OA
BRANCH  25  26
ATOM     26  P   UNL     1       5.681  -6.007  28.291  0.00  0.00    +0.482 P 
ATOM     27  O   UNL     1       6.233  -5.459  29.565  0.00  0.00    -0.227 OA
BRANCH  26  28
ATOM     28  O   UNL     1       5.447  -7.587  28.380  0.00  0.00    -0.302 OA
ATOM     29  H   UNL     1       4.821  -7.820  29.088  0.00  0.00    +0.222 HD
ENDBRANCH  26  28
BRANCH  26  30
ATOM     30  O   UNL     1       4.263  -5.399  27.860  0.00  0.00    -0.208 OA
BRANCH  30  31
ATOM     31  P   UNL     1       3.352  -5.646  26.411  0.00  0.00    +0.350 P 
ATOM     32  O   UNL     1       3.609  -7.154  26.454  0.00  0.00    -0.258 OA
BRANCH  31  33
ATOM     33  O   UNL     1       4.618  -5.033  25.544  0.00  0.00    -0.323 OA
ATOM     34  H   UNL     1       5.167  -5.793  25.249  0.00  0.00    +0.220 HD
ENDBRANCH  31  33
BRANCH  31  35
ATOM     35  C   UNL     1       2.387  -5.907  24.878  0.00  0.00    +0.254 C 
BRANCH  35  36
ATOM     36  P   UNL     1       3.375  -6.204  23.411  0.00  0.00    +0.339 P 
ATOM     37  O   UNL     1       3.889  -4.938  22.816  0.00  0.00    -0.258 OA
BRANCH  36  38
ATOM     38  O   UNL     1       2.414  -7.085  22.479  0.00  0.00    -0.324 OA
ATOM     39  H   UNL     1       1.702  -7.595  22.904  0.00  0.00    +0.220 HD
ENDBRANCH  36  38
BRANCH  36  40
ATOM     40  O   UNL     1       4.468  -7.274  23.886  0.00  0.00    -0.324 OA
ATOM     41  H   UNL     1       5.101  -6.948  24.565  0.00  0.00    +0.220 HD
ENDBRANCH  36  40
ENDBRANCH  35  36
ENDBRANCH  31  35
ENDBRANCH  30  31
ENDBRANCH  26  30
ENDBRANCH  25  26
ENDBRANCH  24  25
ENDBRANCH   4  24
TORSDOF 14
ENDMDL
MODEL 2
REMARK VINA RESULT:      -6.9      4.566      8.431
REMARK  Name = 
REMARK  14 active torsions:
REMARK  status: ('A' for Active; 'I' for Inactive)
REMARK    1  A    between atoms: N_8  and  C_9
REMARK    2  A    between atoms: C_12  and  C_14
REMARK    3  A    between atoms: C_14  and  O_15
REMARK    4  A    between atoms: O_15  and  P_16
REMARK    5  A    between atoms: P_16  and  O_17
REMARK    6  A    between atoms: P_16  and  O_19
REMARK    7  A    between atoms: O_19  and  P_20
REMARK    8  A    between atoms: P_20  and  O_21
REMARK    9  A    between atoms: P_20  and  C_23
REMARK   10  A    between atoms: C_23  and  P_24
REMARK   11  A    between atoms: P_24  and  O_25
REMARK   12  A    between atoms: P_24  and  O_26
REMARK   13  A    between atoms: C_28  and  O_30
REMARK   14  A    between atoms: C_31  and  O_33
REMARK                            x       y       z     vdW  Elec       q    Type
REMARK                         _______ _______ _______ _____ _____    ______ ____
ROOT
ATOM      1  C   UNL     1       7.278  -4.119  23.452  0.00  0.00    +0.253 C 
ATOM      2  C   UNL     1       6.127  -3.198  23.033  0.00  0.00    +0.195 C 
ATOM      3  C   UNL     1       6.771  -1.809  22.913  0.00  0.00    +0.178 C 
ATOM      4  C   UNL     1       8.259  -1.999  23.253  0.00  0.00    +0.178 C 
ATOM      5  O   UNL     1       8.493  -3.410  23.019  0.00  0.00    -0.346 OA
ENDROOT
BRANCH   1  17
ATOM      6  N   UNL     1       3.848  -7.500  25.852  0.00  0.00    -0.329 N 
ATOM      7  H   UNL     1       3.718  -8.319  26.431  0.00  0.00    +0.145 HD
ATOM      8  H   UNL     1       3.736  -7.685  24.862  0.00  0.00    +0.145 HD
ATOM      9  C   UNL     1       4.910  -6.698  26.129  0.00  0.00    +0.195 A 
ATOM     10  N   UNL     1       5.293  -6.663  27.454  0.00  0.00    -0.293 N 
ATOM     11  H   UNL     1       4.765  -7.161  28.149  0.00  0.00    +0.172 HD
ATOM     12  C   UNL     1       6.350  -5.920  27.941  0.00  0.00    +0.280 A 
ATOM     13  O   UNL     1       6.645  -5.919  29.135  0.00  0.00    -0.265 OA
ATOM     14  C   UNL     1       7.025  -5.179  26.900  0.00  0.00    +0.172 A 
ATOM     15  N   UNL     1       8.123  -4.366  26.978  0.00  0.00    -0.229 NA
ATOM     16  C   UNL     1       8.311  -3.961  25.741  0.00  0.00    +0.203 A 
ATOM     17  N   UNL     1       7.348  -4.425  24.877  0.00  0.00    -0.285 N 
ATOM     18  C   UNL     1       6.548  -5.272  25.609  0.00  0.00    +0.171 A 
ATOM     19  N   UNL     1       5.503  -6.026  25.176  0.00  0.00    -0.196 NA
ENDBRANCH   1  17
BRANCH   2  20
ATOM     20  O   UNL     1       5.598  -3.589  21.746  0.00  0.00    -0.385 OA
ATOM     21  H   UNL     1       6.323  -3.931  21.196  0.00  0.00    +0.210 HD
ENDBRANCH   2  20
BRANCH   3  22
ATOM     22  O   UNL     1       6.151  -0.904  23.822  0.00  0.00    -0.386 OA
ATOM     23  H   UNL     1       6.763  -0.169  23.999  0.00  0.00    +0.210 HD
ENDBRANCH   3  22
BRANCH   4  24
ATOM     24  C   UNL     1       9.170  -1.056  22.408  0.00  0.00    +0.206 C 
BRANCH  24  25
ATOM     25  O   UNL     1      10.262  -0.423  23.108  0.00  0.00    -0.284 OA
BRANCH  25  26
ATOM     26  P   UNL     1       9.898   0.941  23.934  0.00  0.00    +0.482 P 
ATOM     27  O   UNL     1      10.812   2.087  23.649  0.00  0.00    -0.227 OA
BRANCH  26  28
ATOM     28  O   UNL     1      10.045   0.431  25.444  0.00  0.00    -0.302 OA
ATOM     29  H   UNL     1       9.793  -0.505  25.535  0.00  0.00    +0.222 HD
ENDBRANCH  26  28
BRANCH  26  30
ATOM     30  O   UNL     1       8.341   1.264  23.752  0.00  0.00    -0.208 OA
BRANCH  30  31
ATOM     31  P   UNL     1       7.577   2.594  22.953  0.00  0.00    +0.350 P 
ATOM     32  O   UNL     1       6.495   1.681  22.372  0.00  0.00    -0.258 OA
BRANCH  31  33
ATOM     33  O   UNL     1       8.785   2.576  21.827  0.00  0.00    -0.323 OA
ATOM     34  H   UNL     1       9.396   3.317  22.039  0.00  0.00    +0.220 HD
ENDBRANCH  31  33
BRANCH  31  35
ATOM     35  C   UNL     1       6.769   4.003  22.109  0.00  0.00    +0.254 C 
BRANCH  35  36
ATOM     36  P   UNL     1       7.388   5.618  22.582  0.00  0.00    +0.339 P 
ATOM     37  O   UNL     1       6.565   6.241  23.657  0.00  0.00    -0.258 OA
BRANCH  36  38
ATOM     38  O   UNL     1       7.463   6.416  21.195  0.00  0.00    -0.324 OA
ATOM     39  H   UNL     1       6.628   6.670  20.764  0.00  0.00    +0.220 HD
ENDBRANCH  36  38
BRANCH  36  40
ATOM     40  O   UNL     1       8.934   5.361  22.915  0.00  0.00    -0.324 OA
ATOM     41  H   UNL     1       9.197   4.414  22.961  0.00  0.00    +0.220 HD
ENDBRANCH  36  40
ENDBRANCH  35  36
ENDBRANCH  31  35
ENDBRANCH  30  31
ENDBRANCH  26  30
ENDBRANCH  25  26
ENDBRANCH  24  25
ENDBRANCH   4  24
TORSDOF 14
ENDMDL
MODEL 3
REMARK VINA RESULT:      -6.5      4.865      9.065
REMARK  Name = 
REMARK  14 active torsions:
REMARK  status: ('A' for Active; 'I' for Inactive)
REMARK    1  A    between atoms: N_8  and  C_9
REMARK    2  A    between atoms: C_12  and  C_14
REMARK    3  A    between atoms: C_14  and  O_15
REMARK    4  A    between atoms: O_15  and  P_16
REMARK    5  A    between atoms: P_16  and  O_17
REMARK    6  A    between atoms: P_16  and  O_19
REMARK    7  A    between atoms: O_19  and  P_20
REMARK    8  A    between atoms: P_20  and  O_21
REMARK    9  A    between atoms: P_20  and  C_23
REMARK   10  A    between atoms: C_23  and  P_24
REMARK   11  A    between atoms: P_24  and  O_25
REMARK   12  A    between atoms: P_24  and  O_26
REMARK   13  A    between atoms: C_28  and  O_30
REMARK   14  A    between atoms: C_31  and  O_33
REMARK                            x       y       z     vdW  Elec       q    Type
REMARK                         _______ _______ _______ _____ _____    ______ ____
ROOT
ATOM      1  C   UNL     1       9.058  -2.822  23.632  0.00  0.00    +0.253 C 
ATOM      2  C   UNL     1       8.645  -1.988  22.415  0.00  0.00    +0.195 C 
ATOM      3  C   UNL     1       8.233  -0.630  23.002  0.00  0.00    +0.178 C 
ATOM      4  C   UNL     1       8.443  -0.742  24.522  0.00  0.00    +0.178 C 
ATOM      5  O   UNL     1       9.393  -1.826  24.663  0.00  0.00    -0.346 OA
ENDROOT
BRANCH   1  17
ATOM      6  N   UNL     1       6.083  -5.880  20.352  0.00  0.00    -0.329 N 
ATOM      7  H   UNL     1       5.756  -6.805  20.107  0.00  0.00    +0.145 HD
ATOM      8  H   UNL     1       6.850  -5.557  19.772  0.00  0.00    +0.145 HD
ATOM      9  C   UNL     1       6.259  -5.605  21.672  0.00  0.00    +0.195 A 
ATOM     10  N   UNL     1       5.416  -6.279  22.531  0.00  0.00    -0.293 N 
ATOM     11  H   UNL     1       4.695  -6.879  22.170  0.00  0.00    +0.172 HD
ATOM     12  C   UNL     1       5.437  -6.150  23.906  0.00  0.00    +0.280 A 
ATOM     13  O   UNL     1       4.658  -6.769  24.627  0.00  0.00    -0.265 OA
ATOM     14  C   UNL     1       6.454  -5.224  24.354  0.00  0.00    +0.172 A 
ATOM     15  N   UNL     1       6.804  -4.860  25.625  0.00  0.00    -0.229 NA
ATOM     16  C   UNL     1       7.786  -4.003  25.454  0.00  0.00    +0.203 A 
ATOM     17  N   UNL     1       8.047  -3.749  24.128  0.00  0.00    -0.285 N 
ATOM     18  C   UNL     1       7.232  -4.590  23.407  0.00  0.00    +0.171 A 
ATOM     19  N   UNL     1       7.177  -4.757  22.059  0.00  0.00    -0.196 NA
ENDBRANCH   1  17
BRANCH   2  20
ATOM     20  O   UNL     1       9.763  -1.799  21.518  0.00  0.00    -0.385 OA
ATOM     21  H   UNL     1       9.926  -2.628  21.036  0.00  0.00    +0.210 HD
ENDBRANCH   2  20
BRANCH   3  22
ATOM     22  O   UNL     1       6.870  -0.359  22.693  0.00  0.00    -0.386 OA
ATOM     23  H   UNL     1       6.316  -1.063  23.070  0.00  0.00    +0.210 HD
ENDBRANCH   3  22
BRANCH   4  24
ATOM     24  C   UNL     1       8.922   0.607  25.140  0.00  0.00    +0.206 C 
BRANCH  24  25
ATOM     25  O   UNL     1       8.684   1.794  24.352  0.00  0.00    -0.284 OA
BRANCH  25  26
ATOM     26  P   UNL     1       7.319   2.627  24.694  0.00  0.00    +0.482 P 
ATOM     27  O   UNL     1       6.478   2.006  25.761  0.00  0.00    -0.227 OA
BRANCH  26  28
ATOM     28  O   UNL     1       6.582   2.603  23.274  0.00  0.00    -0.302 OA
ATOM     29  H   UNL     1       6.207   1.726  23.077  0.00  0.00    +0.222 HD
ENDBRANCH  26  28
BRANCH  26  30
ATOM     30  O   UNL     1       7.692   4.163  24.945  0.00  0.00    -0.208 OA
BRANCH  30  31
ATOM     31  P   UNL     1       9.025   5.087  24.344  0.00  0.00    +0.350 P 
ATOM     32  O   UNL     1       8.119   6.285  24.050  0.00  0.00    -0.258 OA
BRANCH  31  33
ATOM     33  O   UNL     1       8.988   4.188  22.959  0.00  0.00    -0.323 OA
ATOM     34  H   UNL     1       9.882   3.796  22.838  0.00  0.00    +0.220 HD
ENDBRANCH  31  33
BRANCH  31  35
ATOM     35  C   UNL     1      10.436   6.064  23.709  0.00  0.00    +0.254 C 
BRANCH  35  36
ATOM     36  P   UNL     1      11.918   5.112  23.372  0.00  0.00    +0.339 P 
ATOM     37  O   UNL     1      11.720   3.658  23.627  0.00  0.00    -0.258 OA
BRANCH  36  38
ATOM     38  O   UNL     1      13.043   5.838  24.252  0.00  0.00    -0.324 OA
ATOM     39  H   UNL     1      13.179   5.534  25.167  0.00  0.00    +0.220 HD
ENDBRANCH  36  38
BRANCH  36  40
ATOM     40  O   UNL     1      12.323   5.535  21.881  0.00  0.00    -0.324 OA
ATOM     41  H   UNL     1      12.298   4.806  21.221  0.00  0.00    +0.220 HD
ENDBRANCH  36  40
ENDBRANCH  35  36
ENDBRANCH  31  35
ENDBRANCH  30  31
ENDBRANCH  26  30
ENDBRANCH  25  26
ENDBRANCH  24  25
ENDBRANCH   4  24
TORSDOF 14
ENDMDL
MODEL 4
REMARK VINA RESULT:      -6.5      2.453      3.345
REMARK  Name = 
REMARK  14 active torsions:
REMARK  status: ('A' for Active; 'I' for Inactive)
REMARK    1  A    between atoms: N_8  and  C_9
REMARK    2  A    between atoms: C_12  and  C_14
REMARK    3  A    between atoms: C_14  and  O_15
REMARK    4  A    between atoms: O_15  and  P_16
REMARK    5  A    between atoms: P_16  and  O_17
REMARK    6  A    between atoms: P_16  and  O_19
REMARK    7  A    between atoms: O_19  and  P_20
REMARK    8  A    between atoms: P_20  and  O_21
REMARK    9  A    between atoms: P_20  and  C_23
REMARK   10  A    between atoms: C_23  and  P_24
REMARK   11  A    between atoms: P_24  and  O_25
REMARK   12  A    between atoms: P_24  and  O_26
REMARK   13  A    between atoms: C_28  and  O_30
REMARK   14  A    between atoms: C_31  and  O_33
REMARK                            x       y       z     vdW  Elec       q    Type
REMARK                         _______ _______ _______ _____ _____    ______ ____
ROOT
ATOM      1  C   UNL     1       7.706   0.255  25.249  0.00  0.00    +0.253 C 
ATOM      2  C   UNL     1       7.005  -0.597  24.185  0.00  0.00    +0.195 C 
ATOM      3  C   UNL     1       7.482  -2.029  24.465  0.00  0.00    +0.178 C 
ATOM      4  C   UNL     1       8.419  -1.936  25.681  0.00  0.00    +0.178 C 
ATOM      5  O   UNL     1       8.034  -0.696  26.323  0.00  0.00    -0.346 OA
ENDROOT
BRANCH   1  17
ATOM      6  N   UNL     1       7.623   5.367  23.570  0.00  0.00    -0.329 N 
ATOM      7  H   UNL     1       7.999   6.301  23.654  0.00  0.00    +0.145 HD
ATOM      8  H   UNL     1       6.739   5.243  24.053  0.00  0.00    +0.145 HD
ATOM      9  C   UNL     1       8.479   4.327  23.748  0.00  0.00    +0.195 A 
ATOM     10  N   UNL     1       9.786   4.569  23.381  0.00  0.00    -0.293 N 
ATOM     11  H   UNL     1      10.042   5.444  22.959  0.00  0.00    +0.172 HD
ATOM     12  C   UNL     1      10.811   3.650  23.490  0.00  0.00    +0.280 A 
ATOM     13  O   UNL     1      11.959   3.915  23.141  0.00  0.00    -0.265 OA
ATOM     14  C   UNL     1      10.362   2.392  24.044  0.00  0.00    +0.172 A 
ATOM     15  N   UNL     1      11.076   1.262  24.334  0.00  0.00    -0.229 NA
ATOM     16  C   UNL     1      10.179   0.432  24.820  0.00  0.00    +0.203 A 
ATOM     17  N   UNL     1       8.907   0.952  24.801  0.00  0.00    -0.285 N 
ATOM     18  C   UNL     1       9.027   2.250  24.362  0.00  0.00    +0.171 A 
ATOM     19  N   UNL     1       8.054   3.191  24.242  0.00  0.00    -0.196 NA
ENDBRANCH   1  17
BRANCH   2  20
ATOM     20  O   UNL     1       5.569  -0.535  24.341  0.00  0.00    -0.385 OA
ATOM     21  H   UNL     1       5.354   0.097  25.048  0.00  0.00    +0.210 HD
ENDBRANCH   2  20
BRANCH   3  22
ATOM     22  O   UNL     1       8.169  -2.545  23.329  0.00  0.00    -0.386 OA
ATOM     23  H   UNL     1       7.581  -2.494  22.556  0.00  0.00    +0.210 HD
ENDBRANCH   3  22
BRANCH   4  24
ATOM     24  C   UNL     1       8.300  -3.191  26.600  0.00  0.00    +0.206 C 
BRANCH  24  25
ATOM     25  O   UNL     1       6.962  -3.593  26.966  0.00  0.00    -0.284 OA
BRANCH  25  26
ATOM     26  P   UNL     1       6.748  -5.181  27.292  0.00  0.00    +0.482 P 
ATOM     27  O   UNL     1       6.473  -5.475  28.730  0.00  0.00    -0.227 OA
BRANCH  26  28
ATOM     28  O   UNL     1       8.156  -5.782  26.826  0.00  0.00    -0.302 OA
ATOM     29  H   UNL     1       8.897  -5.389  27.321  0.00  0.00    +0.222 HD
ENDBRANCH  26  28
BRANCH  26  30
ATOM     30  O   UNL     1       5.676  -5.786  26.268  0.00  0.00    -0.208 OA
BRANCH  30  31
ATOM     31  P   UNL     1       5.409  -5.410  24.601  0.00  0.00    +0.350 P 
ATOM     32  O   UNL     1       4.967  -6.845  24.303  0.00  0.00    -0.258 OA
BRANCH  31  33
ATOM     33  O   UNL     1       7.044  -5.421  24.365  0.00  0.00    -0.323 OA
ATOM     34  H   UNL     1       7.412  -4.629  24.817  0.00  0.00    +0.220 HD
ENDBRANCH  31  33
BRANCH  31  35
ATOM     35  C   UNL     1       5.125  -5.012  22.838  0.00  0.00    +0.254 C 
BRANCH  35  36
ATOM     36  P   UNL     1       6.418  -5.567  21.725  0.00  0.00    +0.339 P 
ATOM     37  O   UNL     1       7.646  -4.730  21.830  0.00  0.00    -0.258 OA
BRANCH  36  38
ATOM     38  O   UNL     1       5.699  -5.593  20.293  0.00  0.00    -0.324 OA
ATOM     39  H   UNL     1       5.713  -6.424  19.787  0.00  0.00    +0.220 HD
ENDBRANCH  36  38
BRANCH  36  40
ATOM     40  O   UNL     1       6.576  -7.126  22.058  0.00  0.00    -0.324 OA
ATOM     41  H   UNL     1       6.332  -7.734  21.324  0.00  0.00    +0.220 HD
ENDBRANCH  36  40
ENDBRANCH  35  36
ENDBRANCH  31  35
ENDBRANCH  30  31
ENDBRANCH  26  30
ENDBRANCH  25  26
ENDBRANCH  24  25
ENDBRANCH   4  24
TORSDOF 14
ENDMDL
MODEL 5
REMARK VINA RESULT:      -6.5      4.437      7.675
REMARK  Name = 
REMARK  14 active torsions:
REMARK  status: ('A' for Active; 'I' for Inactive)
REMARK    1  A    between atoms: N_8  and  C_9
REMARK    2  A    between atoms: C_12  and  C_14
REMARK    3  A    between atoms: C_14  and  O_15
REMARK    4  A    between atoms: O_15  and  P_16
REMARK    5  A    between atoms: P_16  and  O_17
REMARK    6  A    between atoms: P_16  and  O_19
REMARK    7  A    between atoms: O_19  and  P_20
REMARK    8  A    between atoms: P_20  and  O_21
REMARK    9  A    between atoms: P_20  and  C_23
REMARK   10  A    between atoms: C_23  and  P_24
REMARK   11  A    between atoms: P_24  and  O_25
REMARK   12  A    between atoms: P_24  and  O_26
REMARK   13  A    between atoms: C_28  and  O_30
REMARK   14  A    between atoms: C_31  and  O_33
REMARK                            x       y       z     vdW  Elec       q    Type
REMARK                         _______ _______ _______ _____ _____    ______ ____
ROOT
ATOM      1  C   UNL     1       7.901  -4.572  25.287  0.00  0.00    +0.253 C 
ATOM      2  C   UNL     1       8.629  -3.729  24.235  0.00  0.00    +0.195 C 
ATOM      3  C   UNL     1       8.131  -2.298  24.478  0.00  0.00    +0.178 C 
ATOM      4  C   UNL     1       7.155  -2.382  25.664  0.00  0.00    +0.178 C 
ATOM      5  O   UNL     1       7.529  -3.610  26.336  0.00  0.00    -0.346 OA
ENDROOT
BRANCH   1  17
ATOM      6  N   UNL     1       4.637  -7.289  28.592  0.00  0.00    -0.329 N 
ATOM      7  H   UNL     1       3.696  -7.449  28.924  0.00  0.00    +0.145 HD
ATOM      8  H   UNL     1       5.187  -6.698  29.206  0.00  0.00    +0.145 HD
ATOM      9  C   UNL     1       4.795  -6.986  27.277  0.00  0.00    +0.195 A 
ATOM     10  N   UNL     1       3.859  -7.537  26.428  0.00  0.00    -0.293 N 
ATOM     11  H   UNL     1       3.156  -8.162  26.782  0.00  0.00    +0.172 HD
ATOM     12  C   UNL     1       3.835  -7.344  25.060  0.00  0.00    +0.280 A 
ATOM     13  O   UNL     1       2.981  -7.865  24.347  0.00  0.00    -0.265 OA
ATOM     14  C   UNL     1       4.910  -6.488  24.609  0.00  0.00    +0.172 A 
ATOM     15  N   UNL     1       5.200  -6.042  23.349  0.00  0.00    -0.229 NA
ATOM     16  C   UNL     1       6.269  -5.295  23.512  0.00  0.00    +0.203 A 
ATOM     17  N   UNL     1       6.721  -5.286  24.810  0.00  0.00    -0.285 N 
ATOM     18  C   UNL     1       5.803  -6.004  25.542  0.00  0.00    +0.171 A 
ATOM     19  N   UNL     1       5.780  -6.217  26.884  0.00  0.00    -0.196 NA
ENDBRANCH   1  17
BRANCH   2  20
ATOM     20  O   UNL     1      10.060  -3.777  24.439  0.00  0.00    -0.385 OA
ATOM     21  H   UNL     1      10.480  -4.152  23.646  0.00  0.00    +0.210 HD
ENDBRANCH   2  20
BRANCH   3  22
ATOM     22  O   UNL     1       7.478  -1.804  23.314  0.00  0.00    -0.386 OA
ATOM     23  H   UNL     1       6.537  -1.664  23.516  0.00  0.00    +0.210 HD
ENDBRANCH   3  22
BRANCH   4  24
ATOM     24  C   UNL     1       7.233  -1.113  26.569  0.00  0.00    +0.206 C 
BRANCH  24  25
ATOM     25  O   UNL     1       7.188   0.161  25.891  0.00  0.00    -0.284 OA
BRANCH  25  26
ATOM     26  P   UNL     1       5.775   0.978  25.983  0.00  0.00    +0.482 P 
ATOM     27  O   UNL     1       5.477   1.529  27.339  0.00  0.00    -0.227 OA
BRANCH  26  28
ATOM     28  O   UNL     1       4.733  -0.164  25.569  0.00  0.00    -0.302 OA
ATOM     29  H   UNL     1       5.182  -0.942  25.194  0.00  0.00    +0.222 HD
ENDBRANCH  26  28
BRANCH  26  30
ATOM     30  O   UNL     1       5.712   2.051  24.796  0.00  0.00    -0.208 OA
BRANCH  30  31
ATOM     31  P   UNL     1       6.647   2.145  23.344  0.00  0.00    +0.350 P 
ATOM     32  O   UNL     1       5.565   2.974  22.649  0.00  0.00    -0.258 OA
BRANCH  31  33
ATOM     33  O   UNL     1       6.244   0.577  23.016  0.00  0.00    -0.323 OA
ATOM     34  H   UNL     1       6.943   0.209  22.430  0.00  0.00    +0.220 HD
ENDBRANCH  31  33
BRANCH  31  35
ATOM     35  C   UNL     1       7.637   2.244  21.808  0.00  0.00    +0.254 C 
BRANCH  35  36
ATOM     36  P   UNL     1       9.130   1.252  21.811  0.00  0.00    +0.339 P 
ATOM     37  O   UNL     1       9.085   0.168  20.790  0.00  0.00    -0.258 OA
BRANCH  36  38
ATOM     38  O   UNL     1       9.269   0.781  23.337  0.00  0.00    -0.324 OA
ATOM     39  H   UNL     1       8.494   0.872  23.918  0.00  0.00    +0.220 HD
ENDBRANCH  36  38
BRANCH  36  40
ATOM     40  O   UNL     1      10.312   2.324  21.674  0.00  0.00    -0.324 OA
ATOM     41  H   UNL     1      11.138   2.097  22.159  0.00  0.00    +0.220 HD
ENDBRANCH  36  40
ENDBRANCH  35  36
ENDBRANCH  31  35
ENDBRANCH  30  31
ENDBRANCH  26  30
ENDBRANCH  25  26
ENDBRANCH  24  25
ENDBRANCH   4  24
TORSDOF 14
ENDMDL
MODEL 6
REMARK VINA RESULT:      -6.5      2.463      3.903
REMARK  Name = 
REMARK  14 active torsions:
REMARK  status: ('A' for Active; 'I' for Inactive)
REMARK    1  A    between atoms: N_8  and  C_9
REMARK    2  A    between atoms: C_12  and  C_14
REMARK    3  A    between atoms: C_14  and  O_15
REMARK    4  A    between atoms: O_15  and  P_16
REMARK    5  A    between atoms: P_16  and  O_17
REMARK    6  A    between atoms: P_16  and  O_19
REMARK    7  A    between atoms: O_19  and  P_20
REMARK    8  A    between atoms: P_20  and  O_21
REMARK    9  A    between atoms: P_20  and  C_23
REMARK   10  A    between atoms: C_23  and  P_24
REMARK   11  A    between atoms: P_24  and  O_25
REMARK   12  A    between atoms: P_24  and  O_26
REMARK   13  A    between atoms: C_28  and  O_30
REMARK   14  A    between atoms: C_31  and  O_33
REMARK                            x       y       z     vdW  Elec       q    Type
REMARK                         _______ _______ _______ _____ _____    ______ ____
ROOT
ATOM      1  C   UNL     1       7.328  -0.134  23.980  0.00  0.00    +0.253 C 
ATOM      2  C   UNL     1       7.255  -0.844  22.625  0.00  0.00    +0.195 C 
ATOM      3  C   UNL     1       8.493  -1.752  22.599  0.00  0.00    +0.178 C 
ATOM      4  C   UNL     1       9.209  -1.533  23.944  0.00  0.00    +0.178 C 
ATOM      5  O   UNL     1       8.171  -1.010  24.809  0.00  0.00    -0.346 OA
ENDROOT
BRANCH   1  17
ATOM      6  N   UNL     1       4.591   4.045  21.979  0.00  0.00    -0.329 N 
ATOM      7  H   UNL     1       4.234   4.980  22.119  0.00  0.00    +0.145 HD
ATOM      8  H   UNL     1       3.891   3.323  22.112  0.00  0.00    +0.145 HD
ATOM      9  C   UNL     1       5.789   3.738  22.543  0.00  0.00    +0.195 A 
ATOM     10  N   UNL     1       6.671   4.791  22.662  0.00  0.00    -0.293 N 
ATOM     11  H   UNL     1       6.435   5.696  22.294  0.00  0.00    +0.172 HD
ATOM     12  C   UNL     1       7.933   4.694  23.215  0.00  0.00    +0.280 A 
ATOM     13  O   UNL     1       8.684   5.664  23.291  0.00  0.00    -0.265 OA
ATOM     14  C   UNL     1       8.232   3.353  23.666  0.00  0.00    +0.172 A 
ATOM     15  N   UNL     1       9.350   2.870  24.288  0.00  0.00    -0.229 NA
ATOM     16  C   UNL     1       9.087   1.596  24.477  0.00  0.00    +0.203 A 
ATOM     17  N   UNL     1       7.875   1.219  23.950  0.00  0.00    -0.285 N 
ATOM     18  C   UNL     1       7.283   2.369  23.482  0.00  0.00    +0.171 A 
ATOM     19  N   UNL     1       6.047   2.517  22.936  0.00  0.00    -0.196 NA
ENDBRANCH   1  17
BRANCH   2  20
ATOM     20  O   UNL     1       6.065  -1.660  22.535  0.00  0.00    -0.385 OA
ATOM     21  H   UNL     1       6.283  -2.569  22.803  0.00  0.00    +0.210 HD
ENDBRANCH   2  20
BRANCH   3  22
ATOM     22  O   UNL     1       9.336  -1.397  21.508  0.00  0.00    -0.386 OA
ATOM     23  H   UNL     1      10.186  -1.859  21.605  0.00  0.00    +0.210 HD
ENDBRANCH   3  22
BRANCH   4  24
ATOM     24  C   UNL     1       9.870  -2.846  24.466  0.00  0.00    +0.206 C 
BRANCH  24  25
ATOM     25  O   UNL     1       9.189  -3.522  25.545  0.00  0.00    -0.284 OA
BRANCH  25  26
ATOM     26  P   UNL     1       8.902  -5.117  25.332  0.00  0.00    +0.482 P 
ATOM     27  O   UNL     1       8.061  -5.733  26.402  0.00  0.00    -0.227 OA
BRANCH  26  28
ATOM     28  O   UNL     1      10.392  -5.701  25.345  0.00  0.00    -0.302 OA
ATOM     29  H   UNL     1      10.920  -5.326  26.072  0.00  0.00    +0.222 HD
ENDBRANCH  26  28
BRANCH  26  30
ATOM     30  O   UNL     1       8.372  -5.360  23.841  0.00  0.00    -0.208 OA
BRANCH  30  31
ATOM     31  P   UNL     1       6.758  -5.297  23.221  0.00  0.00    +0.350 P 
ATOM     32  O   UNL     1       7.230  -4.594  21.946  0.00  0.00    -0.258 OA
BRANCH  31  33
ATOM     33  O   UNL     1       6.430  -4.069  24.276  0.00  0.00    -0.323 OA
ATOM     34  H   UNL     1       6.780  -3.240  23.880  0.00  0.00    +0.220 HD
ENDBRANCH  31  33
BRANCH  31  35
ATOM     35  C   UNL     1       5.051  -5.231  22.565  0.00  0.00    +0.254 C 
BRANCH  35  36
ATOM     36  P   UNL     1       3.814  -5.998  23.612  0.00  0.00    +0.339 P 
ATOM     37  O   UNL     1       2.443  -5.877  23.041  0.00  0.00    -0.258 OA
BRANCH  36  38
ATOM     38  O   UNL     1       4.049  -5.311  25.041  0.00  0.00    -0.324 OA
ATOM     39  H   UNL     1       3.527  -5.633  25.797  0.00  0.00    +0.220 HD
ENDBRANCH  36  38
BRANCH  36  40
ATOM     40  O   UNL     1       4.369  -7.482  23.850  0.00  0.00    -0.324 OA
ATOM     41  H   UNL     1       5.349  -7.556  23.901  0.00  0.00    +0.220 HD
ENDBRANCH  36  40
ENDBRANCH  35  36
ENDBRANCH  31  35
ENDBRANCH  30  31
ENDBRANCH  26  30
ENDBRANCH  25  26
ENDBRANCH  24  25
ENDBRANCH   4  24
TORSDOF 14
ENDMDL
MODEL 7
REMARK VINA RESULT:      -6.4      4.482      8.265
REMARK  Name = 
REMARK  14 active torsions:
REMARK  status: ('A' for Active; 'I' for Inactive)
REMARK    1  A    between atoms: N_8  and  C_9
REMARK    2  A    between atoms: C_12  and  C_14
REMARK    3  A    between atoms: C_14  and  O_15
REMARK    4  A    between atoms: O_15  and  P_16
REMARK    5  A    between atoms: P_16  and  O_17
REMARK    6  A    between atoms: P_16  and  O_19
REMARK    7  A    between atoms: O_19  and  P_20
REMARK    8  A    between atoms: P_20  and  O_21
REMARK    9  A    between atoms: P_20  and  C_23
REMARK   10  A    between atoms: C_23  and  P_24
REMARK   11  A    between atoms: P_24  and  O_25
REMARK   12  A    between atoms: P_24  and  O_26
REMARK   13  A    between atoms: C_28  and  O_30
REMARK   14  A    between atoms: C_31  and  O_33
REMARK                            x       y       z     vdW  Elec       q    Type
REMARK                         _______ _______ _______ _____ _____    ______ ____
ROOT
ATOM      1  C   UNL     1       8.177  -4.875  26.037  0.00  0.00    +0.253 C 
ATOM      2  C   UNL     1       9.108  -4.764  24.826  0.00  0.00    +0.195 C 
ATOM      3  C   UNL     1       9.105  -3.270  24.474  0.00  0.00    +0.178 C 
ATOM      4  C   UNL     1       8.187  -2.592  25.506  0.00  0.00    +0.178 C 
ATOM      5  O   UNL     1       8.165  -3.522  26.617  0.00  0.00    -0.346 OA
ENDROOT
BRANCH   1  17
ATOM      6  N   UNL     1       6.430  -5.711  21.017  0.00  0.00    -0.329 N 
ATOM      7  H   UNL     1       5.991  -6.339  20.357  0.00  0.00    +0.145 HD
ATOM      8  H   UNL     1       7.439  -5.679  20.932  0.00  0.00    +0.145 HD
ATOM      9  C   UNL     1       6.002  -5.757  22.306  0.00  0.00    +0.195 A 
ATOM     10  N   UNL     1       4.680  -6.108  22.477  0.00  0.00    -0.293 N 
ATOM     11  H   UNL     1       4.085  -6.255  21.680  0.00  0.00    +0.172 HD
ATOM     12  C   UNL     1       4.054  -6.221  23.703  0.00  0.00    +0.280 A 
ATOM     13  O   UNL     1       2.868  -6.531  23.800  0.00  0.00    -0.265 OA
ATOM     14  C   UNL     1       4.948  -5.934  24.803  0.00  0.00    +0.172 A 
ATOM     15  N   UNL     1       4.714  -5.971  26.150  0.00  0.00    -0.229 NA
ATOM     16  C   UNL     1       5.866  -5.632  26.685  0.00  0.00    +0.203 A 
ATOM     17  N   UNL     1       6.817  -5.316  25.745  0.00  0.00    -0.285 N 
ATOM     18  C   UNL     1       6.249  -5.576  24.519  0.00  0.00    +0.171 A 
ATOM     19  N   UNL     1       6.822  -5.485  23.290  0.00  0.00    -0.196 NA
ENDBRANCH   1  17
BRANCH   2  20
ATOM     20  O   UNL     1      10.453  -5.169  25.171  0.00  0.00    -0.385 OA
ATOM     21  H   UNL     1      10.409  -5.921  25.786  0.00  0.00    +0.210 HD
ENDBRANCH   2  20
BRANCH   3  22
ATOM     22  O   UNL     1       8.612  -3.081  23.152  0.00  0.00    -0.386 OA
ATOM     23  H   UNL     1       7.687  -2.787  23.199  0.00  0.00    +0.210 HD
ENDBRANCH   3  22
BRANCH   4  24
ATOM     24  C   UNL     1       8.695  -1.166  25.882  0.00  0.00    +0.206 C 
BRANCH  24  25
ATOM     25  O   UNL     1       8.470  -0.126  24.906  0.00  0.00    -0.284 OA
BRANCH  25  26
ATOM     26  P   UNL     1       9.797   0.452  24.146  0.00  0.00    +0.482 P 
ATOM     27  O   UNL     1      10.234  -0.367  22.976  0.00  0.00    -0.227 OA
BRANCH  26  28
ATOM     28  O   UNL     1      10.871   0.409  25.330  0.00  0.00    -0.302 OA
ATOM     29  H   UNL     1      11.485  -0.341  25.233  0.00  0.00    +0.222 HD
ENDBRANCH  26  28
BRANCH  26  30
ATOM     30  O   UNL     1       9.584   2.008  23.832  0.00  0.00    -0.208 OA
BRANCH  30  31
ATOM     31  P   UNL     1       8.275   2.802  23.027  0.00  0.00    +0.350 P 
ATOM     32  O   UNL     1       8.567   2.056  21.723  0.00  0.00    -0.258 OA
BRANCH  31  33
ATOM     33  O   UNL     1       9.196   4.170  22.939  0.00  0.00    -0.323 OA
ATOM     34  H   UNL     1      10.020   4.004  23.450  0.00  0.00    +0.220 HD
ENDBRANCH  31  33
BRANCH  31  35
ATOM     35  C   UNL     1       6.890   3.642  22.176  0.00  0.00    +0.254 C 
BRANCH  35  36
ATOM     36  P   UNL     1       6.728   5.388  22.549  0.00  0.00    +0.339 P 
ATOM     37  O   UNL     1       7.111   5.699  23.955  0.00  0.00    -0.258 OA
BRANCH  36  38
ATOM     38  O   UNL     1       5.216   5.725  22.136  0.00  0.00    -0.324 OA
ATOM     39  H   UNL     1       4.700   5.037  21.682  0.00  0.00    +0.220 HD
ENDBRANCH  36  38
BRANCH  36  40
ATOM     40  O   UNL     1       7.569   6.113  21.394  0.00  0.00    -0.324 OA
ATOM     41  H   UNL     1       7.308   7.045  21.213  0.00  0.00    +0.220 HD
ENDBRANCH  36  40
ENDBRANCH  35  36
ENDBRANCH  31  35
ENDBRANCH  30  31
ENDBRANCH  26  30
ENDBRANCH  25  26
ENDBRANCH  24  25
ENDBRANCH   4  24
TORSDOF 14
ENDMDL
MODEL 8
REMARK VINA RESULT:      -6.4      4.637      8.442
REMARK  Name = 
REMARK  14 active torsions:
REMARK  status: ('A' for Active; 'I' for Inactive)
REMARK    1  A    between atoms: N_8  and  C_9
REMARK    2  A    between atoms: C_12  and  C_14
REMARK    3  A    between atoms: C_14  and  O_15
REMARK    4  A    between atoms: O_15  and  P_16
REMARK    5  A    between atoms: P_16  and  O_17
REMARK    6  A    between atoms: P_16  and  O_19
REMARK    7  A    between atoms: O_19  and  P_20
REMARK    8  A    between atoms: P_20  and  O_21
REMARK    9  A    between atoms: P_20  and  C_23
REMARK   10  A    between atoms: C_23  and  P_24
REMARK   11  A    between atoms: P_24  and  O_25
REMARK   12  A    between atoms: P_24  and  O_26
REMARK   13  A    between atoms: C_28  and  O_30
REMARK   14  A    between atoms: C_31  and  O_33
REMARK                            x       y       z     vdW  Elec       q    Type
REMARK                         _______ _______ _______ _____ _____    ______ ____
ROOT
ATOM      1  C   UNL     1       8.082  -4.982  26.060  0.00  0.00    +0.253 C 
ATOM      2  C   UNL     1       9.241  -4.989  25.059  0.00  0.00    +0.195 C 
ATOM      3  C   UNL     1       9.349  -3.532  24.586  0.00  0.00    +0.178 C 
ATOM      4  C   UNL     1       8.260  -2.756  25.347  0.00  0.00    +0.178 C 
ATOM      5  O   UNL     1       7.989  -3.582  26.506  0.00  0.00    -0.346 OA
ENDROOT
BRANCH   1  17
ATOM      6  N   UNL     1       4.388  -7.389  29.146  0.00  0.00    -0.329 N 
ATOM      7  H   UNL     1       3.432  -7.414  29.474  0.00  0.00    +0.145 HD
ATOM      8  H   UNL     1       5.029  -6.961  29.804  0.00  0.00    +0.145 HD
ATOM      9  C   UNL     1       4.600  -6.998  27.862  0.00  0.00    +0.195 A 
ATOM     10  N   UNL     1       3.585  -7.298  26.978  0.00  0.00    -0.293 N 
ATOM     11  H   UNL     1       2.784  -7.823  27.283  0.00  0.00    +0.172 HD
ATOM     12  C   UNL     1       3.599  -6.979  25.634  0.00  0.00    +0.280 A 
ATOM     13  O   UNL     1       2.670  -7.277  24.887  0.00  0.00    -0.265 OA
ATOM     14  C   UNL     1       4.807  -6.283  25.250  0.00  0.00    +0.172 A 
ATOM     15  N   UNL     1       5.173  -5.780  24.032  0.00  0.00    -0.229 NA
ATOM     16  C   UNL     1       6.355  -5.245  24.248  0.00  0.00    +0.203 A 
ATOM     17  N   UNL     1       6.798  -5.435  25.536  0.00  0.00    -0.285 N 
ATOM     18  C   UNL     1       5.768  -6.049  26.211  0.00  0.00    +0.171 A 
ATOM     19  N   UNL     1       5.703  -6.377  27.529  0.00  0.00    -0.196 NA
ENDBRANCH   1  17
BRANCH   2  20
ATOM     20  O   UNL     1      10.476  -5.373  25.705  0.00  0.00    -0.385 OA
ATOM     21  H   UNL     1      10.676  -6.298  25.481  0.00  0.00    +0.210 HD
ENDBRANCH   2  20
BRANCH   3  22
ATOM     22  O   UNL     1       9.139  -3.459  23.180  0.00  0.00    -0.386 OA
ATOM     23  H   UNL     1       8.191  -3.325  23.010  0.00  0.00    +0.210 HD
ENDBRANCH   3  22
BRANCH   4  24
ATOM     24  C   UNL     1       8.720  -1.307  25.695  0.00  0.00    +0.206 C 
BRANCH  24  25
ATOM     25  O   UNL     1       9.910  -0.834  25.027  0.00  0.00    -0.284 OA
BRANCH  25  26
ATOM     26  P   UNL     1       9.680  -0.026  23.624  0.00  0.00    +0.482 P 
ATOM     27  O   UNL     1      10.278  -0.695  22.431  0.00  0.00    -0.227 OA
BRANCH  26  28
ATOM     28  O   UNL     1      10.406   1.362  23.948  0.00  0.00    -0.302 OA
ATOM     29  H   UNL     1      11.209   1.233  24.484  0.00  0.00    +0.222 HD
ENDBRANCH  26  28
BRANCH  26  30
ATOM     30  O   UNL     1       8.128   0.338  23.479  0.00  0.00    -0.208 OA
BRANCH  30  31
ATOM     31  P   UNL     1       7.384   1.759  22.829  0.00  0.00    +0.350 P 
ATOM     32  O   UNL     1       8.576   2.011  21.903  0.00  0.00    -0.258 OA
BRANCH  31  33
ATOM     33  O   UNL     1       7.764   2.561  24.223  0.00  0.00    -0.323 OA
ATOM     34  H   UNL     1       8.725   2.766  24.191  0.00  0.00    +0.220 HD
ENDBRANCH  31  33
BRANCH  31  35
ATOM     35  C   UNL     1       6.598   3.261  22.142  0.00  0.00    +0.254 C 
BRANCH  35  36
ATOM     36  P   UNL     1       7.260   4.807  22.765  0.00  0.00    +0.339 P 
ATOM     37  O   UNL     1       6.633   5.205  24.057  0.00  0.00    -0.258 OA
BRANCH  36  38
ATOM     38  O   UNL     1       7.065   5.823  21.541  0.00  0.00    -0.324 OA
ATOM     39  H   UNL     1       7.406   6.730  21.637  0.00  0.00    +0.220 HD
ENDBRANCH  36  38
BRANCH  36  40
ATOM     40  O   UNL     1       8.845   4.578  22.772  0.00  0.00    -0.324 OA
ATOM     41  H   UNL     1       9.149   3.764  22.310  0.00  0.00    +0.220 HD
ENDBRANCH  36  40
ENDBRANCH  35  36
ENDBRANCH  31  35
ENDBRANCH  30  31
ENDBRANCH  26  30
ENDBRANCH  25  26
ENDBRANCH  24  25
ENDBRANCH   4  24
TORSDOF 14
ENDMDL
MODEL 9
REMARK VINA RESULT:      -6.4      4.549      8.422
REMARK  Name = 
REMARK  14 active torsions:
REMARK  status: ('A' for Active; 'I' for Inactive)
REMARK    1  A    between atoms: N_8  and  C_9
REMARK    2  A    between atoms: C_12  and  C_14
REMARK    3  A    between atoms: C_14  and  O_15
REMARK    4  A    between atoms: O_15  and  P_16
REMARK    5  A    between atoms: P_16  and  O_17
REMARK    6  A    between atoms: P_16  and  O_19
REMARK    7  A    between atoms: O_19  and  P_20
REMARK    8  A    between atoms: P_20  and  O_21
REMARK    9  A    between atoms: P_20  and  C_23
REMARK   10  A    between atoms: C_23  and  P_24
REMARK   11  A    between atoms: P_24  and  O_25
REMARK   12  A    between atoms: P_24  and  O_26
REMARK   13  A    between atoms: C_28  and  O_30
REMARK   14  A    between atoms: C_31  and  O_33
REMARK                            x       y       z     vdW  Elec       q    Type
REMARK                         _______ _______ _______ _____ _____    ______ ____
ROOT
ATOM      1  C   UNL     1       6.488  -5.485  23.652  0.00  0.00    +0.253 C 
ATOM      2  C   UNL     1       6.630  -4.770  22.305  0.00  0.00    +0.195 C 
ATOM      3  C   UNL     1       7.564  -3.587  22.594  0.00  0.00    +0.178 C 
ATOM      4  C   UNL     1       7.927  -3.686  24.086  0.00  0.00    +0.178 C 
ATOM      5  O   UNL     1       7.680  -5.076  24.413  0.00  0.00    -0.346 OA
ENDROOT
BRANCH   1  17
ATOM      6  N   UNL     1       5.502  -7.540  28.527  0.00  0.00    -0.329 N 
ATOM      7  H   UNL     1       5.265  -7.371  29.495  0.00  0.00    +0.145 HD
ATOM      8  H   UNL     1       6.492  -7.704  28.378  0.00  0.00    +0.145 HD
ATOM      9  C   UNL     1       4.949  -6.724  27.592  0.00  0.00    +0.195 A 
ATOM     10  N   UNL     1       3.703  -6.224  27.909  0.00  0.00    -0.293 N 
ATOM     11  H   UNL     1       3.240  -6.511  28.754  0.00  0.00    +0.172 HD
ATOM     12  C   UNL     1       2.975  -5.371  27.102  0.00  0.00    +0.280 A 
ATOM     13  O   UNL     1       1.864  -4.960  27.430  0.00  0.00    -0.265 OA
ATOM     14  C   UNL     1       3.671  -5.050  25.876  0.00  0.00    +0.172 A 
ATOM     15  N   UNL     1       3.298  -4.225  24.852  0.00  0.00    -0.229 NA
ATOM     16  C   UNL     1       4.299  -4.295  24.003  0.00  0.00    +0.203 A 
ATOM     17  N   UNL     1       5.275  -5.176  24.402  0.00  0.00    -0.285 N 
ATOM     18  C   UNL     1       4.907  -5.620  25.651  0.00  0.00    +0.171 A 
ATOM     19  N   UNL     1       5.588  -6.451  26.483  0.00  0.00    -0.196 NA
ENDBRANCH   1  17
BRANCH   2  20
ATOM     20  O   UNL     1       7.247  -5.636  21.325  0.00  0.00    -0.385 OA
ATOM     21  H   UNL     1       7.040  -5.305  20.435  0.00  0.00    +0.210 HD
ENDBRANCH   2  20
BRANCH   3  22
ATOM     22  O   UNL     1       6.900  -2.360  22.311  0.00  0.00    -0.386 OA
ATOM     23  H   UNL     1       5.947  -2.474  22.469  0.00  0.00    +0.210 HD
ENDBRANCH   3  22
BRANCH   4  24
ATOM     24  C   UNL     1       9.391  -3.220  24.357  0.00  0.00    +0.206 C 
BRANCH  24  25
ATOM     25  O   UNL     1       9.913  -2.202  23.476  0.00  0.00    -0.284 OA
BRANCH  25  26
ATOM     26  P   UNL     1       9.795  -0.659  24.005  0.00  0.00    +0.482 P 
ATOM     27  O   UNL     1      11.088   0.089  23.994  0.00  0.00    -0.227 OA
BRANCH  26  28
ATOM     28  O   UNL     1       9.258  -0.887  25.495  0.00  0.00    -0.302 OA
ATOM     29  H   UNL     1       8.688  -0.154  25.789  0.00  0.00    +0.222 HD
ENDBRANCH  26  28
BRANCH  26  30
ATOM     30  O   UNL     1       8.594   0.068  23.235  0.00  0.00    -0.208 OA
BRANCH  30  31
ATOM     31  P   UNL     1       8.246   1.755  23.077  0.00  0.00    +0.350 P 
ATOM     32  O   UNL     1       9.275   1.906  21.954  0.00  0.00    -0.258 OA
BRANCH  31  33
ATOM     33  O   UNL     1       9.101   2.032  24.463  0.00  0.00    -0.323 OA
ATOM     34  H   UNL     1       8.630   2.735  24.965  0.00  0.00    +0.220 HD
ENDBRANCH  31  33
BRANCH  31  35
ATOM     35  C   UNL     1       7.878   3.540  22.911  0.00  0.00    +0.254 C 
BRANCH  35  36
ATOM     36  P   UNL     1       9.060   4.628  23.706  0.00  0.00    +0.339 P 
ATOM     37  O   UNL     1       8.831   4.727  25.175  0.00  0.00    -0.258 OA
BRANCH  36  38
ATOM     38  O   UNL     1       8.937   5.994  22.876  0.00  0.00    -0.324 OA
ATOM     39  H   UNL     1       8.732   5.937  21.926  0.00  0.00    +0.220 HD
ENDBRANCH  36  38
BRANCH  36  40
ATOM     40  O   UNL     1      10.485   4.068  23.235  0.00  0.00    -0.324 OA
ATOM     41  H   UNL     1      11.242   4.320  23.811  0.00  0.00    +0.220 HD
ENDBRANCH  36  40
ENDBRANCH  35  36
ENDBRANCH  31  35
ENDBRANCH  30  31
ENDBRANCH  26  30
ENDBRANCH  25  26
ENDBRANCH  24  25
ENDBRANCH   4  24
TORSDOF 14
ENDMDL
