MODEL 1
REMARK VINA RESULT:      -5.4      0.000      0.000
REMARK  Name = 
REMARK  2 active torsions:
REMARK  status: ('A' for Active; 'I' for Inactive)
REMARK    1  A    between atoms: O_1  and  C_2
REMARK    2  A    between atoms: C_5  and  N_8
REMARK                            x       y       z     vdW  Elec       q    Type
REMARK                         _______ _______ _______ _____ _____    ______ ____
ROOT
ATOM      1  C   UNL     1       9.953   1.020  22.156  0.00  0.00    +0.117 A 
ATOM      2  C   UNL     1       9.383   0.089  21.299  0.00  0.00    +0.047 A 
ATOM      3  C   UNL     1       9.064  -1.189  21.770  0.00  0.00    +0.030 A 
ATOM      4  C   UNL     1       9.318  -1.536  23.107  0.00  0.00    +0.048 A 
ATOM      5  C   UNL     1       9.877  -0.573  23.962  0.00  0.00    +0.030 A 
ATOM      6  C   UNL     1      10.196   0.703  23.486  0.00  0.00    +0.047 A 
ENDROOT
BRANCH   4   7
ATOM      7  N   UNL     1       9.029  -2.849  23.582  0.00  0.00    -0.306 N 
ATOM      8  C   UNL     1       9.769  -3.602  24.470  0.00  0.00    +0.204 A 
ATOM      9  N   UNL     1       9.219  -4.767  24.736  0.00  0.00    -0.244 NA
ATOM     10  C   UNL     1       8.075  -4.793  23.995  0.00  0.00    +0.130 A 
ATOM     11  C   UNL     1       7.936  -3.632  23.270  0.00  0.00    +0.112 A 
ENDBRANCH   4   7
BRANCH   1  12
ATOM     12  O   UNL     1      10.266   2.245  21.646  0.00  0.00    -0.507 OA
ATOM     13  H   UNL     1      10.231   2.900  22.361  0.00  0.00    +0.292 HD
ENDBRANCH   1  12
TORSDOF 2
ENDMDL
MODEL 2
REMARK VINA RESULT:      -5.4      0.069      1.396
REMARK  Name = 
REMARK  2 active torsions:
REMARK  status: ('A' for Active; 'I' for Inactive)
REMARK    1  A    between atoms: O_1  and  C_2
REMARK    2  A    between atoms: C_5  and  N_8
REMARK                            x       y       z     vdW  Elec       q    Type
REMARK                         _______ _______ _______ _____ _____    ______ ____
ROOT
ATOM      1  C   UNL     1       9.953   0.993  22.104  0.00  0.00    +0.117 A 
ATOM      2  C   UNL     1      10.276   0.666  23.414  0.00  0.00    +0.047 A 
ATOM      3  C   UNL     1       9.994  -0.613  23.904  0.00  0.00    +0.030 A 
ATOM      4  C   UNL     1       9.383  -1.570  23.078  0.00  0.00    +0.048 A 
ATOM      5  C   UNL     1       9.081  -1.226  21.750  0.00  0.00    +0.030 A 
ATOM      6  C   UNL     1       9.365   0.056  21.265  0.00  0.00    +0.047 A 
ENDROOT
BRANCH   4   7
ATOM      7  N   UNL     1       9.060  -2.864  23.583  0.00  0.00    -0.306 N 
ATOM      8  C   UNL     1       9.787  -3.622  24.477  0.00  0.00    +0.204 A 
ATOM      9  N   UNL     1       9.205  -4.764  24.773  0.00  0.00    -0.244 NA
ATOM     10  C   UNL     1       8.051  -4.769  24.046  0.00  0.00    +0.130 A 
ATOM     11  C   UNL     1       7.940  -3.619  23.300  0.00  0.00    +0.112 A 
ENDBRANCH   4   7
BRANCH   1  12
ATOM     12  O   UNL     1      10.227   2.258  21.679  0.00  0.00    -0.507 OA
ATOM     13  H   UNL     1       9.555   2.523  21.030  0.00  0.00    +0.292 HD
ENDBRANCH   1  12
TORSDOF 2
ENDMDL
MODEL 3
REMARK VINA RESULT:      -5.0      4.017      6.233
REMARK  Name = 
REMARK  2 active torsions:
REMARK  status: ('A' for Active; 'I' for Inactive)
REMARK    1  A    between atoms: O_1  and  C_2
REMARK    2  A    between atoms: C_5  and  N_8
REMARK                            x       y       z     vdW  Elec       q    Type
REMARK                         _______ _______ _______ _____ _____    ______ ____
ROOT
ATOM      1  C   UNL     1      10.040  -0.609  22.451  0.00  0.00    +0.117 A 
ATOM      2  C   UNL     1      10.557  -0.254  23.690  0.00  0.00    +0.047 A 
ATOM      3  C   UNL     1      10.690   1.096  24.029  0.00  0.00    +0.030 A 
ATOM      4  C   UNL     1      10.306   2.097  23.121  0.00  0.00    +0.048 A 
ATOM      5  C   UNL     1       9.769   1.717  21.881  0.00  0.00    +0.030 A 
ATOM      6  C   UNL     1       9.638   0.364  21.546  0.00  0.00    +0.047 A 
ENDROOT
BRANCH   4   7
ATOM      7  N   UNL     1      10.475   3.475  23.447  0.00  0.00    -0.306 N 
ATOM      8  C   UNL     1      11.631   4.223  23.358  0.00  0.00    +0.204 A 
ATOM      9  N   UNL     1      11.455   5.480  23.703  0.00  0.00    -0.244 NA
ATOM     10  C   UNL     1      10.136   5.571  24.039  0.00  0.00    +0.130 A 
ATOM     11  C   UNL     1       9.512   4.353  23.899  0.00  0.00    +0.112 A 
ENDBRANCH   4   7
BRANCH   1  12
ATOM     12  O   UNL     1       9.949  -1.937  22.158  0.00  0.00    -0.507 OA
ATOM     13  H   UNL     1       9.087  -2.266  22.462  0.00  0.00    +0.292 HD
ENDBRANCH   1  12
TORSDOF 2
ENDMDL
MODEL 4
REMARK VINA RESULT:      -4.9      1.459      1.808
REMARK  Name = 
REMARK  2 active torsions:
REMARK  status: ('A' for Active; 'I' for Inactive)
REMARK    1  A    between atoms: O_1  and  C_2
REMARK    2  A    between atoms: C_5  and  N_8
REMARK                            x       y       z     vdW  Elec       q    Type
REMARK                         _______ _______ _______ _____ _____    ______ ____
ROOT
ATOM      1  C   UNL     1       8.748   0.979  21.859  0.00  0.00    +0.117 A 
ATOM      2  C   UNL     1       9.649  -0.004  21.473  0.00  0.00    +0.047 A 
ATOM      3  C   UNL     1       9.425  -1.336  21.838  0.00  0.00    +0.030 A 
ATOM      4  C   UNL     1       8.294  -1.684  22.594  0.00  0.00    +0.048 A 
ATOM      5  C   UNL     1       7.385  -0.677  22.958  0.00  0.00    +0.030 A 
ATOM      6  C   UNL     1       7.614   0.654  22.591  0.00  0.00    +0.047 A 
ENDROOT
BRANCH   4   7
ATOM      7  N   UNL     1       8.081  -3.034  23.000  0.00  0.00    -0.306 N 
ATOM      8  C   UNL     1       7.315  -3.991  22.367  0.00  0.00    +0.204 A 
ATOM      9  N   UNL     1       7.344  -5.157  22.976  0.00  0.00    -0.244 NA
ATOM     10  C   UNL     1       8.154  -4.968  24.056  0.00  0.00    +0.130 A 
ATOM     11  C   UNL     1       8.615  -3.673  24.101  0.00  0.00    +0.112 A 
ENDBRANCH   4   7
BRANCH   1  12
ATOM     12  O   UNL     1       9.019   2.265  21.498  0.00  0.00    -0.507 OA
ATOM     13  H   UNL     1       9.830   2.276  20.963  0.00  0.00    +0.292 HD
ENDBRANCH   1  12
TORSDOF 2
ENDMDL
MODEL 5
REMARK VINA RESULT:      -4.8      2.083      2.917
REMARK  Name = 
REMARK  2 active torsions:
REMARK  status: ('A' for Active; 'I' for Inactive)
REMARK    1  A    between atoms: O_1  and  C_2
REMARK    2  A    between atoms: C_5  and  N_8
REMARK                            x       y       z     vdW  Elec       q    Type
REMARK                         _______ _______ _______ _____ _____    ______ ____
ROOT
ATOM      1  C   UNL     1       9.258  -1.866  22.321  0.00  0.00    +0.117 A 
ATOM      2  C   UNL     1       7.946  -2.317  22.258  0.00  0.00    +0.047 A 
ATOM      3  C   UNL     1       7.439  -3.131  23.276  0.00  0.00    +0.030 A 
ATOM      4  C   UNL     1       8.250  -3.496  24.363  0.00  0.00    +0.048 A 
ATOM      5  C   UNL     1       9.568  -3.014  24.417  0.00  0.00    +0.030 A 
ATOM      6  C   UNL     1      10.071  -2.201  23.395  0.00  0.00    +0.047 A 
ENDROOT
BRANCH   4   7
ATOM      7  N   UNL     1       7.750  -4.356  25.384  0.00  0.00    -0.306 N 
ATOM      8  C   UNL     1       8.388  -4.740  26.545  0.00  0.00    +0.204 A 
ATOM      9  N   UNL     1       7.647  -5.519  27.304  0.00  0.00    -0.244 NA
ATOM     10  C   UNL     1       6.476  -5.662  26.621  0.00  0.00    +0.130 A 
ATOM     11  C   UNL     1       6.513  -4.966  25.435  0.00  0.00    +0.112 A 
ENDBRANCH   4   7
BRANCH   1  12
ATOM     12  O   UNL     1       9.713  -1.093  21.295  0.00  0.00    -0.507 OA
ATOM     13  H   UNL     1       8.995  -0.972  20.652  0.00  0.00    +0.292 HD
ENDBRANCH   1  12
TORSDOF 2
ENDMDL
MODEL 6
REMARK VINA RESULT:      -4.8      3.451      5.509
REMARK  Name = 
REMARK  2 active torsions:
REMARK  status: ('A' for Active; 'I' for Inactive)
REMARK    1  A    between atoms: O_1  and  C_2
REMARK    2  A    between atoms: C_5  and  N_8
REMARK                            x       y       z     vdW  Elec       q    Type
REMARK                         _______ _______ _______ _____ _____    ______ ____
ROOT
ATOM      1  C   UNL     1       8.242  -4.932  26.600  0.00  0.00    +0.117 A 
ATOM      2  C   UNL     1       7.696  -3.660  26.710  0.00  0.00    +0.047 A 
ATOM      3  C   UNL     1       8.108  -2.647  25.839  0.00  0.00    +0.030 A 
ATOM      4  C   UNL     1       9.073  -2.908  24.853  0.00  0.00    +0.048 A 
ATOM      5  C   UNL     1       9.599  -4.206  24.746  0.00  0.00    +0.030 A 
ATOM      6  C   UNL     1       9.184  -5.216  25.621  0.00  0.00    +0.047 A 
ENDROOT
BRANCH   4   7
ATOM      7  N   UNL     1       9.524  -1.869  23.986  0.00  0.00    -0.306 N 
ATOM      8  C   UNL     1       9.568  -1.885  22.607  0.00  0.00    +0.204 A 
ATOM      9  N   UNL     1      10.007  -0.756  22.095  0.00  0.00    -0.244 NA
ATOM     10  C   UNL     1      10.271   0.039  23.171  0.00  0.00    +0.130 A 
ATOM     11  C   UNL     1       9.991  -0.621  24.345  0.00  0.00    +0.112 A 
ENDBRANCH   4   7
BRANCH   1  12
ATOM     12  O   UNL     1       7.825  -5.881  27.485  0.00  0.00    -0.507 OA
ATOM     13  H   UNL     1       7.938  -5.539  28.386  0.00  0.00    +0.292 HD
ENDBRANCH   1  12
TORSDOF 2
ENDMDL
MODEL 7
REMARK VINA RESULT:      -4.8      3.715      5.796
REMARK  Name = 
REMARK  2 active torsions:
REMARK  status: ('A' for Active; 'I' for Inactive)
REMARK    1  A    between atoms: O_1  and  C_2
REMARK    2  A    between atoms: C_5  and  N_8
REMARK                            x       y       z     vdW  Elec       q    Type
REMARK                         _______ _______ _______ _____ _____    ______ ____
ROOT
ATOM      1  C   UNL     1       5.460  -6.342  23.626  0.00  0.00    +0.117 A 
ATOM      2  C   UNL     1       6.069  -6.119  22.398  0.00  0.00    +0.047 A 
ATOM      3  C   UNL     1       7.024  -5.106  22.267  0.00  0.00    +0.030 A 
ATOM      4  C   UNL     1       7.371  -4.311  23.372  0.00  0.00    +0.048 A 
ATOM      5  C   UNL     1       6.758  -4.566  24.610  0.00  0.00    +0.030 A 
ATOM      6  C   UNL     1       5.802  -5.580  24.735  0.00  0.00    +0.047 A 
ENDROOT
BRANCH   4   7
ATOM      7  N   UNL     1       8.317  -3.253  23.235  0.00  0.00    -0.306 N 
ATOM      8  C   UNL     1       9.405  -2.990  24.042  0.00  0.00    +0.204 A 
ATOM      9  N   UNL     1      10.107  -1.955  23.633  0.00  0.00    -0.244 NA
ATOM     10  C   UNL     1       9.462  -1.511  22.518  0.00  0.00    +0.130 A 
ATOM     11  C   UNL     1       8.355  -2.284  22.254  0.00  0.00    +0.112 A 
ENDBRANCH   4   7
BRANCH   1  12
ATOM     12  O   UNL     1       4.520  -7.327  23.699  0.00  0.00    -0.507 OA
ATOM     13  H   UNL     1       4.434  -7.609  24.624  0.00  0.00    +0.292 HD
ENDBRANCH   1  12
TORSDOF 2
ENDMDL
MODEL 8
REMARK VINA RESULT:      -4.7      1.668      2.123
REMARK  Name = 
REMARK  2 active torsions:
REMARK  status: ('A' for Active; 'I' for Inactive)
REMARK    1  A    between atoms: O_1  and  C_2
REMARK    2  A    between atoms: C_5  and  N_8
REMARK                            x       y       z     vdW  Elec       q    Type
REMARK                         _______ _______ _______ _____ _____    ______ ____
ROOT
ATOM      1  C   UNL     1       9.640   2.882  23.298  0.00  0.00    +0.117 A 
ATOM      2  C   UNL     1      10.149   1.954  22.401  0.00  0.00    +0.047 A 
ATOM      3  C   UNL     1      10.053   0.587  22.681  0.00  0.00    +0.030 A 
ATOM      4  C   UNL     1       9.444   0.147  23.868  0.00  0.00    +0.048 A 
ATOM      5  C   UNL     1       8.917   1.102  24.754  0.00  0.00    +0.030 A 
ATOM      6  C   UNL     1       9.018   2.469  24.469  0.00  0.00    +0.047 A 
ENDROOT
BRANCH   4   7
ATOM      7  N   UNL     1       9.375  -1.243  24.177  0.00  0.00    -0.306 N 
ATOM      8  C   UNL     1      10.074  -2.271  23.579  0.00  0.00    +0.204 A 
ATOM      9  N   UNL     1       9.814  -3.445  24.112  0.00  0.00    -0.244 NA
ATOM     10  C   UNL     1       8.906  -3.191  25.096  0.00  0.00    +0.130 A 
ATOM     11  C   UNL     1       8.611  -1.849  25.154  0.00  0.00    +0.112 A 
ENDBRANCH   4   7
BRANCH   1  12
ATOM     12  O   UNL     1       9.777   4.203  22.991  0.00  0.00    -0.507 OA
ATOM     13  H   UNL     1       8.898   4.576  22.815  0.00  0.00    +0.292 HD
ENDBRANCH   1  12
TORSDOF 2
ENDMDL
MODEL 9
REMARK VINA RESULT:      -4.7      3.613      5.598
REMARK  Name = 
REMARK  2 active torsions:
REMARK  status: ('A' for Active; 'I' for Inactive)
REMARK    1  A    between atoms: O_1  and  C_2
REMARK    2  A    between atoms: C_5  and  N_8
REMARK                            x       y       z     vdW  Elec       q    Type
REMARK                         _______ _______ _______ _____ _____    ______ ____
ROOT
ATOM      1  C   UNL     1       6.787  -5.590  26.257  0.00  0.00    +0.117 A 
ATOM      2  C   UNL     1       6.200  -5.287  25.036  0.00  0.00    +0.047 A 
ATOM      3  C   UNL     1       6.845  -4.422  24.147  0.00  0.00    +0.030 A 
ATOM      4  C   UNL     1       8.086  -3.856  24.482  0.00  0.00    +0.048 A 
ATOM      5  C   UNL     1       8.672  -4.190  25.714  0.00  0.00    +0.030 A 
ATOM      6  C   UNL     1       8.021  -5.055  26.601  0.00  0.00    +0.047 A 
ENDROOT
BRANCH   4   7
ATOM      7  N   UNL     1       8.731  -2.944  23.596  0.00  0.00    -0.306 N 
ATOM      8  C   UNL     1      10.002  -2.420  23.709  0.00  0.00    +0.204 A 
ATOM      9  N   UNL     1      10.320  -1.628  22.708  0.00  0.00    -0.244 NA
ATOM     10  C   UNL     1       9.220  -1.620  21.903  0.00  0.00    +0.130 A 
ATOM     11  C   UNL     1       8.226  -2.412  22.427  0.00  0.00    +0.112 A 
ENDBRANCH   4   7
BRANCH   1  12
ATOM     12  O   UNL     1       6.109  -6.421  27.099  0.00  0.00    -0.507 OA
ATOM     13  H   UNL     1       6.730  -6.772  27.758  0.00  0.00    +0.292 HD
ENDBRANCH   1  12
TORSDOF 2
ENDMDL
