MODEL 1
REMARK VINA RESULT:      -6.9      0.000      0.000
REMARK  Name = 
REMARK  8 active torsions:
REMARK  status: ('A' for Active; 'I' for Inactive)
REMARK    1  A    between atoms: N_1  and  C_2
REMARK    2  A    between atoms: C_5  and  O_6
REMARK    3  A    between atoms: O_6  and  C_7
REMARK    4  A    between atoms: C_10  and  C_12
REMARK    5  A    between atoms: C_12  and  O_13
REMARK    6  A    between atoms: C_14  and  O_16
REMARK    7  A    between atoms: C_17  and  O_19
REMARK    8  A    between atoms: C_20  and  O_22
REMARK                            x       y       z     vdW  Elec       q    Type
REMARK                         _______ _______ _______ _____ _____    ______ ____
ROOT
ATOM      1  C   UNL     1       8.839  -3.865  24.132  0.00  0.00    +0.339 C 
ATOM      2  C   UNL     1       9.137  -4.638  25.449  0.00  0.00    +0.214 C 
ATOM      3  C   UNL     1       7.891  -5.308  26.029  0.00  0.00    +0.180 C 
ATOM      4  C   UNL     1       6.703  -4.347  26.046  0.00  0.00    +0.177 C 
ATOM      5  C   UNL     1       6.482  -3.794  24.635  0.00  0.00    +0.179 C 
ATOM      6  O   UNL     1       7.646  -3.082  24.195  0.00  0.00    -0.331 OA
ENDROOT
BRANCH   2   7
ATOM      7  O   UNL     1      10.150  -5.650  25.258  0.00  0.00    -0.383 OA
ATOM      8  H   UNL     1      11.033  -5.257  25.350  0.00  0.00    +0.210 HD
ENDBRANCH   2   7
BRANCH   3   9
ATOM      9  O   UNL     1       8.145  -5.755  27.370  0.00  0.00    -0.386 OA
ATOM     10  H   UNL     1       8.808  -6.467  27.308  0.00  0.00    +0.210 HD
ENDBRANCH   3   9
BRANCH   4  11
ATOM     11  O   UNL     1       5.558  -5.033  26.551  0.00  0.00    -0.386 OA
ATOM     12  H   UNL     1       4.855  -5.021  25.879  0.00  0.00    +0.210 HD
ENDBRANCH   4  11
BRANCH   1  13
ATOM     13  O   UNL     1       9.946  -2.979  23.980  0.00  0.00    -0.461 OA
BRANCH  13  17
ATOM     14  C   UNL     1      10.020   0.799  22.261  0.00  0.00    +0.025 A 
ATOM     15  C   UNL     1       9.579  -0.274  21.480  0.00  0.00    +0.026 A 
ATOM     16  C   UNL     1       9.490  -1.568  22.017  0.00  0.00    +0.047 A 
ATOM     17  C   UNL     1       9.813  -1.782  23.351  0.00  0.00    +0.124 A 
ATOM     18  C   UNL     1      10.120  -0.687  24.161  0.00  0.00    +0.047 A 
ATOM     19  C   UNL     1      10.194   0.600  23.627  0.00  0.00    +0.026 A 
BRANCH  14  20
ATOM     20  N   UNL     1      10.088   2.091  21.725  0.00  0.00    -0.358 N 
ATOM     21  H   UNL     1      10.001   2.107  20.713  0.00  0.00    +0.142 HD
ATOM     22  H   UNL     1      10.912   2.602  22.033  0.00  0.00    +0.142 HD
ENDBRANCH  14  20
ENDBRANCH  13  17
ENDBRANCH   1  13
BRANCH   5  23
ATOM     23  C   UNL     1       5.316  -2.802  24.604  0.00  0.00    +0.190 C 
BRANCH  23  24
ATOM     24  O   UNL     1       4.093  -3.526  24.464  0.00  0.00    -0.392 OA
ATOM     25  H   UNL     1       4.094  -4.191  25.179  0.00  0.00    +0.210 HD
ENDBRANCH  23  24
ENDBRANCH   5  23
TORSDOF 8
ENDMDL
MODEL 2
REMARK VINA RESULT:      -6.4      1.473      2.807
REMARK  Name = 
REMARK  8 active torsions:
REMARK  status: ('A' for Active; 'I' for Inactive)
REMARK    1  A    between atoms: N_1  and  C_2
REMARK    2  A    between atoms: C_5  and  O_6
REMARK    3  A    between atoms: O_6  and  C_7
REMARK    4  A    between atoms: C_10  and  C_12
REMARK    5  A    between atoms: C_12  and  O_13
REMARK    6  A    between atoms: C_14  and  O_16
REMARK    7  A    between atoms: C_17  and  O_19
REMARK    8  A    between atoms: C_20  and  O_22
REMARK                            x       y       z     vdW  Elec       q    Type
REMARK                         _______ _______ _______ _____ _____    ______ ____
ROOT
ATOM      1  C   UNL     1       7.834  -3.332  23.920  0.00  0.00    +0.339 C 
ATOM      2  C   UNL     1       7.263  -4.413  22.959  0.00  0.00    +0.214 C 
ATOM      3  C   UNL     1       6.073  -5.162  23.562  0.00  0.00    +0.180 C 
ATOM      4  C   UNL     1       6.363  -5.598  24.997  0.00  0.00    +0.177 C 
ATOM      5  C   UNL     1       6.779  -4.375  25.822  0.00  0.00    +0.179 C 
ATOM      6  O   UNL     1       7.964  -3.787  25.269  0.00  0.00    -0.331 OA
ENDROOT
BRANCH   2   7
ATOM      7  O   UNL     1       6.849  -3.845  21.698  0.00  0.00    -0.383 OA
ATOM      8  H   UNL     1       5.929  -4.089  21.509  0.00  0.00    +0.210 HD
ENDBRANCH   2   7
BRANCH   3   9
ATOM      9  O   UNL     1       5.767  -6.325  22.778  0.00  0.00    -0.386 OA
ATOM     10  H   UNL     1       4.890  -6.637  23.068  0.00  0.00    +0.210 HD
ENDBRANCH   3   9
BRANCH   4  11
ATOM     11  O   UNL     1       5.209  -6.248  25.528  0.00  0.00    -0.386 OA
ATOM     12  H   UNL     1       5.083  -7.099  25.074  0.00  0.00    +0.210 HD
ENDBRANCH   4  11
BRANCH   1  13
ATOM     13  O   UNL     1       9.139  -3.059  23.415  0.00  0.00    -0.461 OA
BRANCH  13  17
ATOM     14  C   UNL     1       9.858   0.864  22.263  0.00  0.00    +0.025 A 
ATOM     15  C   UNL     1      10.234   0.474  23.552  0.00  0.00    +0.026 A 
ATOM     16  C   UNL     1      10.058  -0.850  23.986  0.00  0.00    +0.047 A 
ATOM     17  C   UNL     1       9.531  -1.794  23.113  0.00  0.00    +0.124 A 
ATOM     18  C   UNL     1       9.285  -1.432  21.787  0.00  0.00    +0.047 A 
ATOM     19  C   UNL     1       9.476  -0.119  21.356  0.00  0.00    +0.026 A 
BRANCH  14  20
ATOM     20  N   UNL     1      10.055   2.182  21.831  0.00  0.00    -0.358 N 
ATOM     21  H   UNL     1      10.975   2.543  22.064  0.00  0.00    +0.142 HD
ATOM     22  H   UNL     1       9.320   2.812  22.143  0.00  0.00    +0.142 HD
ENDBRANCH  14  20
ENDBRANCH  13  17
ENDBRANCH   1  13
BRANCH   5  23
ATOM     23  C   UNL     1       7.108  -4.764  27.265  0.00  0.00    +0.190 C 
BRANCH  23  24
ATOM     24  O   UNL     1       7.835  -5.992  27.263  0.00  0.00    -0.392 OA
ATOM     25  H   UNL     1       7.367  -6.580  27.887  0.00  0.00    +0.210 HD
ENDBRANCH  23  24
ENDBRANCH   5  23
TORSDOF 8
ENDMDL
MODEL 3
REMARK VINA RESULT:      -6.2      1.818      3.020
REMARK  Name = 
REMARK  8 active torsions:
REMARK  status: ('A' for Active; 'I' for Inactive)
REMARK    1  A    between atoms: N_1  and  C_2
REMARK    2  A    between atoms: C_5  and  O_6
REMARK    3  A    between atoms: O_6  and  C_7
REMARK    4  A    between atoms: C_10  and  C_12
REMARK    5  A    between atoms: C_12  and  O_13
REMARK    6  A    between atoms: C_14  and  O_16
REMARK    7  A    between atoms: C_17  and  O_19
REMARK    8  A    between atoms: C_20  and  O_22
REMARK                            x       y       z     vdW  Elec       q    Type
REMARK                         _______ _______ _______ _____ _____    ______ ____
ROOT
ATOM      1  C   UNL     1       7.060  -3.274  23.596  0.00  0.00    +0.339 C 
ATOM      2  C   UNL     1       6.371  -4.428  22.813  0.00  0.00    +0.214 C 
ATOM      3  C   UNL     1       5.442  -5.261  23.697  0.00  0.00    +0.180 C 
ATOM      4  C   UNL     1       6.118  -5.630  25.017  0.00  0.00    +0.177 C 
ATOM      5  C   UNL     1       6.611  -4.353  25.705  0.00  0.00    +0.179 C 
ATOM      6  O   UNL     1       7.561  -3.678  24.871  0.00  0.00    -0.331 OA
ENDROOT
BRANCH   2   7
ATOM      7  O   UNL     1       5.606  -3.933  21.692  0.00  0.00    -0.383 OA
ATOM      8  H   UNL     1       6.061  -4.144  20.861  0.00  0.00    +0.210 HD
ENDBRANCH   2   7
BRANCH   3   9
ATOM      9  O   UNL     1       5.060  -6.468  23.020  0.00  0.00    -0.386 OA
ATOM     10  H   UNL     1       5.150  -6.295  22.065  0.00  0.00    +0.210 HD
ENDBRANCH   3   9
BRANCH   4  11
ATOM     11  O   UNL     1       5.196  -6.365  25.822  0.00  0.00    -0.386 OA
ATOM     12  H   UNL     1       4.894  -5.804  26.557  0.00  0.00    +0.210 HD
ENDBRANCH   4  11
BRANCH   1  13
ATOM     13  O   UNL     1       8.168  -2.901  22.779  0.00  0.00    -0.461 OA
BRANCH  13  17
ATOM     14  C   UNL     1       8.621   1.155  22.020  0.00  0.00    +0.025 A 
ATOM     15  C   UNL     1       9.517   0.266  21.419  0.00  0.00    +0.026 A 
ATOM     16  C   UNL     1       9.391  -1.121  21.602  0.00  0.00    +0.047 A 
ATOM     17  C   UNL     1       8.342  -1.619  22.364  0.00  0.00    +0.124 A 
ATOM     18  C   UNL     1       7.372  -0.738  22.847  0.00  0.00    +0.047 A 
ATOM     19  C   UNL     1       7.494   0.638  22.652  0.00  0.00    +0.026 A 
BRANCH  14  20
ATOM     20  N   UNL     1       8.742   2.536  21.818  0.00  0.00    -0.358 N 
ATOM     21  H   UNL     1       9.377   2.980  22.473  0.00  0.00    +0.142 HD
ATOM     22  H   UNL     1       7.842   3.010  21.797  0.00  0.00    +0.142 HD
ENDBRANCH  14  20
ENDBRANCH  13  17
ENDBRANCH   1  13
BRANCH   5  23
ATOM     23  C   UNL     1       7.322  -4.672  27.023  0.00  0.00    +0.190 C 
BRANCH  23  24
ATOM     24  O   UNL     1       7.962  -5.943  26.912  0.00  0.00    -0.392 OA
ATOM     25  H   UNL     1       7.805  -6.240  25.994  0.00  0.00    +0.210 HD
ENDBRANCH  23  24
ENDBRANCH   5  23
TORSDOF 8
ENDMDL
MODEL 4
REMARK VINA RESULT:      -6.0      1.211      3.081
REMARK  Name = 
REMARK  8 active torsions:
REMARK  status: ('A' for Active; 'I' for Inactive)
REMARK    1  A    between atoms: N_1  and  C_2
REMARK    2  A    between atoms: C_5  and  O_6
REMARK    3  A    between atoms: O_6  and  C_7
REMARK    4  A    between atoms: C_10  and  C_12
REMARK    5  A    between atoms: C_12  and  O_13
REMARK    6  A    between atoms: C_14  and  O_16
REMARK    7  A    between atoms: C_17  and  O_19
REMARK    8  A    between atoms: C_20  and  O_22
REMARK                            x       y       z     vdW  Elec       q    Type
REMARK                         _______ _______ _______ _____ _____    ______ ____
ROOT
ATOM      1  C   UNL     1       7.209  -2.776  24.433  0.00  0.00    +0.339 C 
ATOM      2  C   UNL     1       5.938  -3.627  24.716  0.00  0.00    +0.214 C 
ATOM      3  C   UNL     1       6.080  -4.493  25.969  0.00  0.00    +0.180 C 
ATOM      4  C   UNL     1       7.419  -5.228  25.984  0.00  0.00    +0.177 C 
ATOM      5  C   UNL     1       8.555  -4.210  25.829  0.00  0.00    +0.179 C 
ATOM      6  O   UNL     1       8.425  -3.511  24.585  0.00  0.00    -0.331 OA
ENDROOT
BRANCH   2   7
ATOM      7  O   UNL     1       4.763  -2.800  24.867  0.00  0.00    -0.383 OA
ATOM      8  H   UNL     1       4.680  -2.200  24.109  0.00  0.00    +0.210 HD
ENDBRANCH   2   7
BRANCH   3   9
ATOM      9  O   UNL     1       5.021  -5.461  26.027  0.00  0.00    -0.386 OA
ATOM     10  H   UNL     1       4.672  -5.442  26.938  0.00  0.00    +0.210 HD
ENDBRANCH   3   9
BRANCH   4  11
ATOM     11  O   UNL     1       7.522  -5.983  27.191  0.00  0.00    -0.386 OA
ATOM     12  H   UNL     1       8.271  -5.650  27.715  0.00  0.00    +0.210 HD
ENDBRANCH   4  11
BRANCH   1  13
ATOM     13  O   UNL     1       7.086  -2.395  23.065  0.00  0.00    -0.461 OA
BRANCH  13  17
ATOM     14  C   UNL     1       9.236   0.992  21.996  0.00  0.00    +0.025 A 
ATOM     15  C   UNL     1       9.676  -0.248  21.522  0.00  0.00    +0.026 A 
ATOM     16  C   UNL     1       8.968  -1.425  21.812  0.00  0.00    +0.047 A 
ATOM     17  C   UNL     1       7.795  -1.354  22.554  0.00  0.00    +0.124 A 
ATOM     18  C   UNL     1       7.287  -0.103  22.908  0.00  0.00    +0.047 A 
ATOM     19  C   UNL     1       7.988   1.066  22.605  0.00  0.00    +0.026 A 
BRANCH  14  20
ATOM     20  N   UNL     1       9.937   2.164  21.685  0.00  0.00    -0.358 N 
ATOM     21  H   UNL     1      10.236   2.204  20.716  0.00  0.00    +0.142 HD
ATOM     22  H   UNL     1      10.715   2.337  22.319  0.00  0.00    +0.142 HD
ENDBRANCH  14  20
ENDBRANCH  13  17
ENDBRANCH   1  13
BRANCH   5  23
ATOM     23  C   UNL     1       9.921  -4.900  25.812  0.00  0.00    +0.190 C 
BRANCH  23  24
ATOM     24  O   UNL     1       9.798  -6.160  25.151  0.00  0.00    -0.392 OA
ATOM     25  H   UNL     1       9.975  -5.983  24.206  0.00  0.00    +0.210 HD
ENDBRANCH  23  24
ENDBRANCH   5  23
TORSDOF 8
ENDMDL
MODEL 5
REMARK VINA RESULT:      -6.0      1.693      2.575
REMARK  Name = 
REMARK  8 active torsions:
REMARK  status: ('A' for Active; 'I' for Inactive)
REMARK    1  A    between atoms: N_1  and  C_2
REMARK    2  A    between atoms: C_5  and  O_6
REMARK    3  A    between atoms: O_6  and  C_7
REMARK    4  A    between atoms: C_10  and  C_12
REMARK    5  A    between atoms: C_12  and  O_13
REMARK    6  A    between atoms: C_14  and  O_16
REMARK    7  A    between atoms: C_17  and  O_19
REMARK    8  A    between atoms: C_20  and  O_22
REMARK                            x       y       z     vdW  Elec       q    Type
REMARK                         _______ _______ _______ _____ _____    ______ ____
ROOT
ATOM      1  C   UNL     1       8.674  -3.813  24.122  0.00  0.00    +0.339 C 
ATOM      2  C   UNL     1       7.610  -2.817  24.664  0.00  0.00    +0.214 C 
ATOM      3  C   UNL     1       6.189  -3.378  24.586  0.00  0.00    +0.180 C 
ATOM      4  C   UNL     1       5.916  -4.003  23.219  0.00  0.00    +0.177 C 
ATOM      5  C   UNL     1       6.991  -5.054  22.921  0.00  0.00    +0.179 C 
ATOM      6  O   UNL     1       8.287  -4.443  22.900  0.00  0.00    -0.331 OA
ENDROOT
BRANCH   2   7
ATOM      7  O   UNL     1       7.875  -2.443  26.034  0.00  0.00    -0.383 OA
ATOM      8  H   UNL     1       8.629  -1.833  26.071  0.00  0.00    +0.210 HD
ENDBRANCH   2   7
BRANCH   3   9
ATOM      9  O   UNL     1       5.229  -2.336  24.818  0.00  0.00    -0.386 OA
ATOM     10  H   UNL     1       5.412  -1.634  24.166  0.00  0.00    +0.210 HD
ENDBRANCH   3   9
BRANCH   4  11
ATOM     11  O   UNL     1       4.598  -4.551  23.213  0.00  0.00    -0.386 OA
ATOM     12  H   UNL     1       4.398  -4.895  22.325  0.00  0.00    +0.210 HD
ENDBRANCH   4  11
BRANCH   1  13
ATOM     13  O   UNL     1       9.821  -3.006  23.865  0.00  0.00    -0.461 OA
BRANCH  13  17
ATOM     14  C   UNL     1       9.985   0.788  22.187  0.00  0.00    +0.025 A 
ATOM     15  C   UNL     1       9.442  -0.250  21.423  0.00  0.00    +0.026 A 
ATOM     16  C   UNL     1       9.319  -1.546  21.949  0.00  0.00    +0.047 A 
ATOM     17  C   UNL     1       9.711  -1.795  23.258  0.00  0.00    +0.124 A 
ATOM     18  C   UNL     1      10.124  -0.728  24.060  0.00  0.00    +0.047 A 
ATOM     19  C   UNL     1      10.231   0.561  23.537  0.00  0.00    +0.026 A 
BRANCH  14  20
ATOM     20  N   UNL     1      10.086   2.083  21.662  0.00  0.00    -0.358 N 
ATOM     21  H   UNL     1      10.171   2.797  22.379  0.00  0.00    +0.142 HD
ATOM     22  H   UNL     1       9.337   2.302  21.009  0.00  0.00    +0.142 HD
ENDBRANCH  14  20
ENDBRANCH  13  17
ENDBRANCH   1  13
BRANCH   5  23
ATOM     23  C   UNL     1       6.777  -5.694  21.547  0.00  0.00    +0.190 C 
BRANCH  23  24
ATOM     24  O   UNL     1       5.881  -4.880  20.789  0.00  0.00    -0.392 OA
ATOM     25  H   UNL     1       4.984  -5.112  21.100  0.00  0.00    +0.210 HD
ENDBRANCH  23  24
ENDBRANCH   5  23
TORSDOF 8
ENDMDL
MODEL 6
REMARK VINA RESULT:      -5.9      2.157      3.655
REMARK  Name = 
REMARK  8 active torsions:
REMARK  status: ('A' for Active; 'I' for Inactive)
REMARK    1  A    between atoms: N_1  and  C_2
REMARK    2  A    between atoms: C_5  and  O_6
REMARK    3  A    between atoms: O_6  and  C_7
REMARK    4  A    between atoms: C_10  and  C_12
REMARK    5  A    between atoms: C_12  and  O_13
REMARK    6  A    between atoms: C_14  and  O_16
REMARK    7  A    between atoms: C_17  and  O_19
REMARK    8  A    between atoms: C_20  and  O_22
REMARK                            x       y       z     vdW  Elec       q    Type
REMARK                         _______ _______ _______ _____ _____    ______ ____
ROOT
ATOM      1  C   UNL     1       6.294  -4.778  24.216  0.00  0.00    +0.339 C 
ATOM      2  C   UNL     1       5.453  -5.923  23.584  0.00  0.00    +0.214 C 
ATOM      3  C   UNL     1       4.404  -6.480  24.548  0.00  0.00    +0.180 C 
ATOM      4  C   UNL     1       5.007  -6.747  25.926  0.00  0.00    +0.177 C 
ATOM      5  C   UNL     1       5.672  -5.467  26.442  0.00  0.00    +0.179 C 
ATOM      6  O   UNL     1       6.718  -5.061  25.551  0.00  0.00    -0.331 OA
ENDROOT
BRANCH   2   7
ATOM      7  O   UNL     1       4.779  -5.492  22.381  0.00  0.00    -0.383 OA
ATOM      8  H   UNL     1       3.930  -5.078  22.607  0.00  0.00    +0.210 HD
ENDBRANCH   2   7
BRANCH   3   9
ATOM      9  O   UNL     1       3.859  -7.707  24.036  0.00  0.00    -0.386 OA
ATOM     10  H   UNL     1       3.442  -7.494  23.181  0.00  0.00    +0.210 HD
ENDBRANCH   3   9
BRANCH   4  11
ATOM     11  O   UNL     1       3.981  -7.221  26.799  0.00  0.00    -0.386 OA
ATOM     12  H   UNL     1       3.204  -7.476  26.271  0.00  0.00    +0.210 HD
ENDBRANCH   4  11
BRANCH   1  13
ATOM     13  O   UNL     1       7.452  -4.687  23.390  0.00  0.00    -0.461 OA
BRANCH  13  17
ATOM     14  C   UNL     1       9.270  -0.957  23.255  0.00  0.00    +0.025 A 
ATOM     15  C   UNL     1       9.820  -1.931  24.095  0.00  0.00    +0.026 A 
ATOM     16  C   UNL     1       9.277  -3.225  24.152  0.00  0.00    +0.047 A 
ATOM     17  C   UNL     1       8.199  -3.553  23.340  0.00  0.00    +0.124 A 
ATOM     18  C   UNL     1       7.742  -2.622  22.406  0.00  0.00    +0.047 A 
ATOM     19  C   UNL     1       8.293  -1.341  22.342  0.00  0.00    +0.026 A 
BRANCH  14  20
ATOM     20  N   UNL     1       9.829   0.325  23.188  0.00  0.00    -0.358 N 
ATOM     21  H   UNL     1      10.582   0.466  23.855  0.00  0.00    +0.142 HD
ATOM     22  H   UNL     1       9.131   1.062  23.258  0.00  0.00    +0.142 HD
ENDBRANCH  14  20
ENDBRANCH  13  17
ENDBRANCH   1  13
BRANCH   5  23
ATOM     23  C   UNL     1       6.317  -5.689  27.813  0.00  0.00    +0.190 C 
BRANCH  23  24
ATOM     24  O   UNL     1       7.713  -5.932  27.638  0.00  0.00    -0.392 OA
ATOM     25  H   UNL     1       7.890  -5.789  26.688  0.00  0.00    +0.210 HD
ENDBRANCH  23  24
ENDBRANCH   5  23
TORSDOF 8
ENDMDL
MODEL 7
REMARK VINA RESULT:      -5.8      1.817      2.011
REMARK  Name = 
REMARK  8 active torsions:
REMARK  status: ('A' for Active; 'I' for Inactive)
REMARK    1  A    between atoms: N_1  and  C_2
REMARK    2  A    between atoms: C_5  and  O_6
REMARK    3  A    between atoms: O_6  and  C_7
REMARK    4  A    between atoms: C_10  and  C_12
REMARK    5  A    between atoms: C_12  and  O_13
REMARK    6  A    between atoms: C_14  and  O_16
REMARK    7  A    between atoms: C_17  and  O_19
REMARK    8  A    between atoms: C_20  and  O_22
REMARK                            x       y       z     vdW  Elec       q    Type
REMARK                         _______ _______ _______ _____ _____    ______ ____
ROOT
ATOM      1  C   UNL     1       8.819  -3.996  24.466  0.00  0.00    +0.339 C 
ATOM      2  C   UNL     1       8.027  -4.185  25.792  0.00  0.00    +0.214 C 
ATOM      3  C   UNL     1       6.989  -5.305  25.699  0.00  0.00    +0.180 C 
ATOM      4  C   UNL     1       6.169  -5.194  24.415  0.00  0.00    +0.177 C 
ATOM      5  C   UNL     1       7.117  -5.157  23.212  0.00  0.00    +0.179 C 
ATOM      6  O   UNL     1       7.988  -4.022  23.304  0.00  0.00    -0.331 OA
ENDROOT
BRANCH   2   7
ATOM      7  O   UNL     1       8.904  -4.470  26.903  0.00  0.00    -0.383 OA
ATOM      8  H   UNL     1       8.504  -4.156  27.731  0.00  0.00    +0.210 HD
ENDBRANCH   2   7
BRANCH   3   9
ATOM      9  O   UNL     1       6.097  -5.251  26.824  0.00  0.00    -0.386 OA
ATOM     10  H   UNL     1       6.251  -6.062  27.343  0.00  0.00    +0.210 HD
ENDBRANCH   3   9
BRANCH   4  11
ATOM     11  O   UNL     1       5.250  -6.284  24.354  0.00  0.00    -0.386 OA
ATOM     12  H   UNL     1       4.362  -5.969  24.601  0.00  0.00    +0.210 HD
ENDBRANCH   4  11
BRANCH   1  13
ATOM     13  O   UNL     1       9.392  -2.695  24.575  0.00  0.00    -0.461 OA
BRANCH  13  17
ATOM     14  C   UNL     1       8.889   0.504  21.978  0.00  0.00    +0.025 A 
ATOM     15  C   UNL     1       9.826  -0.479  21.643  0.00  0.00    +0.026 A 
ATOM     16  C   UNL     1      10.012  -1.607  22.458  0.00  0.00    +0.047 A 
ATOM     17  C   UNL     1       9.232  -1.767  23.596  0.00  0.00    +0.124 A 
ATOM     18  C   UNL     1       8.206  -0.855  23.852  0.00  0.00    +0.047 A 
ATOM     19  C   UNL     1       8.015   0.257  23.032  0.00  0.00    +0.026 A 
BRANCH  14  20
ATOM     20  N   UNL     1       8.696   1.617  21.150  0.00  0.00    -0.358 N 
ATOM     21  H   UNL     1       8.701   1.383  20.162  0.00  0.00    +0.142 HD
ATOM     22  H   UNL     1       9.343   2.376  21.353  0.00  0.00    +0.142 HD
ENDBRANCH  14  20
ENDBRANCH  13  17
ENDBRANCH   1  13
BRANCH   5  23
ATOM     23  C   UNL     1       6.343  -5.019  21.899  0.00  0.00    +0.190 C 
BRANCH  23  24
ATOM     24  O   UNL     1       5.867  -6.305  21.501  0.00  0.00    -0.392 OA
ATOM     25  H   UNL     1       5.704  -6.796  22.330  0.00  0.00    +0.210 HD
ENDBRANCH  23  24
ENDBRANCH   5  23
TORSDOF 8
ENDMDL
MODEL 8
REMARK VINA RESULT:      -5.8      3.709      6.204
REMARK  Name = 
REMARK  8 active torsions:
REMARK  status: ('A' for Active; 'I' for Inactive)
REMARK    1  A    between atoms: N_1  and  C_2
REMARK    2  A    between atoms: C_5  and  O_6
REMARK    3  A    between atoms: O_6  and  C_7
REMARK    4  A    between atoms: C_10  and  C_12
REMARK    5  A    between atoms: C_12  and  O_13
REMARK    6  A    between atoms: C_14  and  O_16
REMARK    7  A    between atoms: C_17  and  O_19
REMARK    8  A    between atoms: C_20  and  O_22
REMARK                            x       y       z     vdW  Elec       q    Type
REMARK                         _______ _______ _______ _____ _____    ______ ____
ROOT
ATOM      1  C   UNL     1       7.741  -1.258  23.652  0.00  0.00    +0.339 C 
ATOM      2  C   UNL     1       8.905  -1.122  24.674  0.00  0.00    +0.214 C 
ATOM      3  C   UNL     1       9.215   0.336  25.019  0.00  0.00    +0.180 C 
ATOM      4  C   UNL     1       9.300   1.196  23.758  0.00  0.00    +0.177 C 
ATOM      5  C   UNL     1       8.008   1.034  22.950  0.00  0.00    +0.179 C 
ATOM      6  O   UNL     1       7.835  -0.336  22.565  0.00  0.00    -0.331 OA
ENDROOT
BRANCH   2   7
ATOM      7  O   UNL     1       8.624  -1.828  25.903  0.00  0.00    -0.383 OA
ATOM      8  H   UNL     1       9.432  -2.254  26.233  0.00  0.00    +0.210 HD
ENDBRANCH   2   7
BRANCH   3   9
ATOM      9  O   UNL     1      10.462   0.427  25.725  0.00  0.00    -0.386 OA
ATOM     10  H   UNL     1      11.166   0.446  25.051  0.00  0.00    +0.210 HD
ENDBRANCH   3   9
BRANCH   4  11
ATOM     11  O   UNL     1       9.544   2.550  24.135  0.00  0.00    -0.386 OA
ATOM     12  H   UNL     1       8.788   3.100  23.863  0.00  0.00    +0.210 HD
ENDBRANCH   4  11
BRANCH   1  13
ATOM     13  O   UNL     1       7.877  -2.578  23.130  0.00  0.00    -0.461 OA
BRANCH  13  17
ATOM     14  C   UNL     1       4.877  -5.428  22.794  0.00  0.00    +0.025 A 
ATOM     15  C   UNL     1       4.533  -4.159  23.271  0.00  0.00    +0.026 A 
ATOM     16  C   UNL     1       5.493  -3.139  23.367  0.00  0.00    +0.047 A 
ATOM     17  C   UNL     1       6.797  -3.382  22.952  0.00  0.00    +0.124 A 
ATOM     18  C   UNL     1       7.103  -4.604  22.349  0.00  0.00    +0.047 A 
ATOM     19  C   UNL     1       6.142  -5.611  22.243  0.00  0.00    +0.026 A 
BRANCH  14  20
ATOM     20  N   UNL     1       3.910  -6.435  22.682  0.00  0.00    -0.358 N 
ATOM     21  H   UNL     1       4.225  -7.230  22.136  0.00  0.00    +0.142 HD
ATOM     22  H   UNL     1       3.016  -6.085  22.343  0.00  0.00    +0.142 HD
ENDBRANCH  14  20
ENDBRANCH  13  17
ENDBRANCH   1  13
BRANCH   5  23
ATOM     23  C   UNL     1       8.054   1.857  21.660  0.00  0.00    +0.190 C 
BRANCH  23  24
ATOM     24  O   UNL     1       9.415   2.147  21.340  0.00  0.00    -0.392 OA
ATOM     25  H   UNL     1       9.618   1.621  20.542  0.00  0.00    +0.210 HD
ENDBRANCH  23  24
ENDBRANCH   5  23
TORSDOF 8
ENDMDL
MODEL 9
REMARK VINA RESULT:      -5.7      4.061      6.372
REMARK  Name = 
REMARK  8 active torsions:
REMARK  status: ('A' for Active; 'I' for Inactive)
REMARK    1  A    between atoms: N_1  and  C_2
REMARK    2  A    between atoms: C_5  and  O_6
REMARK    3  A    between atoms: O_6  and  C_7
REMARK    4  A    between atoms: C_10  and  C_12
REMARK    5  A    between atoms: C_12  and  O_13
REMARK    6  A    between atoms: C_14  and  O_16
REMARK    7  A    between atoms: C_17  and  O_19
REMARK    8  A    between atoms: C_20  and  O_22
REMARK                            x       y       z     vdW  Elec       q    Type
REMARK                         _______ _______ _______ _____ _____    ______ ____
ROOT
ATOM      1  C   UNL     1       8.008  -0.185  23.433  0.00  0.00    +0.339 C 
ATOM      2  C   UNL     1       9.202   0.280  22.552  0.00  0.00    +0.214 C 
ATOM      3  C   UNL     1       9.376   1.799  22.556  0.00  0.00    +0.180 C 
ATOM      4  C   UNL     1       8.040   2.509  22.338  0.00  0.00    +0.177 C 
ATOM      5  C   UNL     1       7.033   2.021  23.384  0.00  0.00    +0.179 C 
ATOM      6  O   UNL     1       6.832   0.607  23.253  0.00  0.00    -0.331 OA
ENDROOT
BRANCH   2   7
ATOM      7  O   UNL     1      10.445  -0.320  22.976  0.00  0.00    -0.383 OA
ATOM      8  H   UNL     1      11.002   0.344  23.414  0.00  0.00    +0.210 HD
ENDBRANCH   2   7
BRANCH   3   9
ATOM      9  O   UNL     1      10.286   2.199  21.520  0.00  0.00    -0.386 OA
ATOM     10  H   UNL     1      10.258   1.503  20.837  0.00  0.00    +0.210 HD
ENDBRANCH   3   9
BRANCH   4  11
ATOM     11  O   UNL     1       8.249   3.920  22.396  0.00  0.00    -0.386 OA
ATOM     12  H   UNL     1       9.018   4.108  22.961  0.00  0.00    +0.210 HD
ENDBRANCH   4  11
BRANCH   1  13
ATOM     13  O   UNL     1       7.726  -1.508  22.984  0.00  0.00    -0.461 OA
BRANCH  13  17
ATOM     14  C   UNL     1       8.168  -4.604  25.715  0.00  0.00    +0.025 A 
ATOM     15  C   UNL     1       8.052  -4.929  24.360  0.00  0.00    +0.026 A 
ATOM     16  C   UNL     1       7.944  -3.926  23.383  0.00  0.00    +0.047 A 
ATOM     17  C   UNL     1       7.985  -2.591  23.764  0.00  0.00    +0.124 A 
ATOM     18  C   UNL     1       8.238  -2.271  25.099  0.00  0.00    +0.047 A 
ATOM     19  C   UNL     1       8.359  -3.271  26.065  0.00  0.00    +0.026 A 
BRANCH  14  20
ATOM     20  N   UNL     1       8.296  -5.609  26.682  0.00  0.00    -0.358 N 
ATOM     21  H   UNL     1       9.254  -5.747  26.987  0.00  0.00    +0.142 HD
ATOM     22  H   UNL     1       7.869  -6.487  26.394  0.00  0.00    +0.142 HD
ENDBRANCH  14  20
ENDBRANCH  13  17
ENDBRANCH   1  13
BRANCH   5  23
ATOM     23  C   UNL     1       5.667   2.684  23.192  0.00  0.00    +0.190 C 
BRANCH  23  24
ATOM     24  O   UNL     1       5.647   3.353  21.930  0.00  0.00    -0.392 OA
ATOM     25  H   UNL     1       4.723   3.638  21.795  0.00  0.00    +0.210 HD
ENDBRANCH  23  24
ENDBRANCH   5  23
TORSDOF 8
ENDMDL
