MODEL 1
REMARK VINA RESULT:      -5.7      0.000      0.000
REMARK  Name = 
REMARK  11 active torsions:
REMARK  status: ('A' for Active; 'I' for Inactive)
REMARK    1  A    between atoms: C_1  and  C_2
REMARK    2  A    between atoms: C_2  and  N_3
REMARK    3  A    between atoms: N_3  and  C_4
REMARK    4  A    between atoms: N_3  and  C_6
REMARK    5  A    between atoms: C_4  and  C_5
REMARK    6  A    between atoms: C_6  and  C_7
REMARK    7  A    between atoms: C_7  and  N_8
REMARK    8  A    between atoms: C_9  and  C_11
REMARK    9  A    between atoms: C_15  and  N_16
REMARK   10  A    between atoms: C_18  and  O_19
REMARK   11  A    between atoms: O_19  and  C_20
REMARK                            x       y       z     vdW  Elec       q    Type
REMARK                         _______ _______ _______ _____ _____    ______ ____
ROOT
ATOM      1  C   UNL     1       7.868  -3.816  24.030  0.00  0.00    +0.080 A 
ATOM      2  C   UNL     1       7.174  -4.406  25.104  0.00  0.00    +0.134 A 
ATOM      3  C   UNL     1       6.165  -5.348  24.829  0.00  0.00    +0.070 A 
ATOM      4  C   UNL     1       5.833  -5.712  23.520  0.00  0.00    +0.047 A 
ATOM      5  C   UNL     1       6.598  -5.186  22.475  0.00  0.00    +0.062 A 
ATOM      6 CL   UNL     1       6.309  -5.671  20.841  0.00  0.00    -0.082 Cl
ATOM      7  C   UNL     1       7.592  -4.240  22.720  0.00  0.00    +0.038 A 
ENDROOT
BRANCH   1  10
ATOM      8  N   UNL     1       8.623  -1.631  24.821  0.00  0.00    -0.310 N 
ATOM      9  H   UNL     1       7.780  -1.572  25.378  0.00  0.00    +0.149 HD
ATOM     10  C   UNL     1       8.977  -2.824  24.211  0.00  0.00    +0.248 C 
ATOM     11  O   UNL     1      10.110  -3.044  23.794  0.00  0.00    -0.270 OA
BRANCH   8  12
ATOM     12  C   UNL     1       9.574  -0.545  24.967  0.00  0.00    +0.120 C 
BRANCH  12  13
ATOM     13  C   UNL     1       9.174   0.723  24.168  0.00  0.00    +0.103 C 
BRANCH  13  14
ATOM     14  N   UNL     1      10.208   1.247  23.240  0.00  0.00    -0.301 NA
BRANCH  14  16
ATOM     15  C   UNL     1       9.353  -0.277  21.412  0.00  0.00    +0.020 C 
ATOM     16  C   UNL     1       9.778   1.127  21.836  0.00  0.00    +0.081 C 
ENDBRANCH  14  16
BRANCH  14  17
ATOM     17  C   UNL     1      10.618   2.617  23.617  0.00  0.00    +0.081 C 
ATOM     18  C   UNL     1       9.502   3.625  23.888  0.00  0.00    +0.020 C 
ENDBRANCH  14  17
ENDBRANCH  13  14
ENDBRANCH  12  13
ENDBRANCH   8  12
ENDBRANCH   1  10
BRANCH   4  19
ATOM     19  N   UNL     1       4.907  -6.752  23.321  0.00  0.00    -0.357 N 
ATOM     20  H   UNL     1       4.781  -7.029  22.352  0.00  0.00    +0.142 HD
ATOM     21  H   UNL     1       5.071  -7.546  23.938  0.00  0.00    +0.142 HD
ENDBRANCH   4  19
BRANCH   2  22
ATOM     22  O   UNL     1       7.461  -4.000  26.385  0.00  0.00    -0.494 OA
ATOM     23  C   UNL     1       6.355  -3.580  27.181  0.00  0.00    +0.277 C 
ENDBRANCH   2  22
TORSDOF 8
ENDMDL
MODEL 2
REMARK VINA RESULT:      -5.6      2.903      6.770
REMARK  Name = 
REMARK  11 active torsions:
REMARK  status: ('A' for Active; 'I' for Inactive)
REMARK    1  A    between atoms: C_1  and  C_2
REMARK    2  A    between atoms: C_2  and  N_3
REMARK    3  A    between atoms: N_3  and  C_4
REMARK    4  A    between atoms: N_3  and  C_6
REMARK    5  A    between atoms: C_4  and  C_5
REMARK    6  A    between atoms: C_6  and  C_7
REMARK    7  A    between atoms: C_7  and  N_8
REMARK    8  A    between atoms: C_9  and  C_11
REMARK    9  A    between atoms: C_15  and  N_16
REMARK   10  A    between atoms: C_18  and  O_19
REMARK   11  A    between atoms: O_19  and  C_20
REMARK                            x       y       z     vdW  Elec       q    Type
REMARK                         _______ _______ _______ _____ _____    ______ ____
ROOT
ATOM      1  C   UNL     1       7.379  -0.504  22.955  0.00  0.00    +0.080 A 
ATOM      2  C   UNL     1       8.688  -0.914  22.636  0.00  0.00    +0.134 A 
ATOM      3  C   UNL     1       9.595   0.035  22.128  0.00  0.00    +0.070 A 
ATOM      4  C   UNL     1       9.230   1.371  21.928  0.00  0.00    +0.047 A 
ATOM      5  C   UNL     1       7.957   1.775  22.340  0.00  0.00    +0.062 A 
ATOM      6 CL   UNL     1       7.476   3.431  22.218  0.00  0.00    -0.082 Cl
ATOM      7  C   UNL     1       7.036   0.852  22.832  0.00  0.00    +0.038 A 
ENDROOT
BRANCH   1  10
ATOM      8  N   UNL     1       6.032  -2.533  22.756  0.00  0.00    -0.310 N 
ATOM      9  H   UNL     1       6.671  -2.855  22.041  0.00  0.00    +0.149 HD
ATOM     10  C   UNL     1       6.344  -1.425  23.527  0.00  0.00    +0.248 C 
ATOM     11  O   UNL     1       5.778  -1.176  24.588  0.00  0.00    -0.270 OA
BRANCH   8  12
ATOM     12  C   UNL     1       4.976  -3.451  23.142  0.00  0.00    +0.120 C 
BRANCH  12  13
ATOM     13  C   UNL     1       5.515  -4.799  23.687  0.00  0.00    +0.103 C 
BRANCH  13  14
ATOM     14  N   UNL     1       6.979  -4.849  23.936  0.00  0.00    -0.301 NA
BRANCH  14  16
ATOM     15  C   UNL     1       7.204  -3.984  26.302  0.00  0.00    +0.020 C 
ATOM     16  C   UNL     1       7.271  -5.171  25.344  0.00  0.00    +0.081 C 
ENDBRANCH  14  16
BRANCH  14  17
ATOM     17  C   UNL     1       7.653  -5.745  22.973  0.00  0.00    +0.081 C 
ATOM     18  C   UNL     1       6.941  -5.998  21.645  0.00  0.00    +0.020 C 
ENDBRANCH  14  17
ENDBRANCH  13  14
ENDBRANCH  12  13
ENDBRANCH   8  12
ENDBRANCH   1  10
BRANCH   4  19
ATOM     19  N   UNL     1      10.220   2.291  21.540  0.00  0.00    -0.357 N 
ATOM     20  H   UNL     1       9.946   3.267  21.618  0.00  0.00    +0.142 HD
ATOM     21  H   UNL     1      11.122   2.102  21.972  0.00  0.00    +0.142 HD
ENDBRANCH   4  19
BRANCH   2  22
ATOM     22  O   UNL     1       9.024  -2.239  22.776  0.00  0.00    -0.494 OA
ATOM     23  C   UNL     1       9.850  -2.571  23.889  0.00  0.00    +0.277 C 
ENDBRANCH   2  22
TORSDOF 8
ENDMDL
MODEL 3
REMARK VINA RESULT:      -5.6      0.448      1.594
REMARK  Name = 
REMARK  11 active torsions:
REMARK  status: ('A' for Active; 'I' for Inactive)
REMARK    1  A    between atoms: C_1  and  C_2
REMARK    2  A    between atoms: C_2  and  N_3
REMARK    3  A    between atoms: N_3  and  C_4
REMARK    4  A    between atoms: N_3  and  C_6
REMARK    5  A    between atoms: C_4  and  C_5
REMARK    6  A    between atoms: C_6  and  C_7
REMARK    7  A    between atoms: C_7  and  N_8
REMARK    8  A    between atoms: C_9  and  C_11
REMARK    9  A    between atoms: C_15  and  N_16
REMARK   10  A    between atoms: C_18  and  O_19
REMARK   11  A    between atoms: O_19  and  C_20
REMARK                            x       y       z     vdW  Elec       q    Type
REMARK                         _______ _______ _______ _____ _____    ______ ____
ROOT
ATOM      1  C   UNL     1       7.867  -3.821  24.011  0.00  0.00    +0.080 A 
ATOM      2  C   UNL     1       7.165  -4.404  25.084  0.00  0.00    +0.134 A 
ATOM      3  C   UNL     1       6.154  -5.343  24.807  0.00  0.00    +0.070 A 
ATOM      4  C   UNL     1       5.826  -5.709  23.497  0.00  0.00    +0.047 A 
ATOM      5  C   UNL     1       6.598  -5.189  22.454  0.00  0.00    +0.062 A 
ATOM      6 CL   UNL     1       6.314  -5.678  20.820  0.00  0.00    -0.082 Cl
ATOM      7  C   UNL     1       7.595  -4.247  22.701  0.00  0.00    +0.038 A 
ENDROOT
BRANCH   1  10
ATOM      8  N   UNL     1       8.629  -1.639  24.806  0.00  0.00    -0.310 N 
ATOM      9  H   UNL     1       7.785  -1.577  25.362  0.00  0.00    +0.149 HD
ATOM     10  C   UNL     1       8.979  -2.833  24.194  0.00  0.00    +0.248 C 
ATOM     11  O   UNL     1      10.112  -3.057  23.779  0.00  0.00    -0.270 OA
BRANCH   8  12
ATOM     12  C   UNL     1       9.584  -0.557  24.954  0.00  0.00    +0.120 C 
BRANCH  12  13
ATOM     13  C   UNL     1       8.931   0.846  24.846  0.00  0.00    +0.103 C 
BRANCH  13  14
ATOM     14  N   UNL     1       9.138   1.549  23.554  0.00  0.00    -0.301 NA
BRANCH  14  16
ATOM     15  C   UNL     1      11.000   3.251  23.366  0.00  0.00    +0.020 C 
ATOM     16  C   UNL     1       9.559   2.945  23.767  0.00  0.00    +0.081 C 
ENDBRANCH  14  16
BRANCH  14  17
ATOM     17  C   UNL     1      10.046   0.787  22.670  0.00  0.00    +0.081 C 
ATOM     18  C   UNL     1       9.420   0.106  21.454  0.00  0.00    +0.020 C 
ENDBRANCH  14  17
ENDBRANCH  13  14
ENDBRANCH  12  13
ENDBRANCH   8  12
ENDBRANCH   1  10
BRANCH   4  19
ATOM     19  N   UNL     1       4.896  -6.745  23.297  0.00  0.00    -0.357 N 
ATOM     20  H   UNL     1       4.829  -7.076  22.339  0.00  0.00    +0.142 HD
ATOM     21  H   UNL     1       5.005  -7.504  23.967  0.00  0.00    +0.142 HD
ENDBRANCH   4  19
BRANCH   2  22
ATOM     22  O   UNL     1       7.448  -3.996  26.365  0.00  0.00    -0.494 OA
ATOM     23  C   UNL     1       6.353  -3.492  27.127  0.00  0.00    +0.277 C 
ENDBRANCH   2  22
TORSDOF 8
ENDMDL
MODEL 4
REMARK VINA RESULT:      -5.6      2.170      2.805
REMARK  Name = 
REMARK  11 active torsions:
REMARK  status: ('A' for Active; 'I' for Inactive)
REMARK    1  A    between atoms: C_1  and  C_2
REMARK    2  A    between atoms: C_2  and  N_3
REMARK    3  A    between atoms: N_3  and  C_4
REMARK    4  A    between atoms: N_3  and  C_6
REMARK    5  A    between atoms: C_4  and  C_5
REMARK    6  A    between atoms: C_6  and  C_7
REMARK    7  A    between atoms: C_7  and  N_8
REMARK    8  A    between atoms: C_9  and  C_11
REMARK    9  A    between atoms: C_15  and  N_16
REMARK   10  A    between atoms: C_18  and  O_19
REMARK   11  A    between atoms: O_19  and  C_20
REMARK                            x       y       z     vdW  Elec       q    Type
REMARK                         _______ _______ _______ _____ _____    ______ ____
ROOT
ATOM      1  C   UNL     1       6.771  -4.856  24.241  0.00  0.00    +0.080 A 
ATOM      2  C   UNL     1       7.369  -4.941  25.513  0.00  0.00    +0.134 A 
ATOM      3  C   UNL     1       6.721  -5.674  26.524  0.00  0.00    +0.070 A 
ATOM      4  C   UNL     1       5.498  -6.317  26.300  0.00  0.00    +0.047 A 
ATOM      5  C   UNL     1       4.971  -6.299  25.006  0.00  0.00    +0.062 A 
ATOM      6 CL   UNL     1       3.517  -7.159  24.635  0.00  0.00    -0.082 Cl
ATOM      7  C   UNL     1       5.586  -5.568  23.992  0.00  0.00    +0.038 A 
ENDROOT
BRANCH   1  10
ATOM      8  N   UNL     1       7.923  -2.881  23.379  0.00  0.00    -0.310 N 
ATOM      9  H   UNL     1       8.161  -2.638  24.332  0.00  0.00    +0.149 HD
ATOM     10  C   UNL     1       7.389  -4.126  23.087  0.00  0.00    +0.248 C 
ATOM     11  O   UNL     1       7.371  -4.588  21.950  0.00  0.00    -0.270 OA
BRANCH   8  12
ATOM     12  C   UNL     1       8.461  -2.025  22.338  0.00  0.00    +0.120 C 
BRANCH  12  13
ATOM     13  C   UNL     1       9.886  -1.506  22.657  0.00  0.00    +0.103 C 
BRANCH  13  14
ATOM     14  N   UNL     1      10.162  -0.103  22.251  0.00  0.00    -0.301 NA
BRANCH  14  16
ATOM     15  C   UNL     1       8.526   1.760  21.752  0.00  0.00    +0.020 C 
ATOM     16  C   UNL     1       9.114   0.409  21.352  0.00  0.00    +0.081 C 
ENDBRANCH  14  16
BRANCH  14  17
ATOM     17  C   UNL     1      10.401   0.756  23.430  0.00  0.00    +0.081 C 
ATOM     18  C   UNL     1      10.325   0.087  24.802  0.00  0.00    +0.020 C 
ENDBRANCH  14  17
ENDBRANCH  13  14
ENDBRANCH  12  13
ENDBRANCH   8  12
ENDBRANCH   1  10
BRANCH   4  19
ATOM     19  N   UNL     1       4.970  -7.137  27.314  0.00  0.00    -0.357 N 
ATOM     20  H   UNL     1       4.460  -7.949  26.979  0.00  0.00    +0.142 HD
ATOM     21  H   UNL     1       5.659  -7.373  28.026  0.00  0.00    +0.142 HD
ENDBRANCH   4  19
BRANCH   2  22
ATOM     22  O   UNL     1       8.538  -4.257  25.746  0.00  0.00    -0.494 OA
ATOM     23  C   UNL     1       9.738  -5.025  25.720  0.00  0.00    +0.277 C 
ENDBRANCH   2  22
TORSDOF 8
ENDMDL
MODEL 5
REMARK VINA RESULT:      -5.6      2.112      3.212
REMARK  Name = 
REMARK  11 active torsions:
REMARK  status: ('A' for Active; 'I' for Inactive)
REMARK    1  A    between atoms: C_1  and  C_2
REMARK    2  A    between atoms: C_2  and  N_3
REMARK    3  A    between atoms: N_3  and  C_4
REMARK    4  A    between atoms: N_3  and  C_6
REMARK    5  A    between atoms: C_4  and  C_5
REMARK    6  A    between atoms: C_6  and  C_7
REMARK    7  A    between atoms: C_7  and  N_8
REMARK    8  A    between atoms: C_9  and  C_11
REMARK    9  A    between atoms: C_15  and  N_16
REMARK   10  A    between atoms: C_18  and  O_19
REMARK   11  A    between atoms: O_19  and  C_20
REMARK                            x       y       z     vdW  Elec       q    Type
REMARK                         _______ _______ _______ _____ _____    ______ ____
ROOT
ATOM      1  C   UNL     1       7.846  -4.138  24.140  0.00  0.00    +0.080 A 
ATOM      2  C   UNL     1       6.956  -4.827  23.293  0.00  0.00    +0.134 A 
ATOM      3  C   UNL     1       5.957  -5.635  23.865  0.00  0.00    +0.070 A 
ATOM      4  C   UNL     1       5.825  -5.774  25.252  0.00  0.00    +0.047 A 
ATOM      5  C   UNL     1       6.657  -5.008  26.073  0.00  0.00    +0.062 A 
ATOM      6 CL   UNL     1       6.481  -5.054  27.793  0.00  0.00    -0.082 Cl
ATOM      7  C   UNL     1       7.664  -4.213  25.530  0.00  0.00    +0.038 A 
ENDROOT
BRANCH   1  10
ATOM      8  N   UNL     1       8.556  -2.354  22.629  0.00  0.00    -0.310 N 
ATOM      9  H   UNL     1       7.580  -2.127  22.482  0.00  0.00    +0.149 HD
ATOM     10  C   UNL     1       8.927  -3.231  23.636  0.00  0.00    +0.248 C 
ATOM     11  O   UNL     1      10.077  -3.305  24.059  0.00  0.00    -0.270 OA
BRANCH   8  12
ATOM     12  C   UNL     1       9.526  -1.491  21.981  0.00  0.00    +0.120 C 
BRANCH  12  13
ATOM     13  C   UNL     1       9.184   0.015  22.117  0.00  0.00    +0.103 C 
BRANCH  13  14
ATOM     14  N   UNL     1      10.192   0.838  22.833  0.00  0.00    -0.301 NA
BRANCH  14  16
ATOM     15  C   UNL     1      10.812   3.230  23.375  0.00  0.00    +0.020 C 
ATOM     16  C   UNL     1       9.723   2.223  23.011  0.00  0.00    +0.081 C 
ENDBRANCH  14  16
BRANCH  14  17
ATOM     17  C   UNL     1      10.612   0.190  24.094  0.00  0.00    +0.081 C 
ATOM     18  C   UNL     1       9.586   0.145  25.225  0.00  0.00    +0.020 C 
ENDBRANCH  14  17
ENDBRANCH  13  14
ENDBRANCH  12  13
ENDBRANCH   8  12
ENDBRANCH   1  10
BRANCH   4  19
ATOM     19  N   UNL     1       4.727  -6.493  25.758  0.00  0.00    -0.357 N 
ATOM     20  H   UNL     1       4.122  -5.962  26.378  0.00  0.00    +0.142 HD
ATOM     21  H   UNL     1       4.210  -6.983  25.030  0.00  0.00    +0.142 HD
ENDBRANCH   4  19
BRANCH   2  22
ATOM     22  O   UNL     1       7.127  -4.737  21.932  0.00  0.00    -0.494 OA
ATOM     23  C   UNL     1       6.361  -5.636  21.135  0.00  0.00    +0.277 C 
ENDBRANCH   2  22
TORSDOF 8
ENDMDL
MODEL 6
REMARK VINA RESULT:      -5.4      3.126      6.691
REMARK  Name = 
REMARK  11 active torsions:
REMARK  status: ('A' for Active; 'I' for Inactive)
REMARK    1  A    between atoms: C_1  and  C_2
REMARK    2  A    between atoms: C_2  and  N_3
REMARK    3  A    between atoms: N_3  and  C_4
REMARK    4  A    between atoms: N_3  and  C_6
REMARK    5  A    between atoms: C_4  and  C_5
REMARK    6  A    between atoms: C_6  and  C_7
REMARK    7  A    between atoms: C_7  and  N_8
REMARK    8  A    between atoms: C_9  and  C_11
REMARK    9  A    between atoms: C_15  and  N_16
REMARK   10  A    between atoms: C_18  and  O_19
REMARK   11  A    between atoms: O_19  and  C_20
REMARK                            x       y       z     vdW  Elec       q    Type
REMARK                         _______ _______ _______ _____ _____    ______ ____
ROOT
ATOM      1  C   UNL     1       9.367   0.009  23.240  0.00  0.00    +0.080 A 
ATOM      2  C   UNL     1       8.037   0.430  23.051  0.00  0.00    +0.134 A 
ATOM      3  C   UNL     1       7.760   1.808  22.990  0.00  0.00    +0.070 A 
ATOM      4  C   UNL     1       8.770   2.769  23.114  0.00  0.00    +0.047 A 
ATOM      5  C   UNL     1      10.093   2.328  23.204  0.00  0.00    +0.062 A 
ATOM      6 CL   UNL     1      11.399   3.460  23.257  0.00  0.00    -0.082 Cl
ATOM      7  C   UNL     1      10.391   0.968  23.282  0.00  0.00    +0.038 A 
ENDROOT
BRANCH   1  10
ATOM      8  N   UNL     1       9.210  -2.182  24.312  0.00  0.00    -0.310 N 
ATOM      9  H   UNL     1       8.362  -1.867  24.768  0.00  0.00    +0.149 HD
ATOM     10  C   UNL     1       9.775  -1.433  23.292  0.00  0.00    +0.248 C 
ATOM     11  O   UNL     1      10.598  -1.897  22.508  0.00  0.00    -0.270 OA
BRANCH   8  12
ATOM     12  C   UNL     1       9.594  -3.563  24.539  0.00  0.00    +0.120 C 
BRANCH  12  13
ATOM     13  C   UNL     1       8.476  -4.571  24.168  0.00  0.00    +0.103 C 
BRANCH  13  14
ATOM     14  N   UNL     1       7.224  -3.973  23.640  0.00  0.00    -0.301 NA
BRANCH  14  16
ATOM     15  C   UNL     1       7.157  -5.796  21.887  0.00  0.00    +0.020 C 
ATOM     16  C   UNL     1       7.027  -4.311  22.220  0.00  0.00    +0.081 C 
ENDBRANCH  14  16
BRANCH  14  17
ATOM     17  C   UNL     1       6.067  -4.316  24.495  0.00  0.00    +0.081 C 
ATOM     18  C   UNL     1       6.280  -5.405  25.545  0.00  0.00    +0.020 C 
ENDBRANCH  14  17
ENDBRANCH  13  14
ENDBRANCH  12  13
ENDBRANCH   8  12
ENDBRANCH   1  10
BRANCH   4  19
ATOM     19  N   UNL     1       8.444   4.123  22.915  0.00  0.00    -0.357 N 
ATOM     20  H   UNL     1       7.447   4.319  22.882  0.00  0.00    +0.142 HD
ATOM     21  H   UNL     1       8.944   4.744  23.548  0.00  0.00    +0.142 HD
ENDBRANCH   4  19
BRANCH   2  22
ATOM     22  O   UNL     1       7.041  -0.515  22.992  0.00  0.00    -0.494 OA
ATOM     23  C   UNL     1       6.149  -0.568  24.103  0.00  0.00    +0.277 C 
ENDBRANCH   2  22
TORSDOF 8
ENDMDL
MODEL 7
REMARK VINA RESULT:      -5.2      2.271      2.940
REMARK  Name = 
REMARK  11 active torsions:
REMARK  status: ('A' for Active; 'I' for Inactive)
REMARK    1  A    between atoms: C_1  and  C_2
REMARK    2  A    between atoms: C_2  and  N_3
REMARK    3  A    between atoms: N_3  and  C_4
REMARK    4  A    between atoms: N_3  and  C_6
REMARK    5  A    between atoms: C_4  and  C_5
REMARK    6  A    between atoms: C_6  and  C_7
REMARK    7  A    between atoms: C_7  and  N_8
REMARK    8  A    between atoms: C_9  and  C_11
REMARK    9  A    between atoms: C_15  and  N_16
REMARK   10  A    between atoms: C_18  and  O_19
REMARK   11  A    between atoms: O_19  and  C_20
REMARK                            x       y       z     vdW  Elec       q    Type
REMARK                         _______ _______ _______ _____ _____    ______ ____
ROOT
ATOM      1  C   UNL     1       7.360  -3.284  24.385  0.00  0.00    +0.080 A 
ATOM      2  C   UNL     1       8.143  -3.153  25.548  0.00  0.00    +0.134 A 
ATOM      3  C   UNL     1       7.939  -4.051  26.612  0.00  0.00    +0.070 A 
ATOM      4  C   UNL     1       6.979  -5.066  26.546  0.00  0.00    +0.047 A 
ATOM      5  C   UNL     1       6.280  -5.237  25.348  0.00  0.00    +0.062 A 
ATOM      6 CL   UNL     1       5.152  -6.534  25.163  0.00  0.00    -0.082 Cl
ATOM      7  C   UNL     1       6.453  -4.351  24.285  0.00  0.00    +0.038 A 
ENDROOT
BRANCH   1  10
ATOM      8  N   UNL     1       8.808  -2.253  22.708  0.00  0.00    -0.310 N 
ATOM      9  H   UNL     1       9.522  -2.930  22.946  0.00  0.00    +0.149 HD
ATOM     10  C   UNL     1       7.514  -2.401  23.184  0.00  0.00    +0.248 C 
ATOM     11  O   UNL     1       6.557  -1.809  22.694  0.00  0.00    -0.270 OA
BRANCH   8  12
ATOM     12  C   UNL     1       9.113  -1.347  21.615  0.00  0.00    +0.120 C 
BRANCH  12  13
ATOM     13  C   UNL     1       9.810  -0.045  22.085  0.00  0.00    +0.103 C 
BRANCH  13  14
ATOM     14  N   UNL     1       8.933   0.940  22.769  0.00  0.00    -0.301 NA
BRANCH  14  16
ATOM     15  C   UNL     1      10.890   1.010  24.370  0.00  0.00    +0.020 C 
ATOM     16  C   UNL     1       9.684   1.725  23.764  0.00  0.00    +0.081 C 
ENDBRANCH  14  16
BRANCH  14  17
ATOM     17  C   UNL     1       8.200   1.771  21.791  0.00  0.00    +0.081 C 
ATOM     18  C   UNL     1       7.683   3.123  22.280  0.00  0.00    +0.020 C 
ENDBRANCH  14  17
ENDBRANCH  13  14
ENDBRANCH  12  13
ENDBRANCH   8  12
ENDBRANCH   1  10
BRANCH   4  19
ATOM     19  N   UNL     1       6.916  -6.006  27.591  0.00  0.00    -0.357 N 
ATOM     20  H   UNL     1       7.584  -5.852  28.341  0.00  0.00    +0.142 HD
ATOM     21  H   UNL     1       5.967  -6.147  27.934  0.00  0.00    +0.142 HD
ENDBRANCH   4  19
BRANCH   2  22
ATOM     22  O   UNL     1       9.042  -2.117  25.632  0.00  0.00    -0.494 OA
ATOM     23  C   UNL     1       8.684  -1.033  26.486  0.00  0.00    +0.277 C 
ENDBRANCH   2  22
TORSDOF 8
ENDMDL
MODEL 8
REMARK VINA RESULT:      -5.1      2.441      6.612
REMARK  Name = 
REMARK  11 active torsions:
REMARK  status: ('A' for Active; 'I' for Inactive)
REMARK    1  A    between atoms: C_1  and  C_2
REMARK    2  A    between atoms: C_2  and  N_3
REMARK    3  A    between atoms: N_3  and  C_4
REMARK    4  A    between atoms: N_3  and  C_6
REMARK    5  A    between atoms: C_4  and  C_5
REMARK    6  A    between atoms: C_6  and  C_7
REMARK    7  A    between atoms: C_7  and  N_8
REMARK    8  A    between atoms: C_9  and  C_11
REMARK    9  A    between atoms: C_15  and  N_16
REMARK   10  A    between atoms: C_18  and  O_19
REMARK   11  A    between atoms: O_19  and  C_20
REMARK                            x       y       z     vdW  Elec       q    Type
REMARK                         _______ _______ _______ _____ _____    ______ ____
ROOT
ATOM      1  C   UNL     1       9.095  -1.298  24.353  0.00  0.00    +0.080 A 
ATOM      2  C   UNL     1       8.567  -0.641  25.482  0.00  0.00    +0.134 A 
ATOM      3  C   UNL     1       8.571   0.765  25.516  0.00  0.00    +0.070 A 
ATOM      4  C   UNL     1       9.088   1.527  24.462  0.00  0.00    +0.047 A 
ATOM      5  C   UNL     1       9.519   0.857  23.313  0.00  0.00    +0.062 A 
ATOM      6 CL   UNL     1      10.074   1.740  21.934  0.00  0.00    -0.082 Cl
ATOM      7  C   UNL     1       9.539  -0.536  23.261  0.00  0.00    +0.038 A 
ENDROOT
BRANCH   1  10
ATOM      8  N   UNL     1       7.878  -3.415  24.253  0.00  0.00    -0.310 N 
ATOM      9  H   UNL     1       7.030  -2.889  24.080  0.00  0.00    +0.149 HD
ATOM     10  C   UNL     1       9.114  -2.789  24.202  0.00  0.00    +0.248 C 
ATOM     11  O   UNL     1      10.166  -3.411  24.094  0.00  0.00    -0.270 OA
BRANCH   8  12
ATOM     12  C   UNL     1       7.760  -4.861  24.221  0.00  0.00    +0.120 C 
BRANCH  12  13
ATOM     13  C   UNL     1       6.326  -5.359  24.537  0.00  0.00    +0.103 C 
BRANCH  13  14
ATOM     14  N   UNL     1       5.569  -5.904  23.380  0.00  0.00    -0.301 NA
BRANCH  14  16
ATOM     15  C   UNL     1       3.076  -5.480  23.323  0.00  0.00    +0.020 C 
ATOM     16  C   UNL     1       4.482  -4.995  22.977  0.00  0.00    +0.081 C 
ENDBRANCH  14  16
BRANCH  14  17
ATOM     17  C   UNL     1       6.477  -6.268  22.272  0.00  0.00    +0.081 C 
ATOM     18  C   UNL     1       6.204  -5.626  20.913  0.00  0.00    +0.020 C 
ENDBRANCH  14  17
ENDBRANCH  13  14
ENDBRANCH  12  13
ENDBRANCH   8  12
ENDBRANCH   1  10
BRANCH   4  19
ATOM     19  N   UNL     1       8.945   2.926  24.504  0.00  0.00    -0.357 N 
ATOM     20  H   UNL     1       8.237   3.260  25.151  0.00  0.00    +0.142 HD
ATOM     21  H   UNL     1       9.835   3.408  24.614  0.00  0.00    +0.142 HD
ENDBRANCH   4  19
BRANCH   2  22
ATOM     22  O   UNL     1       8.117  -1.393  26.540  0.00  0.00    -0.494 OA
ATOM     23  C   UNL     1       6.719  -1.333  26.813  0.00  0.00    +0.277 C 
ENDBRANCH   2  22
TORSDOF 8
ENDMDL
MODEL 9
REMARK VINA RESULT:      -5.1      3.601      7.610
REMARK  Name = 
REMARK  11 active torsions:
REMARK  status: ('A' for Active; 'I' for Inactive)
REMARK    1  A    between atoms: C_1  and  C_2
REMARK    2  A    between atoms: C_2  and  N_3
REMARK    3  A    between atoms: N_3  and  C_4
REMARK    4  A    between atoms: N_3  and  C_6
REMARK    5  A    between atoms: C_4  and  C_5
REMARK    6  A    between atoms: C_6  and  C_7
REMARK    7  A    between atoms: C_7  and  N_8
REMARK    8  A    between atoms: C_9  and  C_11
REMARK    9  A    between atoms: C_15  and  N_16
REMARK   10  A    between atoms: C_18  and  O_19
REMARK   11  A    between atoms: O_19  and  C_20
REMARK                            x       y       z     vdW  Elec       q    Type
REMARK                         _______ _______ _______ _____ _____    ______ ____
ROOT
ATOM      1  C   UNL     1       9.514   1.628  23.138  0.00  0.00    +0.080 A 
ATOM      2  C   UNL     1       8.294   2.227  23.508  0.00  0.00    +0.134 A 
ATOM      3  C   UNL     1       8.291   3.574  23.912  0.00  0.00    +0.070 A 
ATOM      4  C   UNL     1       9.466   4.333  23.960  0.00  0.00    +0.047 A 
ATOM      5  C   UNL     1      10.649   3.747  23.499  0.00  0.00    +0.062 A 
ATOM      6 CL   UNL     1      12.117   4.658  23.435  0.00  0.00    -0.082 Cl
ATOM      7  C   UNL     1      10.680   2.409  23.108  0.00  0.00    +0.038 A 
ENDROOT
BRANCH   1  10
ATOM      8  N   UNL     1       9.512  -0.762  23.648  0.00  0.00    -0.310 N 
ATOM      9  H   UNL     1       9.073  -0.546  24.534  0.00  0.00    +0.149 HD
ATOM     10  C   UNL     1       9.626   0.210  22.666  0.00  0.00    +0.248 C 
ATOM     11  O   UNL     1       9.856  -0.060  21.491  0.00  0.00    -0.270 OA
BRANCH   8  12
ATOM     12  C   UNL     1       9.701  -2.169  23.345  0.00  0.00    +0.120 C 
BRANCH  12  13
ATOM     13  C   UNL     1       8.367  -2.923  23.109  0.00  0.00    +0.103 C 
BRANCH  13  14
ATOM     14  N   UNL     1       8.325  -4.321  23.608  0.00  0.00    -0.301 NA
BRANCH  14  16
ATOM     15  C   UNL     1       9.815  -5.110  25.494  0.00  0.00    +0.020 C 
ATOM     16  C   UNL     1       8.546  -4.376  25.063  0.00  0.00    +0.081 C 
ENDBRANCH  14  16
BRANCH  14  17
ATOM     17  C   UNL     1       7.091  -5.007  23.171  0.00  0.00    +0.081 C 
ATOM     18  C   UNL     1       7.191  -5.892  21.929  0.00  0.00    +0.020 C 
ENDBRANCH  14  17
ENDBRANCH  13  14
ENDBRANCH  12  13
ENDBRANCH   8  12
ENDBRANCH   1  10
BRANCH   4  19
ATOM     19  N   UNL     1       9.373   5.706  24.249  0.00  0.00    -0.357 N 
ATOM     20  H   UNL     1       8.966   6.269  23.508  0.00  0.00    +0.142 HD
ATOM     21  H   UNL     1       8.950   5.888  25.158  0.00  0.00    +0.142 HD
ENDBRANCH   4  19
BRANCH   2  22
ATOM     22  O   UNL     1       7.153   1.461  23.518  0.00  0.00    -0.494 OA
ATOM     23  C   UNL     1       6.584   1.187  24.796  0.00  0.00    +0.277 C 
ENDBRANCH   2  22
TORSDOF 8
ENDMDL
