MODEL 1
REMARK VINA RESULT:      -7.8      0.000      0.000
REMARK  Name = 
REMARK  4 active torsions:
REMARK  status: ('A' for Active; 'I' for Inactive)
REMARK    1  A    between atoms: C_2  and  C_3
REMARK    2  A    between atoms: C_3  and  C_4
REMARK    3  A    between atoms: C_4  and  N_5
REMARK    4  A    between atoms: C_6  and  C_8
REMARK                            x       y       z     vdW  Elec       q    Type
REMARK                         _______ _______ _______ _____ _____    ______ ____
ROOT
ATOM      1  C   UNL     1       9.482  -0.983  25.518  0.00  0.00    +0.313 C 
ATOM      2  N   UNL     1       9.736  -1.600  24.219  0.00  0.00    -0.060 NA
ATOM      3  C   UNL     1       9.587  -0.912  23.138  0.00  0.00    +0.317 C 
ATOM      4  N   UNL     1       9.870  -1.560  21.968  0.00  0.00    -0.246 N 
ATOM      5  H   UNL     1       9.935  -2.567  22.048  0.00  0.00    +0.288 HD
ATOM      6  H   UNL     1       9.473  -1.212  21.101  0.00  0.00    +0.288 HD
ATOM      7  C   UNL     1       9.124   0.493  23.132  0.00  0.00    +0.124 A 
ATOM      8  C   UNL     1       8.924   1.099  24.373  0.00  0.00    +0.084 A 
ATOM      9  C   UNL     1       8.520   2.444  24.382  0.00  0.00    +0.145 A 
ATOM     10  C   UNL     1       8.289   3.158  23.207  0.00  0.00    +0.043 A 
ATOM     11  C   UNL     1       8.472   2.529  21.979  0.00  0.00    +0.042 A 
ATOM     12  F   UNL     1       8.343   3.072  25.556  0.00  0.00    -0.204 F 
ATOM     13  C   UNL     1       8.887   1.200  21.947  0.00  0.00    +0.140 A 
ATOM     14  F   UNL     1       9.041   0.618  20.748  0.00  0.00    -0.205 F 
ATOM     15  N   UNL     1       9.245   0.447  25.555  0.00  0.00    -0.300 N 
ATOM     16  H   UNL     1       8.825   0.824  26.400  0.00  0.00    +0.150 HD
ENDROOT
BRANCH   1  17
ATOM     17  C   UNL     1       8.318  -1.721  26.197  0.00  0.00    +0.093 C 
BRANCH  17  18
ATOM     18  C   UNL     1       8.377  -3.228  25.948  0.00  0.00    +0.110 C 
BRANCH  18  19
ATOM     19  N   UNL     1       7.684  -3.597  24.728  0.00  0.00    -0.311 N 
ATOM     20  H   UNL     1       6.871  -3.062  24.466  0.00  0.00    +0.149 HD
ATOM     21  C   UNL     1       8.084  -4.662  23.952  0.00  0.00    +0.247 C 
ATOM     22  O   UNL     1       9.044  -5.371  24.235  0.00  0.00    -0.270 OA
BRANCH  21  23
ATOM     23  C   UNL     1       7.277  -4.887  22.763  0.00  0.00    +0.074 A 
ATOM     24  C   UNL     1       7.032  -6.065  21.994  0.00  0.00    +0.054 A 
ATOM     25  C   UNL     1       6.194  -5.699  20.967  0.00  0.00    +0.195 A 
ATOM     26  O   UNL     1       5.894  -4.380  21.049  0.00  0.00    -0.470 OA
ATOM     27  C   UNL     1       6.549  -3.895  22.133  0.00  0.00    +0.207 A 
ENDBRANCH  21  23
ENDBRANCH  18  19
ENDBRANCH  17  18
ENDBRANCH   1  17
TORSDOF 4
ENDMDL
MODEL 2
REMARK VINA RESULT:      -7.2      3.829      7.407
REMARK  Name = 
REMARK  4 active torsions:
REMARK  status: ('A' for Active; 'I' for Inactive)
REMARK    1  A    between atoms: C_2  and  C_3
REMARK    2  A    between atoms: C_3  and  C_4
REMARK    3  A    between atoms: C_4  and  N_5
REMARK    4  A    between atoms: C_6  and  C_8
REMARK                            x       y       z     vdW  Elec       q    Type
REMARK                         _______ _______ _______ _____ _____    ______ ____
ROOT
ATOM      1  C   UNL     1      10.005  -0.523  22.145  0.00  0.00    +0.313 C 
ATOM      2  N   UNL     1      10.319   0.090  23.432  0.00  0.00    -0.060 NA
ATOM      3  C   UNL     1       9.845  -0.415  24.520  0.00  0.00    +0.317 C 
ATOM      4  N   UNL     1      10.210   0.206  25.682  0.00  0.00    -0.246 N 
ATOM      5  H   UNL     1      10.614   1.127  25.560  0.00  0.00    +0.288 HD
ATOM      6  H   UNL     1       9.637   0.083  26.510  0.00  0.00    +0.288 HD
ATOM      7  C   UNL     1       8.944  -1.588  24.540  0.00  0.00    +0.124 A 
ATOM      8  C   UNL     1       8.677  -2.203  23.316  0.00  0.00    +0.084 A 
ATOM      9  C   UNL     1       7.852  -3.339  23.325  0.00  0.00    +0.145 A 
ATOM     10  C   UNL     1       7.283  -3.834  24.498  0.00  0.00    +0.043 A 
ATOM     11  C   UNL     1       7.543  -3.194  25.706  0.00  0.00    +0.042 A 
ATOM     12  F   UNL     1       7.593  -3.976  22.172  0.00  0.00    -0.204 F 
ATOM     13  C   UNL     1       8.370  -2.073  25.721  0.00  0.00    +0.140 A 
ATOM     14  F   UNL     1       8.590  -1.469  26.899  0.00  0.00    -0.205 F 
ATOM     15  N   UNL     1       9.311  -1.796  22.150  0.00  0.00    -0.300 N 
ATOM     16  H   UNL     1       8.875  -2.089  21.281  0.00  0.00    +0.150 HD
ENDROOT
BRANCH   1  17
ATOM     17  C   UNL     1       9.224   0.490  21.292  0.00  0.00    +0.093 C 
BRANCH  17  18
ATOM     18  C   UNL     1       8.599   1.592  22.148  0.00  0.00    +0.110 C 
BRANCH  18  19
ATOM     19  N   UNL     1       9.538   2.666  22.410  0.00  0.00    -0.311 N 
ATOM     20  H   UNL     1      10.166   2.935  21.669  0.00  0.00    +0.149 HD
ATOM     21  C   UNL     1       9.614   3.292  23.634  0.00  0.00    +0.247 C 
ATOM     22  O   UNL     1       8.901   2.987  24.584  0.00  0.00    -0.270 OA
BRANCH  21  23
ATOM     23  C   UNL     1      10.610   4.348  23.719  0.00  0.00    +0.074 A 
ATOM     24  C   UNL     1      10.524   5.695  24.185  0.00  0.00    +0.054 A 
ATOM     25  C   UNL     1      11.775   6.247  24.028  0.00  0.00    +0.195 A 
ATOM     26  O   UNL     1      12.632   5.336  23.506  0.00  0.00    -0.470 OA
ATOM     27  C   UNL     1      11.925   4.193  23.321  0.00  0.00    +0.207 A 
ENDBRANCH  21  23
ENDBRANCH  18  19
ENDBRANCH  17  18
ENDBRANCH   1  17
TORSDOF 4
ENDMDL
MODEL 3
REMARK VINA RESULT:      -7.0      1.180      2.676
REMARK  Name = 
REMARK  4 active torsions:
REMARK  status: ('A' for Active; 'I' for Inactive)
REMARK    1  A    between atoms: C_2  and  C_3
REMARK    2  A    between atoms: C_3  and  C_4
REMARK    3  A    between atoms: C_4  and  N_5
REMARK    4  A    between atoms: C_6  and  C_8
REMARK                            x       y       z     vdW  Elec       q    Type
REMARK                         _______ _______ _______ _____ _____    ______ ____
ROOT
ATOM      1  C   UNL     1       7.678  -1.171  25.312  0.00  0.00    +0.313 C 
ATOM      2  N   UNL     1       7.412  -0.004  26.148  0.00  0.00    -0.060 NA
ATOM      3  C   UNL     1       7.851   1.157  25.794  0.00  0.00    +0.317 C 
ATOM      4  N   UNL     1       7.534   2.198  26.621  0.00  0.00    -0.246 N 
ATOM      5  H   UNL     1       7.199   1.924  27.537  0.00  0.00    +0.288 HD
ATOM      6  H   UNL     1       8.099   3.040  26.594  0.00  0.00    +0.288 HD
ATOM      7  C   UNL     1       8.663   1.376  24.578  0.00  0.00    +0.124 A 
ATOM      8  C   UNL     1       8.882   0.271  23.754  0.00  0.00    +0.084 A 
ATOM      9  C   UNL     1       9.622   0.473  22.577  0.00  0.00    +0.145 A 
ATOM     10  C   UNL     1      10.156   1.716  22.241  0.00  0.00    +0.043 A 
ATOM     11  C   UNL     1       9.946   2.801  23.086  0.00  0.00    +0.042 A 
ATOM     12  F   UNL     1       9.831  -0.559  21.745  0.00  0.00    -0.204 F 
ATOM     13  C   UNL     1       9.204   2.626  24.251  0.00  0.00    +0.140 A 
ATOM     14  F   UNL     1       9.031   3.687  25.053  0.00  0.00    -0.205 F 
ATOM     15  N   UNL     1       8.277  -0.952  24.010  0.00  0.00    -0.300 N 
ATOM     16  H   UNL     1       8.689  -1.758  23.549  0.00  0.00    +0.150 HD
ENDROOT
BRANCH   1  17
ATOM     17  C   UNL     1       8.529  -2.170  26.114  0.00  0.00    +0.093 C 
BRANCH  17  18
ATOM     18  C   UNL     1       7.885  -3.555  26.163  0.00  0.00    +0.110 C 
BRANCH  18  19
ATOM     19  N   UNL     1       7.284  -3.913  24.892  0.00  0.00    -0.311 N 
ATOM     20  H   UNL     1       6.352  -3.580  24.700  0.00  0.00    +0.149 HD
ATOM     21  C   UNL     1       7.931  -4.708  23.973  0.00  0.00    +0.247 C 
ATOM     22  O   UNL     1       9.051  -5.171  24.162  0.00  0.00    -0.270 OA
BRANCH  21  23
ATOM     23  C   UNL     1       7.182  -4.964  22.753  0.00  0.00    +0.074 A 
ATOM     24  C   UNL     1       6.966  -6.163  22.008  0.00  0.00    +0.054 A 
ATOM     25  C   UNL     1       6.183  -5.821  20.929  0.00  0.00    +0.195 A 
ATOM     26  O   UNL     1       5.891  -4.498  20.956  0.00  0.00    -0.470 OA
ATOM     27  C   UNL     1       6.496  -3.986  22.057  0.00  0.00    +0.207 A 
ENDBRANCH  21  23
ENDBRANCH  18  19
ENDBRANCH  17  18
ENDBRANCH   1  17
TORSDOF 4
ENDMDL
MODEL 4
REMARK VINA RESULT:      -6.8      3.271      6.695
REMARK  Name = 
REMARK  4 active torsions:
REMARK  status: ('A' for Active; 'I' for Inactive)
REMARK    1  A    between atoms: C_2  and  C_3
REMARK    2  A    between atoms: C_3  and  C_4
REMARK    3  A    between atoms: C_4  and  N_5
REMARK    4  A    between atoms: C_6  and  C_8
REMARK                            x       y       z     vdW  Elec       q    Type
REMARK                         _______ _______ _______ _____ _____    ______ ____
ROOT
ATOM      1  C   UNL     1       8.196  -3.339  26.054  0.00  0.00    +0.313 C 
ATOM      2  N   UNL     1       7.427  -4.409  26.684  0.00  0.00    -0.060 NA
ATOM      3  C   UNL     1       6.718  -5.206  25.959  0.00  0.00    +0.317 C 
ATOM      4  N   UNL     1       6.051  -6.195  26.628  0.00  0.00    -0.246 N 
ATOM      5  H   UNL     1       5.989  -6.060  27.630  0.00  0.00    +0.288 HD
ATOM      6  H   UNL     1       5.245  -6.630  26.192  0.00  0.00    +0.288 HD
ATOM      7  C   UNL     1       6.600  -5.073  24.491  0.00  0.00    +0.124 A 
ATOM      8  C   UNL     1       7.367  -4.080  23.881  0.00  0.00    +0.084 A 
ATOM      9  C   UNL     1       7.293  -3.966  22.484  0.00  0.00    +0.145 A 
ATOM     10  C   UNL     1       6.464  -4.784  21.716  0.00  0.00    +0.043 A 
ATOM     11  C   UNL     1       5.690  -5.754  22.345  0.00  0.00    +0.042 A 
ATOM     12  F   UNL     1       8.036  -3.041  21.857  0.00  0.00    -0.204 F 
ATOM     13  C   UNL     1       5.759  -5.892  23.728  0.00  0.00    +0.140 A 
ATOM     14  F   UNL     1       4.990  -6.827  24.307  0.00  0.00    -0.205 F 
ATOM     15  N   UNL     1       8.277  -3.322  24.607  0.00  0.00    -0.300 N 
ATOM     16  H   UNL     1       8.585  -2.458  24.171  0.00  0.00    +0.150 HD
ENDROOT
BRANCH   1  17
ATOM     17  C   UNL     1       7.668  -1.987  26.561  0.00  0.00    +0.093 C 
BRANCH  17  18
ATOM     18  C   UNL     1       8.801  -1.070  27.021  0.00  0.00    +0.110 C 
BRANCH  18  19
ATOM     19  N   UNL     1       8.867   0.141  26.226  0.00  0.00    -0.311 N 
ATOM     20  H   UNL     1       8.374   0.954  26.561  0.00  0.00    +0.149 HD
ATOM     21  C   UNL     1       9.548   0.197  25.030  0.00  0.00    +0.247 C 
ATOM     22  O   UNL     1      10.139  -0.766  24.553  0.00  0.00    -0.270 OA
BRANCH  21  23
ATOM     23  C   UNL     1       9.512   1.491  24.368  0.00  0.00    +0.074 A 
ATOM     24  C   UNL     1       8.429   2.372  24.067  0.00  0.00    +0.054 A 
ATOM     25  C   UNL     1       8.971   3.458  23.421  0.00  0.00    +0.195 A 
ATOM     26  O   UNL     1      10.314   3.319  23.307  0.00  0.00    -0.470 OA
ATOM     27  C   UNL     1      10.635   2.132  23.879  0.00  0.00    +0.207 A 
ENDBRANCH  21  23
ENDBRANCH  18  19
ENDBRANCH  17  18
ENDBRANCH   1  17
TORSDOF 4
ENDMDL
MODEL 5
REMARK VINA RESULT:      -6.8      3.847      7.322
REMARK  Name = 
REMARK  4 active torsions:
REMARK  status: ('A' for Active; 'I' for Inactive)
REMARK    1  A    between atoms: C_2  and  C_3
REMARK    2  A    between atoms: C_3  and  C_4
REMARK    3  A    between atoms: C_4  and  N_5
REMARK    4  A    between atoms: C_6  and  C_8
REMARK                            x       y       z     vdW  Elec       q    Type
REMARK                         _______ _______ _______ _____ _____    ______ ____
ROOT
ATOM      1  C   UNL     1       8.973  -3.789  24.431  0.00  0.00    +0.313 C 
ATOM      2  N   UNL     1       8.900  -4.516  25.696  0.00  0.00    -0.060 NA
ATOM      3  C   UNL     1       7.859  -5.225  25.972  0.00  0.00    +0.317 C 
ATOM      4  N   UNL     1       7.885  -5.892  27.166  0.00  0.00    -0.246 N 
ATOM      5  H   UNL     1       8.601  -5.578  27.810  0.00  0.00    +0.288 HD
ATOM      6  H   UNL     1       7.010  -6.184  27.588  0.00  0.00    +0.288 HD
ATOM      7  C   UNL     1       6.684  -5.319  25.079  0.00  0.00    +0.124 A 
ATOM      8  C   UNL     1       6.769  -4.662  23.850  0.00  0.00    +0.084 A 
ATOM      9  C   UNL     1       5.675  -4.773  22.976  0.00  0.00    +0.145 A 
ATOM     10  C   UNL     1       4.522  -5.481  23.316  0.00  0.00    +0.043 A 
ATOM     11  C   UNL     1       4.448  -6.110  24.555  0.00  0.00    +0.042 A 
ATOM     12  F   UNL     1       5.729  -4.178  21.774  0.00  0.00    -0.204 F 
ATOM     13  C   UNL     1       5.527  -6.024  25.431  0.00  0.00    +0.140 A 
ATOM     14  F   UNL     1       5.420  -6.630  26.623  0.00  0.00    -0.205 F 
ATOM     15  N   UNL     1       7.941  -4.039  23.444  0.00  0.00    -0.300 N 
ATOM     16  H   UNL     1       7.848  -3.363  22.691  0.00  0.00    +0.150 HD
ENDROOT
BRANCH   1  17
ATOM     17  C   UNL     1       9.054  -2.284  24.729  0.00  0.00    +0.093 C 
BRANCH  17  18
ATOM     18  C   UNL     1       9.736  -1.515  23.598  0.00  0.00    +0.110 C 
BRANCH  18  19
ATOM     19  N   UNL     1       9.414  -0.101  23.639  0.00  0.00    -0.311 N 
ATOM     20  H   UNL     1       8.582   0.207  23.161  0.00  0.00    +0.149 HD
ATOM     21  C   UNL     1      10.220   0.817  24.274  0.00  0.00    +0.247 C 
ATOM     22  O   UNL     1      11.262   0.509  24.844  0.00  0.00    -0.270 OA
BRANCH  21  23
ATOM     23  C   UNL     1       9.743   2.189  24.218  0.00  0.00    +0.074 A 
ATOM     24  C   UNL     1      10.272   3.350  23.576  0.00  0.00    +0.054 A 
ATOM     25  C   UNL     1       9.413   4.386  23.863  0.00  0.00    +0.195 A 
ATOM     26  O   UNL     1       8.385   3.948  24.630  0.00  0.00    -0.470 OA
ATOM     27  C   UNL     1       8.589   2.625  24.842  0.00  0.00    +0.207 A 
ENDBRANCH  21  23
ENDBRANCH  18  19
ENDBRANCH  17  18
ENDBRANCH   1  17
TORSDOF 4
ENDMDL
MODEL 6
REMARK VINA RESULT:      -6.8      2.069      3.097
REMARK  Name = 
REMARK  4 active torsions:
REMARK  status: ('A' for Active; 'I' for Inactive)
REMARK    1  A    between atoms: C_2  and  C_3
REMARK    2  A    between atoms: C_3  and  C_4
REMARK    3  A    between atoms: C_4  and  N_5
REMARK    4  A    between atoms: C_6  and  C_8
REMARK                            x       y       z     vdW  Elec       q    Type
REMARK                         _______ _______ _______ _____ _____    ______ ____
ROOT
ATOM      1  C   UNL     1       9.381   0.695  21.547  0.00  0.00    +0.313 C 
ATOM      2  N   UNL     1       7.974   0.566  21.917  0.00  0.00    -0.060 NA
ATOM      3  C   UNL     1       7.435   1.426  22.713  0.00  0.00    +0.317 C 
ATOM      4  N   UNL     1       6.108   1.245  22.986  0.00  0.00    -0.246 N 
ATOM      5  H   UNL     1       5.745   0.334  22.733  0.00  0.00    +0.288 HD
ATOM      6  H   UNL     1       5.715   1.657  23.826  0.00  0.00    +0.288 HD
ATOM      7  C   UNL     1       8.188   2.544  23.323  0.00  0.00    +0.124 A 
ATOM      8  C   UNL     1       9.520   2.696  22.938  0.00  0.00    +0.084 A 
ATOM      9  C   UNL     1      10.235   3.776  23.481  0.00  0.00    +0.145 A 
ATOM     10  C   UNL     1       9.666   4.656  24.400  0.00  0.00    +0.043 A 
ATOM     11  C   UNL     1       8.342   4.475  24.789  0.00  0.00    +0.042 A 
ATOM     12  F   UNL     1      11.512   3.972  23.115  0.00  0.00    -0.204 F 
ATOM     13  C   UNL     1       7.610   3.419  24.252  0.00  0.00    +0.140 A 
ATOM     14  F   UNL     1       6.341   3.262  24.658  0.00  0.00    -0.205 F 
ATOM     15  N   UNL     1      10.081   1.900  21.949  0.00  0.00    -0.300 N 
ATOM     16  H   UNL     1      11.096   1.876  21.919  0.00  0.00    +0.150 HD
ENDROOT
BRANCH   1  17
ATOM     17  C   UNL     1      10.141  -0.541  22.053  0.00  0.00    +0.093 C 
BRANCH  17  18
ATOM     18  C   UNL     1       9.374  -1.267  23.158  0.00  0.00    +0.110 C 
BRANCH  18  19
ATOM     19  N   UNL     1       8.459  -2.254  22.618  0.00  0.00    -0.311 N 
ATOM     20  H   UNL     1       8.006  -2.048  21.741  0.00  0.00    +0.149 HD
ATOM     21  C   UNL     1       8.173  -3.429  23.277  0.00  0.00    +0.247 C 
ATOM     22  O   UNL     1       8.666  -3.722  24.361  0.00  0.00    -0.270 OA
BRANCH  21  23
ATOM     23  C   UNL     1       7.237  -4.303  22.589  0.00  0.00    +0.074 A 
ATOM     24  C   UNL     1       7.354  -5.655  22.145  0.00  0.00    +0.054 A 
ATOM     25  C   UNL     1       6.160  -5.978  21.544  0.00  0.00    +0.195 A 
ATOM     26  O   UNL     1       5.306  -4.927  21.592  0.00  0.00    -0.470 OA
ATOM     27  C   UNL     1       5.960  -3.919  22.222  0.00  0.00    +0.207 A 
ENDBRANCH  21  23
ENDBRANCH  18  19
ENDBRANCH  17  18
ENDBRANCH   1  17
TORSDOF 4
ENDMDL
MODEL 7
REMARK VINA RESULT:      -6.6      2.549      3.719
REMARK  Name = 
REMARK  4 active torsions:
REMARK  status: ('A' for Active; 'I' for Inactive)
REMARK    1  A    between atoms: C_2  and  C_3
REMARK    2  A    between atoms: C_3  and  C_4
REMARK    3  A    between atoms: C_4  and  N_5
REMARK    4  A    between atoms: C_6  and  C_8
REMARK                            x       y       z     vdW  Elec       q    Type
REMARK                         _______ _______ _______ _____ _____    ______ ____
ROOT
ATOM      1  C   UNL     1       6.813  -2.240  23.094  0.00  0.00    +0.313 C 
ATOM      2  N   UNL     1       8.144  -2.324  22.498  0.00  0.00    -0.060 NA
ATOM      3  C   UNL     1       8.793  -1.246  22.214  0.00  0.00    +0.317 C 
ATOM      4  N   UNL     1      10.041  -1.417  21.683  0.00  0.00    -0.246 N 
ATOM      5  H   UNL     1      10.233  -2.354  21.348  0.00  0.00    +0.288 HD
ATOM      6  H   UNL     1      10.457  -0.664  21.146  0.00  0.00    +0.288 HD
ATOM      7  C   UNL     1       8.239   0.109  22.425  0.00  0.00    +0.124 A 
ATOM      8  C   UNL     1       6.986   0.194  23.034  0.00  0.00    +0.084 A 
ATOM      9  C   UNL     1       6.465   1.475  23.273  0.00  0.00    +0.145 A 
ATOM     10  C   UNL     1       7.141   2.635  22.893  0.00  0.00    +0.043 A 
ATOM     11  C   UNL     1       8.378   2.529  22.266  0.00  0.00    +0.042 A 
ATOM     12  F   UNL     1       5.275   1.600  23.882  0.00  0.00    -0.204 F 
ATOM     13  C   UNL     1       8.920   1.267  22.033  0.00  0.00    +0.140 A 
ATOM     14  F   UNL     1      10.108   1.198  21.413  0.00  0.00    -0.205 F 
ATOM     15  N   UNL     1       6.339  -0.936  23.515  0.00  0.00    -0.300 N 
ATOM     16  H   UNL     1       5.342  -0.840  23.686  0.00  0.00    +0.150 HD
ENDROOT
BRANCH   1  17
ATOM     17  C   UNL     1       5.799  -2.876  22.130  0.00  0.00    +0.093 C 
BRANCH  17  18
ATOM     18  C   UNL     1       5.361  -4.263  22.598  0.00  0.00    +0.110 C 
BRANCH  18  19
ATOM     19  N   UNL     1       5.885  -4.576  23.914  0.00  0.00    -0.311 N 
ATOM     20  H   UNL     1       6.798  -4.222  24.155  0.00  0.00    +0.149 HD
ATOM     21  C   UNL     1       5.194  -5.357  24.813  0.00  0.00    +0.247 C 
ATOM     22  O   UNL     1       4.096  -5.844  24.566  0.00  0.00    -0.270 OA
BRANCH  21  23
ATOM     23  C   UNL     1       5.867  -5.566  26.084  0.00  0.00    +0.074 A 
ATOM     24  C   UNL     1       5.379  -6.000  27.354  0.00  0.00    +0.054 A 
ATOM     25  C   UNL     1       6.457  -6.010  28.209  0.00  0.00    +0.195 A 
ATOM     26  O   UNL     1       7.580  -5.622  27.558  0.00  0.00    -0.470 OA
ATOM     27  C   UNL     1       7.220  -5.356  26.278  0.00  0.00    +0.207 A 
ENDBRANCH  21  23
ENDBRANCH  18  19
ENDBRANCH  17  18
ENDBRANCH   1  17
TORSDOF 4
ENDMDL
MODEL 8
REMARK VINA RESULT:      -6.6      2.594      3.405
REMARK  Name = 
REMARK  4 active torsions:
REMARK  status: ('A' for Active; 'I' for Inactive)
REMARK    1  A    between atoms: C_2  and  C_3
REMARK    2  A    between atoms: C_3  and  C_4
REMARK    3  A    between atoms: C_4  and  N_5
REMARK    4  A    between atoms: C_6  and  C_8
REMARK                            x       y       z     vdW  Elec       q    Type
REMARK                         _______ _______ _______ _____ _____    ______ ____
ROOT
ATOM      1  C   UNL     1       9.513   0.014  22.825  0.00  0.00    +0.313 C 
ATOM      2  N   UNL     1       8.053   0.068  22.847  0.00  0.00    -0.060 NA
ATOM      3  C   UNL     1       7.453   1.184  23.087  0.00  0.00    +0.317 C 
ATOM      4  N   UNL     1       6.086   1.149  23.063  0.00  0.00    -0.246 N 
ATOM      5  H   UNL     1       5.686   0.219  23.096  0.00  0.00    +0.288 HD
ATOM      6  H   UNL     1       5.564   1.869  23.550  0.00  0.00    +0.288 HD
ATOM      7  C   UNL     1       8.173   2.440  23.390  0.00  0.00    +0.124 A 
ATOM      8  C   UNL     1       9.566   2.403  23.327  0.00  0.00    +0.084 A 
ATOM      9  C   UNL     1      10.261   3.597  23.576  0.00  0.00    +0.145 A 
ATOM     10  C   UNL     1       9.605   4.782  23.910  0.00  0.00    +0.043 A 
ATOM     11  C   UNL     1       8.216   4.793  23.990  0.00  0.00    +0.042 A 
ATOM     12  F   UNL     1      11.601   3.609  23.498  0.00  0.00    -0.204 F 
ATOM     13  C   UNL     1       7.507   3.623  23.732  0.00  0.00    +0.140 A 
ATOM     14  F   UNL     1       6.169   3.663  23.832  0.00  0.00    -0.205 F 
ATOM     15  N   UNL     1      10.239   1.267  22.897  0.00  0.00    -0.300 N 
ATOM     16  H   UNL     1      11.225   1.217  23.136  0.00  0.00    +0.150 HD
ENDROOT
BRANCH   1  17
ATOM     17  C   UNL     1       9.990  -0.928  23.941  0.00  0.00    +0.093 C 
BRANCH  17  18
ATOM     18  C   UNL     1       9.947  -2.393  23.507  0.00  0.00    +0.110 C 
BRANCH  18  19
ATOM     19  N   UNL     1       8.888  -3.121  24.179  0.00  0.00    -0.311 N 
ATOM     20  H   UNL     1       7.964  -2.717  24.181  0.00  0.00    +0.149 HD
ATOM     21  C   UNL     1       9.116  -4.312  24.832  0.00  0.00    +0.247 C 
ATOM     22  O   UNL     1      10.223  -4.837  24.894  0.00  0.00    -0.270 OA
BRANCH  21  23
ATOM     23  C   UNL     1       7.940  -4.905  25.448  0.00  0.00    +0.074 A 
ATOM     24  C   UNL     1       6.641  -5.192  24.929  0.00  0.00    +0.054 A 
ATOM     25  C   UNL     1       5.918  -5.747  25.958  0.00  0.00    +0.195 A 
ATOM     26  O   UNL     1       6.678  -5.834  27.077  0.00  0.00    -0.470 OA
ATOM     27  C   UNL     1       7.895  -5.325  26.765  0.00  0.00    +0.207 A 
ENDBRANCH  21  23
ENDBRANCH  18  19
ENDBRANCH  17  18
ENDBRANCH   1  17
TORSDOF 4
ENDMDL
MODEL 9
REMARK VINA RESULT:      -6.6      2.141      2.316
REMARK  Name = 
REMARK  4 active torsions:
REMARK  status: ('A' for Active; 'I' for Inactive)
REMARK    1  A    between atoms: C_2  and  C_3
REMARK    2  A    between atoms: C_3  and  C_4
REMARK    3  A    between atoms: C_4  and  N_5
REMARK    4  A    between atoms: C_6  and  C_8
REMARK                            x       y       z     vdW  Elec       q    Type
REMARK                         _______ _______ _______ _____ _____    ______ ____
ROOT
ATOM      1  C   UNL     1       9.500  -1.122  25.447  0.00  0.00    +0.313 C 
ATOM      2  N   UNL     1       9.778  -1.649  24.114  0.00  0.00    -0.060 NA
ATOM      3  C   UNL     1       9.603  -0.903  23.076  0.00  0.00    +0.317 C 
ATOM      4  N   UNL     1       9.912  -1.468  21.870  0.00  0.00    -0.246 N 
ATOM      5  H   UNL     1      10.017  -2.475  21.889  0.00  0.00    +0.288 HD
ATOM      6  H   UNL     1       9.502  -1.085  21.025  0.00  0.00    +0.288 HD
ATOM      7  C   UNL     1       9.086   0.480  23.154  0.00  0.00    +0.124 A 
ATOM      8  C   UNL     1       8.861   1.002  24.428  0.00  0.00    +0.084 A 
ATOM      9  C   UNL     1       8.404   2.327  24.517  0.00  0.00    +0.145 A 
ATOM     10  C   UNL     1       8.145   3.101  23.386  0.00  0.00    +0.043 A 
ATOM     11  C   UNL     1       8.354   2.555  22.124  0.00  0.00    +0.042 A 
ATOM     12  F   UNL     1       8.201   2.875  25.726  0.00  0.00    -0.204 F 
ATOM     13  C   UNL     1       8.820   1.247  22.013  0.00  0.00    +0.140 A 
ATOM     14  F   UNL     1       8.998   0.745  20.782  0.00  0.00    -0.205 F 
ATOM     15  N   UNL     1       9.207   0.293  25.570  0.00  0.00    -0.300 N 
ATOM     16  H   UNL     1       8.772   0.601  26.435  0.00  0.00    +0.150 HD
ENDROOT
BRANCH   1  17
ATOM     17  C   UNL     1       8.366  -1.945  26.078  0.00  0.00    +0.093 C 
BRANCH  17  18
ATOM     18  C   UNL     1       8.662  -3.444  26.041  0.00  0.00    +0.110 C 
BRANCH  18  19
ATOM     19  N   UNL     1       7.481  -4.216  25.702  0.00  0.00    -0.311 N 
ATOM     20  H   UNL     1       6.966  -3.952  24.877  0.00  0.00    +0.149 HD
ATOM     21  C   UNL     1       7.038  -5.259  26.483  0.00  0.00    +0.247 C 
ATOM     22  O   UNL     1       7.601  -5.606  27.516  0.00  0.00    -0.270 OA
BRANCH  21  23
ATOM     23  C   UNL     1       5.841  -5.923  25.992  0.00  0.00    +0.074 A 
ATOM     24  C   UNL     1       4.876  -6.745  26.650  0.00  0.00    +0.054 A 
ATOM     25  C   UNL     1       3.954  -7.111  25.698  0.00  0.00    +0.195 A 
ATOM     26  O   UNL     1       4.273  -6.568  24.498  0.00  0.00    -0.470 OA
ATOM     27  C   UNL     1       5.410  -5.853  24.680  0.00  0.00    +0.207 A 
ENDBRANCH  21  23
ENDBRANCH  18  19
ENDBRANCH  17  18
ENDBRANCH   1  17
TORSDOF 4
ENDMDL
