MODEL 1
REMARK VINA RESULT:      -6.8      0.000      0.000
REMARK  Name = 
REMARK  8 active torsions:
REMARK  status: ('A' for Active; 'I' for Inactive)
REMARK    1  A    between atoms: O_1  and  C_2
REMARK    2  A    between atoms: C_2  and  C_3
REMARK    3  A    between atoms: C_5  and  O_7
REMARK    4  A    between atoms: C_8  and  O_10
REMARK    5  A    between atoms: C_11  and  O_13
REMARK    6  A    between atoms: C_16  and  C_17
REMARK    7  A    between atoms: C_17  and  N_18
REMARK    8  A    between atoms: N_18  and  C_19
REMARK                            x       y       z     vdW  Elec       q    Type
REMARK                         _______ _______ _______ _____ _____    ______ ____
ROOT
ATOM      1  C   UNL     1       7.053  -3.926  22.195  0.00  0.00    +0.145 C 
ATOM      2  N   UNL     1       8.135  -3.134  22.761  0.00  0.00    -0.324 N 
ATOM      3  C   UNL     1       8.765  -3.363  23.954  0.00  0.00    +0.142 A 
ATOM      4  N   UNL     1       9.608  -2.379  24.224  0.00  0.00    -0.233 NA
ATOM      5  C   UNL     1       9.551  -1.514  23.149  0.00  0.00    +0.076 A 
ATOM      6  C   UNL     1       8.515  -4.585  24.772  0.00  0.00    +0.211 C 
ATOM      7  C   UNL     1       7.234  -5.348  24.399  0.00  0.00    +0.181 C 
ATOM      8  C   UNL     1       8.663  -2.000  22.212  0.00  0.00    +0.112 A 
ATOM      9  C   UNL     1       6.843  -5.284  22.904  0.00  0.00    +0.171 C 
ENDROOT
BRANCH   6  10
ATOM     10  O   UNL     1       9.634  -5.450  24.552  0.00  0.00    -0.381 OA
ATOM     11  H   UNL     1      10.423  -4.889  24.660  0.00  0.00    +0.210 HD
ENDBRANCH   6  10
BRANCH   7  12
ATOM     12  O   UNL     1       6.152  -4.938  25.238  0.00  0.00    -0.386 OA
ATOM     13  H   UNL     1       5.422  -4.622  24.669  0.00  0.00    +0.210 HD
ENDBRANCH   7  12
BRANCH   9  14
ATOM     14  O   UNL     1       7.542  -6.300  22.163  0.00  0.00    -0.387 OA
ATOM     15  H   UNL     1       7.763  -7.027  22.775  0.00  0.00    +0.210 HD
ENDBRANCH   9  14
BRANCH   1  16
ATOM     16  C   UNL     1       5.760  -3.097  22.153  0.00  0.00    +0.183 C 
BRANCH  16  17
ATOM     17  O   UNL     1       4.650  -3.842  22.653  0.00  0.00    -0.393 OA
ATOM     18  H   UNL     1       4.193  -4.206  21.870  0.00  0.00    +0.209 HD
ENDBRANCH  16  17
ENDBRANCH   1  16
BRANCH   5  19
ATOM     19  C   UNL     1      10.399  -0.271  23.074  0.00  0.00    +0.158 C 
BRANCH  19  20
ATOM     20  N   UNL     1      10.020   0.650  22.001  0.00  0.00    -0.338 N 
ATOM     21  H   UNL     1      10.809   0.789  21.366  0.00  0.00    +0.146 HD
BRANCH  20  22
ATOM     22  C   UNL     1       9.396   1.864  22.322  0.00  0.00    +0.027 A 
ATOM     23  C   UNL     1       9.879   2.753  23.290  0.00  0.00    +0.023 A 
ATOM     24  C   UNL     1       9.163   3.908  23.637  0.00  0.00    +0.002 A 
ATOM     25  C   UNL     1       7.941   4.183  23.031  0.00  0.00    +0.000 A 
ATOM     26  C   UNL     1       7.427   3.297  22.092  0.00  0.00    +0.002 A 
ATOM     27  C   UNL     1       8.141   2.141  21.759  0.00  0.00    +0.023 A 
ENDBRANCH  20  22
ENDBRANCH  19  20
ENDBRANCH   5  19
TORSDOF 8
ENDMDL
MODEL 2
REMARK VINA RESULT:      -6.7      2.100      3.519
REMARK  Name = 
REMARK  8 active torsions:
REMARK  status: ('A' for Active; 'I' for Inactive)
REMARK    1  A    between atoms: O_1  and  C_2
REMARK    2  A    between atoms: C_2  and  C_3
REMARK    3  A    between atoms: C_5  and  O_7
REMARK    4  A    between atoms: C_8  and  O_10
REMARK    5  A    between atoms: C_11  and  O_13
REMARK    6  A    between atoms: C_16  and  C_17
REMARK    7  A    between atoms: C_17  and  N_18
REMARK    8  A    between atoms: N_18  and  C_19
REMARK                            x       y       z     vdW  Elec       q    Type
REMARK                         _______ _______ _______ _____ _____    ______ ____
ROOT
ATOM      1  C   UNL     1       5.529  -4.690  25.749  0.00  0.00    +0.145 C 
ATOM      2  N   UNL     1       6.588  -4.217  24.871  0.00  0.00    -0.324 N 
ATOM      3  C   UNL     1       6.682  -4.440  23.525  0.00  0.00    +0.142 A 
ATOM      4  N   UNL     1       7.834  -3.983  23.062  0.00  0.00    -0.233 NA
ATOM      5  C   UNL     1       8.482  -3.406  24.137  0.00  0.00    +0.076 A 
ATOM      6  C   UNL     1       5.589  -5.086  22.741  0.00  0.00    +0.211 C 
ATOM      7  C   UNL     1       4.554  -5.835  23.593  0.00  0.00    +0.181 C 
ATOM      8  C   UNL     1       7.692  -3.512  25.263  0.00  0.00    +0.112 A 
ATOM      9  C   UNL     1       4.293  -5.231  24.992  0.00  0.00    +0.171 C 
ENDROOT
BRANCH   6  10
ATOM     10  O   UNL     1       4.920  -4.031  22.042  0.00  0.00    -0.381 OA
ATOM     11  H   UNL     1       4.868  -3.291  22.674  0.00  0.00    +0.210 HD
ENDBRANCH   6  10
BRANCH   7  12
ATOM     12  O   UNL     1       4.893  -7.222  23.679  0.00  0.00    -0.386 OA
ATOM     13  H   UNL     1       5.730  -7.304  24.180  0.00  0.00    +0.210 HD
ENDBRANCH   7  12
BRANCH   9  14
ATOM     14  O   UNL     1       3.312  -4.182  24.906  0.00  0.00    -0.387 OA
ATOM     15  H   UNL     1       3.782  -3.332  24.808  0.00  0.00    +0.210 HD
ENDBRANCH   9  14
BRANCH   1  16
ATOM     16  C   UNL     1       6.087  -5.720  26.742  0.00  0.00    +0.183 C 
BRANCH  16  17
ATOM     17  O   UNL     1       5.341  -6.935  26.704  0.00  0.00    -0.393 OA
ATOM     18  H   UNL     1       5.667  -7.430  25.926  0.00  0.00    +0.209 HD
ENDBRANCH  16  17
ENDBRANCH   1  16
BRANCH   5  19
ATOM     19  C   UNL     1       9.829  -2.745  24.002  0.00  0.00    +0.158 C 
BRANCH  19  20
ATOM     20  N   UNL     1       9.981  -1.936  22.791  0.00  0.00    -0.338 N 
ATOM     21  H   UNL     1      10.682  -2.355  22.178  0.00  0.00    +0.146 HD
BRANCH  20  22
ATOM     22  C   UNL     1      10.158  -0.550  22.907  0.00  0.00    +0.027 A 
ATOM     23  C   UNL     1      10.566   0.086  24.087  0.00  0.00    +0.023 A 
ATOM     24  C   UNL     1      10.637   1.484  24.171  0.00  0.00    +0.002 A 
ATOM     25  C   UNL     1      10.284   2.271  23.079  0.00  0.00    +0.000 A 
ATOM     26  C   UNL     1       9.845   1.662  21.910  0.00  0.00    +0.002 A 
ATOM     27  C   UNL     1       9.766   0.267  21.836  0.00  0.00    +0.023 A 
ENDBRANCH  20  22
ENDBRANCH  19  20
ENDBRANCH   5  19
TORSDOF 8
ENDMDL
MODEL 3
REMARK VINA RESULT:      -6.7      1.437      1.745
REMARK  Name = 
REMARK  8 active torsions:
REMARK  status: ('A' for Active; 'I' for Inactive)
REMARK    1  A    between atoms: O_1  and  C_2
REMARK    2  A    between atoms: C_2  and  C_3
REMARK    3  A    between atoms: C_5  and  O_7
REMARK    4  A    between atoms: C_8  and  O_10
REMARK    5  A    between atoms: C_11  and  O_13
REMARK    6  A    between atoms: C_16  and  C_17
REMARK    7  A    between atoms: C_17  and  N_18
REMARK    8  A    between atoms: N_18  and  C_19
REMARK                            x       y       z     vdW  Elec       q    Type
REMARK                         _______ _______ _______ _____ _____    ______ ____
ROOT
ATOM      1  C   UNL     1       6.533  -3.559  24.302  0.00  0.00    +0.145 C 
ATOM      2  N   UNL     1       7.874  -3.176  23.889  0.00  0.00    -0.324 N 
ATOM      3  C   UNL     1       9.047  -3.670  24.392  0.00  0.00    +0.142 A 
ATOM      4  N   UNL     1      10.078  -3.011  23.887  0.00  0.00    -0.233 NA
ATOM      5  C   UNL     1       9.553  -2.094  22.997  0.00  0.00    +0.076 A 
ATOM      6  C   UNL     1       9.091  -4.815  25.347  0.00  0.00    +0.211 C 
ATOM      7  C   UNL     1       7.750  -5.124  26.030  0.00  0.00    +0.181 C 
ATOM      8  C   UNL     1       8.180  -2.219  22.962  0.00  0.00    +0.112 A 
ATOM      9  C   UNL     1       6.496  -4.838  25.172  0.00  0.00    +0.171 C 
ENDROOT
BRANCH   6  10
ATOM     10  O   UNL     1       9.483  -5.960  24.583  0.00  0.00    -0.381 OA
ATOM     11  H   UNL     1       8.666  -6.286  24.164  0.00  0.00    +0.210 HD
ENDBRANCH   6  10
BRANCH   7  12
ATOM     12  O   UNL     1       7.676  -4.467  27.297  0.00  0.00    -0.386 OA
ATOM     13  H   UNL     1       8.267  -4.934  27.922  0.00  0.00    +0.210 HD
ENDBRANCH   7  12
BRANCH   9  14
ATOM     14  O   UNL     1       6.206  -5.962  24.322  0.00  0.00    -0.387 OA
ATOM     15  H   UNL     1       5.370  -5.781  23.852  0.00  0.00    +0.210 HD
ENDBRANCH   9  14
BRANCH   1  16
ATOM     16  C   UNL     1       5.836  -2.377  24.993  0.00  0.00    +0.183 C 
BRANCH  16  17
ATOM     17  O   UNL     1       6.579  -1.926  26.124  0.00  0.00    -0.393 OA
ATOM     18  H   UNL     1       7.355  -2.517  26.193  0.00  0.00    +0.209 HD
ENDBRANCH  16  17
ENDBRANCH   1  16
BRANCH   5  19
ATOM     19  C   UNL     1      10.426  -1.164  22.194  0.00  0.00    +0.158 C 
BRANCH  19  20
ATOM     20  N   UNL     1       9.684  -0.193  21.387  0.00  0.00    -0.338 N 
ATOM     21  H   UNL     1      10.107  -0.116  20.460  0.00  0.00    +0.146 HD
BRANCH  20  22
ATOM     22  C   UNL     1       9.387   1.066  21.926  0.00  0.00    +0.027 A 
ATOM     23  C   UNL     1      10.169   1.699  22.901  0.00  0.00    +0.023 A 
ATOM     24  C   UNL     1       9.773   2.916  23.472  0.00  0.00    +0.002 A 
ATOM     25  C   UNL     1       8.577   3.515  23.088  0.00  0.00    +0.000 A 
ATOM     26  C   UNL     1       7.769   2.887  22.146  0.00  0.00    +0.002 A 
ATOM     27  C   UNL     1       8.165   1.667  21.589  0.00  0.00    +0.023 A 
ENDBRANCH  20  22
ENDBRANCH  19  20
ENDBRANCH   5  19
TORSDOF 8
ENDMDL
MODEL 4
REMARK VINA RESULT:      -6.5      0.833      2.783
REMARK  Name = 
REMARK  8 active torsions:
REMARK  status: ('A' for Active; 'I' for Inactive)
REMARK    1  A    between atoms: O_1  and  C_2
REMARK    2  A    between atoms: C_2  and  C_3
REMARK    3  A    between atoms: C_5  and  O_7
REMARK    4  A    between atoms: C_8  and  O_10
REMARK    5  A    between atoms: C_11  and  O_13
REMARK    6  A    between atoms: C_16  and  C_17
REMARK    7  A    between atoms: C_17  and  N_18
REMARK    8  A    between atoms: N_18  and  C_19
REMARK                            x       y       z     vdW  Elec       q    Type
REMARK                         _______ _______ _______ _____ _____    ______ ____
ROOT
ATOM      1  C   UNL     1       7.800  -4.158  25.006  0.00  0.00    +0.145 C 
ATOM      2  N   UNL     1       8.305  -3.140  24.097  0.00  0.00    -0.324 N 
ATOM      3  C   UNL     1       7.999  -3.019  22.769  0.00  0.00    +0.142 A 
ATOM      4  N   UNL     1       8.732  -2.068  22.213  0.00  0.00    -0.233 NA
ATOM      5  C   UNL     1       9.501  -1.529  23.227  0.00  0.00    +0.076 A 
ATOM      6  C   UNL     1       6.953  -3.852  22.108  0.00  0.00    +0.211 C 
ATOM      7  C   UNL     1       6.544  -5.103  22.900  0.00  0.00    +0.181 C 
ATOM      8  C   UNL     1       9.211  -2.167  24.414  0.00  0.00    +0.112 A 
ATOM      9  C   UNL     1       6.604  -4.957  24.438  0.00  0.00    +0.171 C 
ENDROOT
BRANCH   6  10
ATOM     10  O   UNL     1       5.802  -3.012  21.967  0.00  0.00    -0.381 OA
ATOM     11  H   UNL     1       5.218  -3.473  21.338  0.00  0.00    +0.210 HD
ENDBRANCH   6  10
BRANCH   7  12
ATOM     12  O   UNL     1       7.291  -6.238  22.454  0.00  0.00    -0.386 OA
ATOM     13  H   UNL     1       6.731  -6.755  21.841  0.00  0.00    +0.210 HD
ENDBRANCH   7  12
BRANCH   9  14
ATOM     14  O   UNL     1       5.386  -4.372  24.931  0.00  0.00    -0.387 OA
ATOM     15  H   UNL     1       4.646  -4.712  24.394  0.00  0.00    +0.210 HD
ENDBRANCH   9  14
BRANCH   1  16
ATOM     16  C   UNL     1       8.945  -5.081  25.452  0.00  0.00    +0.183 C 
BRANCH  16  17
ATOM     17  O   UNL     1       9.509  -5.779  24.344  0.00  0.00    -0.393 OA
ATOM     18  H   UNL     1       8.787  -6.320  23.968  0.00  0.00    +0.209 HD
ENDBRANCH  16  17
ENDBRANCH   1  16
BRANCH   5  19
ATOM     19  C   UNL     1      10.458  -0.390  22.989  0.00  0.00    +0.158 C 
BRANCH  19  20
ATOM     20  N   UNL     1       9.998   0.581  21.994  0.00  0.00    -0.338 N 
ATOM     21  H   UNL     1      10.762   0.813  21.356  0.00  0.00    +0.146 HD
BRANCH  20  22
ATOM     22  C   UNL     1       9.310   1.727  22.416  0.00  0.00    +0.027 A 
ATOM     23  C   UNL     1       8.126   2.185  21.824  0.00  0.00    +0.023 A 
ATOM     24  C   UNL     1       7.532   3.390  22.226  0.00  0.00    +0.002 A 
ATOM     25  C   UNL     1       8.123   4.166  23.218  0.00  0.00    +0.000 A 
ATOM     26  C   UNL     1       9.316   3.747  23.796  0.00  0.00    +0.002 A 
ATOM     27  C   UNL     1       9.910   2.550  23.381  0.00  0.00    +0.023 A 
ENDBRANCH  20  22
ENDBRANCH  19  20
ENDBRANCH   5  19
TORSDOF 8
ENDMDL
MODEL 5
REMARK VINA RESULT:      -6.4      3.448      7.065
REMARK  Name = 
REMARK  8 active torsions:
REMARK  status: ('A' for Active; 'I' for Inactive)
REMARK    1  A    between atoms: O_1  and  C_2
REMARK    2  A    between atoms: C_2  and  C_3
REMARK    3  A    between atoms: C_5  and  O_7
REMARK    4  A    between atoms: C_8  and  O_10
REMARK    5  A    between atoms: C_11  and  O_13
REMARK    6  A    between atoms: C_16  and  C_17
REMARK    7  A    between atoms: C_17  and  N_18
REMARK    8  A    between atoms: N_18  and  C_19
REMARK                            x       y       z     vdW  Elec       q    Type
REMARK                         _______ _______ _______ _____ _____    ______ ____
ROOT
ATOM      1  C   UNL     1      10.248   0.576  23.171  0.00  0.00    +0.145 C 
ATOM      2  N   UNL     1       8.992  -0.125  22.952  0.00  0.00    -0.324 N 
ATOM      3  C   UNL     1       7.740   0.425  23.006  0.00  0.00    +0.142 A 
ATOM      4  N   UNL     1       6.819  -0.518  22.888  0.00  0.00    -0.233 NA
ATOM      5  C   UNL     1       7.501  -1.706  22.707  0.00  0.00    +0.076 A 
ATOM      6  C   UNL     1       7.513   1.892  23.148  0.00  0.00    +0.211 C 
ATOM      7  C   UNL     1       8.741   2.680  23.630  0.00  0.00    +0.181 C 
ATOM      8  C   UNL     1       8.859  -1.462  22.704  0.00  0.00    +0.112 A 
ATOM      9  C   UNL     1      10.106   2.116  23.173  0.00  0.00    +0.171 C 
ENDROOT
BRANCH   6  10
ATOM     10  O   UNL     1       7.154   2.370  21.847  0.00  0.00    -0.381 OA
ATOM     11  H   UNL     1       6.285   2.795  21.955  0.00  0.00    +0.210 HD
ENDBRANCH   6  10
BRANCH   7  12
ATOM     12  O   UNL     1       8.695   2.847  25.050  0.00  0.00    -0.386 OA
ATOM     13  H   UNL     1       8.365   3.748  25.244  0.00  0.00    +0.210 HD
ENDBRANCH   7  12
BRANCH   9  14
ATOM     14  O   UNL     1      10.433   2.608  21.861  0.00  0.00    -0.387 OA
ATOM     15  H   UNL     1      10.326   1.875  21.225  0.00  0.00    +0.210 HD
ENDBRANCH   9  14
BRANCH   1  16
ATOM     16  C   UNL     1      10.921   0.063  24.454  0.00  0.00    +0.183 C 
BRANCH  16  17
ATOM     17  O   UNL     1      10.132   0.355  25.606  0.00  0.00    -0.393 OA
ATOM     18  H   UNL     1      10.529  -0.151  26.342  0.00  0.00    +0.209 HD
ENDBRANCH  16  17
ENDBRANCH   1  16
BRANCH   5  19
ATOM     19  C   UNL     1       6.788  -3.018  22.506  0.00  0.00    +0.158 C 
BRANCH  19  20
ATOM     20  N   UNL     1       7.592  -4.195  22.841  0.00  0.00    -0.338 N 
ATOM     21  H   UNL     1       7.359  -4.966  22.213  0.00  0.00    +0.146 HD
BRANCH  20  22
ATOM     22  C   UNL     1       7.669  -4.620  24.175  0.00  0.00    +0.027 A 
ATOM     23  C   UNL     1       6.549  -4.945  24.952  0.00  0.00    +0.023 A 
ATOM     24  C   UNL     1       6.679  -5.274  26.309  0.00  0.00    +0.002 A 
ATOM     25  C   UNL     1       7.931  -5.267  26.916  0.00  0.00    +0.000 A 
ATOM     26  C   UNL     1       9.051  -4.915  26.171  0.00  0.00    +0.002 A 
ATOM     27  C   UNL     1       8.913  -4.577  24.822  0.00  0.00    +0.023 A 
ENDBRANCH  20  22
ENDBRANCH  19  20
ENDBRANCH   5  19
TORSDOF 8
ENDMDL
MODEL 6
REMARK VINA RESULT:      -6.3      3.527      7.005
REMARK  Name = 
REMARK  8 active torsions:
REMARK  status: ('A' for Active; 'I' for Inactive)
REMARK    1  A    between atoms: O_1  and  C_2
REMARK    2  A    between atoms: C_2  and  C_3
REMARK    3  A    between atoms: C_5  and  O_7
REMARK    4  A    between atoms: C_8  and  O_10
REMARK    5  A    between atoms: C_11  and  O_13
REMARK    6  A    between atoms: C_16  and  C_17
REMARK    7  A    between atoms: C_17  and  N_18
REMARK    8  A    between atoms: N_18  and  C_19
REMARK                            x       y       z     vdW  Elec       q    Type
REMARK                         _______ _______ _______ _____ _____    ______ ____
ROOT
ATOM      1  C   UNL     1       7.635   1.504  23.530  0.00  0.00    +0.145 C 
ATOM      2  N   UNL     1       8.126   0.134  23.513  0.00  0.00    -0.324 N 
ATOM      3  C   UNL     1       9.428  -0.259  23.662  0.00  0.00    +0.142 A 
ATOM      4  N   UNL     1       9.540  -1.563  23.462  0.00  0.00    -0.233 NA
ATOM      5  C   UNL     1       8.262  -2.029  23.223  0.00  0.00    +0.076 A 
ATOM      6  C   UNL     1      10.517   0.692  24.029  0.00  0.00    +0.211 C 
ATOM      7  C   UNL     1      10.160   2.173  23.829  0.00  0.00    +0.181 C 
ATOM      8  C   UNL     1       7.368  -0.981  23.293  0.00  0.00    +0.112 A 
ATOM      9  C   UNL     1       8.672   2.526  24.053  0.00  0.00    +0.171 C 
ENDROOT
BRANCH   6  10
ATOM     10  O   UNL     1      10.785   0.477  25.419  0.00  0.00    -0.381 OA
ATOM     11  H   UNL     1       9.915   0.482  25.857  0.00  0.00    +0.210 HD
ENDBRANCH   6  10
BRANCH   7  12
ATOM     12  O   UNL     1      10.616   2.625  22.551  0.00  0.00    -0.386 OA
ATOM     13  H   UNL     1      11.456   2.167  22.344  0.00  0.00    +0.210 HD
ENDBRANCH   7  12
BRANCH   9  14
ATOM     14  O   UNL     1       8.420   2.760  25.450  0.00  0.00    -0.387 OA
ATOM     15  H   UNL     1       7.503   3.079  25.546  0.00  0.00    +0.210 HD
ENDBRANCH   9  14
BRANCH   1  16
ATOM     16  C   UNL     1       7.101   1.890  22.142  0.00  0.00    +0.183 C 
BRANCH  16  17
ATOM     17  O   UNL     1       8.127   1.819  21.154  0.00  0.00    -0.393 OA
ATOM     18  H   UNL     1       8.862   2.372  21.485  0.00  0.00    +0.209 HD
ENDBRANCH  16  17
ENDBRANCH   1  16
BRANCH   5  19
ATOM     19  C   UNL     1       7.973  -3.487  22.974  0.00  0.00    +0.158 C 
BRANCH  19  20
ATOM     20  N   UNL     1       8.460  -4.382  24.025  0.00  0.00    -0.338 N 
ATOM     21  H   UNL     1       8.962  -5.168  23.608  0.00  0.00    +0.146 HD
BRANCH  20  22
ATOM     22  C   UNL     1       7.580  -4.806  25.031  0.00  0.00    +0.027 A 
ATOM     23  C   UNL     1       7.936  -4.910  26.382  0.00  0.00    +0.023 A 
ATOM     24  C   UNL     1       7.043  -5.429  27.330  0.00  0.00    +0.002 A 
ATOM     25  C   UNL     1       5.782  -5.869  26.938  0.00  0.00    +0.000 A 
ATOM     26  C   UNL     1       5.421  -5.807  25.597  0.00  0.00    +0.002 A 
ATOM     27  C   UNL     1       6.321  -5.299  24.655  0.00  0.00    +0.023 A 
ENDBRANCH  20  22
ENDBRANCH  19  20
ENDBRANCH   5  19
TORSDOF 8
ENDMDL
MODEL 7
REMARK VINA RESULT:      -6.3      3.223      6.681
REMARK  Name = 
REMARK  8 active torsions:
REMARK  status: ('A' for Active; 'I' for Inactive)
REMARK    1  A    between atoms: O_1  and  C_2
REMARK    2  A    between atoms: C_2  and  C_3
REMARK    3  A    between atoms: C_5  and  O_7
REMARK    4  A    between atoms: C_8  and  O_10
REMARK    5  A    between atoms: C_11  and  O_13
REMARK    6  A    between atoms: C_16  and  C_17
REMARK    7  A    between atoms: C_17  and  N_18
REMARK    8  A    between atoms: N_18  and  C_19
REMARK                            x       y       z     vdW  Elec       q    Type
REMARK                         _______ _______ _______ _____ _____    ______ ____
ROOT
ATOM      1  C   UNL     1       8.169   0.979  24.257  0.00  0.00    +0.145 C 
ATOM      2  N   UNL     1       7.764  -0.267  23.624  0.00  0.00    -0.324 N 
ATOM      3  C   UNL     1       8.406  -0.893  22.590  0.00  0.00    +0.142 A 
ATOM      4  N   UNL     1       7.699  -1.931  22.171  0.00  0.00    -0.233 NA
ATOM      5  C   UNL     1       6.590  -2.000  22.992  0.00  0.00    +0.076 A 
ATOM      6  C   UNL     1       9.731  -0.440  22.075  0.00  0.00    +0.211 C 
ATOM      7  C   UNL     1      10.121   0.985  22.496  0.00  0.00    +0.181 C 
ATOM      8  C   UNL     1       6.644  -0.988  23.927  0.00  0.00    +0.112 A 
ATOM      9  C   UNL     1       9.602   1.426  23.884  0.00  0.00    +0.171 C 
ENDROOT
BRANCH   6  10
ATOM     10  O   UNL     1      10.700  -1.348  22.608  0.00  0.00    -0.381 OA
ATOM     11  H   UNL     1      11.381  -1.438  21.917  0.00  0.00    +0.210 HD
ENDBRANCH   6  10
BRANCH   7  12
ATOM     12  O   UNL     1       9.751   1.921  21.480  0.00  0.00    -0.386 OA
ATOM     13  H   UNL     1      10.170   1.646  20.640  0.00  0.00    +0.210 HD
ENDBRANCH   7  12
BRANCH   9  14
ATOM     14  O   UNL     1      10.502   0.985  24.916  0.00  0.00    -0.387 OA
ATOM     15  H   UNL     1      11.146   1.698  25.085  0.00  0.00    +0.210 HD
ENDBRANCH   9  14
BRANCH   1  16
ATOM     16  C   UNL     1       7.134   2.077  23.969  0.00  0.00    +0.183 C 
BRANCH  16  17
ATOM     17  O   UNL     1       6.992   2.301  22.567  0.00  0.00    -0.393 OA
ATOM     18  H   UNL     1       6.106   2.694  22.443  0.00  0.00    +0.209 HD
ENDBRANCH  16  17
ENDBRANCH   1  16
BRANCH   5  19
ATOM     19  C   UNL     1       5.548  -3.078  22.843  0.00  0.00    +0.158 C 
BRANCH  19  20
ATOM     20  N   UNL     1       6.032  -4.426  23.147  0.00  0.00    -0.338 N 
ATOM     21  H   UNL     1       5.270  -5.100  23.051  0.00  0.00    +0.146 HD
BRANCH  20  22
ATOM     22  C   UNL     1       6.771  -4.645  24.319  0.00  0.00    +0.027 A 
ATOM     23  C   UNL     1       8.139  -4.944  24.330  0.00  0.00    +0.023 A 
ATOM     24  C   UNL     1       8.806  -5.246  25.525  0.00  0.00    +0.002 A 
ATOM     25  C   UNL     1       8.110  -5.269  26.730  0.00  0.00    +0.000 A 
ATOM     26  C   UNL     1       6.745  -5.007  26.737  0.00  0.00    +0.002 A 
ATOM     27  C   UNL     1       6.084  -4.718  25.540  0.00  0.00    +0.023 A 
ENDBRANCH  20  22
ENDBRANCH  19  20
ENDBRANCH   5  19
TORSDOF 8
ENDMDL
MODEL 8
REMARK VINA RESULT:      -6.3      3.469      6.934
REMARK  Name = 
REMARK  8 active torsions:
REMARK  status: ('A' for Active; 'I' for Inactive)
REMARK    1  A    between atoms: O_1  and  C_2
REMARK    2  A    between atoms: C_2  and  C_3
REMARK    3  A    between atoms: C_5  and  O_7
REMARK    4  A    between atoms: C_8  and  O_10
REMARK    5  A    between atoms: C_11  and  O_13
REMARK    6  A    between atoms: C_16  and  C_17
REMARK    7  A    between atoms: C_17  and  N_18
REMARK    8  A    between atoms: N_18  and  C_19
REMARK                            x       y       z     vdW  Elec       q    Type
REMARK                         _______ _______ _______ _____ _____    ______ ____
ROOT
ATOM      1  C   UNL     1       9.132   1.302  24.629  0.00  0.00    +0.145 C 
ATOM      2  N   UNL     1       8.251   0.225  24.206  0.00  0.00    -0.324 N 
ATOM      3  C   UNL     1       8.217  -0.353  22.966  0.00  0.00    +0.142 A 
ATOM      4  N   UNL     1       7.210  -1.208  22.884  0.00  0.00    -0.233 NA
ATOM      5  C   UNL     1       6.606  -1.214  24.126  0.00  0.00    +0.076 A 
ATOM      6  C   UNL     1       9.222  -0.042  21.908  0.00  0.00    +0.211 C 
ATOM      7  C   UNL     1      10.030   1.241  22.158  0.00  0.00    +0.181 C 
ATOM      8  C   UNL     1       7.275  -0.352  24.969  0.00  0.00    +0.112 A 
ATOM      9  C   UNL     1      10.295   1.572  23.645  0.00  0.00    +0.171 C 
ENDROOT
BRANCH   6  10
ATOM     10  O   UNL     1      10.131  -1.148  21.882  0.00  0.00    -0.381 OA
ATOM     11  H   UNL     1      10.779  -0.936  21.185  0.00  0.00    +0.210 HD
ENDBRANCH   6  10
BRANCH   7  12
ATOM     12  O   UNL     1       9.427   2.346  21.478  0.00  0.00    -0.386 OA
ATOM     13  H   UNL     1       8.802   2.782  22.092  0.00  0.00    +0.210 HD
ENDBRANCH   7  12
BRANCH   9  14
ATOM     14  O   UNL     1      11.461   0.870  24.111  0.00  0.00    -0.387 OA
ATOM     15  H   UNL     1      11.714   0.215  23.433  0.00  0.00    +0.210 HD
ENDBRANCH   9  14
BRANCH   1  16
ATOM     16  C   UNL     1       8.315   2.572  24.909  0.00  0.00    +0.183 C 
BRANCH  16  17
ATOM     17  O   UNL     1       7.594   2.992  23.752  0.00  0.00    -0.393 OA
ATOM     18  H   UNL     1       7.936   2.456  23.010  0.00  0.00    +0.209 HD
ENDBRANCH  16  17
ENDBRANCH   1  16
BRANCH   5  19
ATOM     19  C   UNL     1       5.423  -2.095  24.438  0.00  0.00    +0.158 C 
BRANCH  19  20
ATOM     20  N   UNL     1       5.780  -3.440  24.892  0.00  0.00    -0.338 N 
ATOM     21  H   UNL     1       6.465  -3.382  25.647  0.00  0.00    +0.146 HD
BRANCH  20  22
ATOM     22  C   UNL     1       6.132  -4.415  23.947  0.00  0.00    +0.027 A 
ATOM     23  C   UNL     1       7.440  -4.881  23.763  0.00  0.00    +0.023 A 
ATOM     24  C   UNL     1       7.749  -5.788  22.740  0.00  0.00    +0.002 A 
ATOM     25  C   UNL     1       6.756  -6.233  21.872  0.00  0.00    +0.000 A 
ATOM     26  C   UNL     1       5.458  -5.757  22.017  0.00  0.00    +0.002 A 
ATOM     27  C   UNL     1       5.158  -4.843  23.032  0.00  0.00    +0.023 A 
ENDBRANCH  20  22
ENDBRANCH  19  20
ENDBRANCH   5  19
TORSDOF 8
ENDMDL
MODEL 9
REMARK VINA RESULT:      -6.2      3.447      6.814
REMARK  Name = 
REMARK  8 active torsions:
REMARK  status: ('A' for Active; 'I' for Inactive)
REMARK    1  A    between atoms: O_1  and  C_2
REMARK    2  A    between atoms: C_2  and  C_3
REMARK    3  A    between atoms: C_5  and  O_7
REMARK    4  A    between atoms: C_8  and  O_10
REMARK    5  A    between atoms: C_11  and  O_13
REMARK    6  A    between atoms: C_16  and  C_17
REMARK    7  A    between atoms: C_17  and  N_18
REMARK    8  A    between atoms: N_18  and  C_19
REMARK                            x       y       z     vdW  Elec       q    Type
REMARK                         _______ _______ _______ _____ _____    ______ ____
ROOT
ATOM      1  C   UNL     1       9.063   0.028  22.040  0.00  0.00    +0.145 C 
ATOM      2  N   UNL     1       8.103  -0.258  23.095  0.00  0.00    -0.324 N 
ATOM      3  C   UNL     1       8.110   0.270  24.358  0.00  0.00    +0.142 A 
ATOM      4  N   UNL     1       7.176  -0.303  25.100  0.00  0.00    -0.233 NA
ATOM      5  C   UNL     1       6.518  -1.195  24.275  0.00  0.00    +0.076 A 
ATOM      6  C   UNL     1       9.044   1.358  24.768  0.00  0.00    +0.211 C 
ATOM      7  C   UNL     1      10.242   1.555  23.826  0.00  0.00    +0.181 C 
ATOM      8  C   UNL     1       7.065  -1.143  23.011  0.00  0.00    +0.112 A 
ATOM      9  C   UNL     1       9.963   1.250  22.336  0.00  0.00    +0.171 C 
ENDROOT
BRANCH   6  10
ATOM     10  O   UNL     1       8.274   2.565  24.776  0.00  0.00    -0.381 OA
ATOM     11  H   UNL     1       7.981   2.682  25.697  0.00  0.00    +0.210 HD
ENDBRANCH   6  10
BRANCH   7  12
ATOM     12  O   UNL     1      11.373   0.823  24.305  0.00  0.00    -0.386 OA
ATOM     13  H   UNL     1      11.357   0.834  25.283  0.00  0.00    +0.210 HD
ENDBRANCH   7  12
BRANCH   9  14
ATOM     14  O   UNL     1       9.396   2.404  21.690  0.00  0.00    -0.387 OA
ATOM     15  H   UNL     1       9.384   3.138  22.332  0.00  0.00    +0.210 HD
ENDBRANCH   9  14
BRANCH   1  16
ATOM     16  C   UNL     1       9.890  -1.228  21.725  0.00  0.00    +0.183 C 
BRANCH  16  17
ATOM     17  O   UNL     1      10.492  -1.762  22.903  0.00  0.00    -0.393 OA
ATOM     18  H   UNL     1      10.920  -1.008  23.355  0.00  0.00    +0.209 HD
ENDBRANCH  16  17
ENDBRANCH   1  16
BRANCH   5  19
ATOM     19  C   UNL     1       5.358  -2.028  24.757  0.00  0.00    +0.158 C 
BRANCH  19  20
ATOM     20  N   UNL     1       5.723  -3.387  25.159  0.00  0.00    -0.338 N 
ATOM     21  H   UNL     1       6.446  -3.355  25.881  0.00  0.00    +0.146 HD
BRANCH  20  22
ATOM     22  C   UNL     1       6.018  -4.341  24.175  0.00  0.00    +0.027 A 
ATOM     23  C   UNL     1       7.315  -4.786  23.887  0.00  0.00    +0.023 A 
ATOM     24  C   UNL     1       7.561  -5.671  22.829  0.00  0.00    +0.002 A 
ATOM     25  C   UNL     1       6.513  -6.116  22.028  0.00  0.00    +0.000 A 
ATOM     26  C   UNL     1       5.223  -5.661  22.275  0.00  0.00    +0.002 A 
ATOM     27  C   UNL     1       4.986  -4.768  23.326  0.00  0.00    +0.023 A 
ENDBRANCH  20  22
ENDBRANCH  19  20
ENDBRANCH   5  19
TORSDOF 8
ENDMDL
