MODEL 1
REMARK VINA RESULT:      -6.2      0.000      0.000
REMARK  Name = 
REMARK  10 active torsions:
REMARK  status: ('A' for Active; 'I' for Inactive)
REMARK    1  A    between atoms: O_1  and  C_2
REMARK    2  A    between atoms: C_5  and  N_20
REMARK    3  A    between atoms: C_8  and  C_10
REMARK    4  A    between atoms: C_10  and  O_11
REMARK    5  A    between atoms: O_11  and  P_12
REMARK    6  A    between atoms: P_12  and  O_13
REMARK    7  A    between atoms: P_12  and  O_15
REMARK    8  A    between atoms: O_15  and  P_16
REMARK    9  A    between atoms: P_16  and  O_17
REMARK   10  A    between atoms: P_16  and  O_18
REMARK                            x       y       z     vdW  Elec       q    Type
REMARK                         _______ _______ _______ _____ _____    ______ ____
ROOT
ATOM      1  C   UNL     1       9.223  -0.418  24.795  0.00  0.00    +0.150 C 
ATOM      2  C   UNL     1       9.618  -1.164  23.519  0.00  0.00    +0.175 C 
ATOM      3  O   UNL     1       8.521  -1.010  22.585  0.00  0.00    -0.348 OA
ATOM      4  C   UNL     1       7.487  -0.223  23.215  0.00  0.00    +0.225 C 
ATOM      5  C   UNL     1       8.216   0.582  24.282  0.00  0.00    +0.088 C 
ENDROOT
BRANCH   4   6
ATOM      6  N   UNL     1       6.460  -1.135  23.697  0.00  0.00    -0.289 N 
ATOM      7  C   UNL     1       6.066  -2.312  23.144  0.00  0.00    +0.147 A 
ATOM      8  N   UNL     1       6.470  -2.932  22.030  0.00  0.00    -0.330 N 
ATOM      9  H   UNL     1       7.223  -2.581  21.437  0.00  0.00    +0.168 HD
ATOM     10  C   UNL     1       5.901  -4.158  21.772  0.00  0.00    +0.202 A 
ATOM     11  N   UNL     1       5.012  -4.772  22.496  0.00  0.00    -0.198 NA
ATOM     12  C   UNL     1       4.561  -4.185  23.683  0.00  0.00    +0.301 A 
ATOM     13  O   UNL     1       3.756  -4.740  24.428  0.00  0.00    -0.263 OA
ATOM     14  C   UNL     1       5.131  -2.865  23.987  0.00  0.00    +0.172 A 
ATOM     15  N   UNL     1       4.899  -2.012  25.045  0.00  0.00    -0.229 NA
ATOM     16  C   UNL     1       5.674  -0.968  24.815  0.00  0.00    +0.203 A 
ENDBRANCH   4   6
BRANCH   1  17
ATOM     17  O   UNL     1      10.333   0.207  25.412  0.00  0.00    -0.389 OA
ATOM     18  H   UNL     1      10.315   1.155  25.188  0.00  0.00    +0.210 HD
ENDBRANCH   1  17
BRANCH   2  19
ATOM     19  C   UNL     1       9.863  -2.644  23.809  0.00  0.00    +0.206 C 
BRANCH  19  20
ATOM     20  O   UNL     1       9.616  -2.928  25.180  0.00  0.00    -0.284 OA
BRANCH  20  21
ATOM     21  P   UNL     1       8.380  -4.121  25.380  0.00  0.00    +0.483 P 
ATOM     22  O   UNL     1       7.700  -3.254  26.442  0.00  0.00    -0.227 OA
BRANCH  21  23
ATOM     23  O   UNL     1       9.479  -5.017  26.173  0.00  0.00    -0.302 OA
ATOM     24  H   UNL     1      10.141  -4.422  26.593  0.00  0.00    +0.222 HD
ENDBRANCH  21  23
BRANCH  21  25
ATOM     25  O   UNL     1       7.143  -5.314  25.581  0.00  0.00    -0.186 OA
BRANCH  25  26
ATOM     26  P   UNL     1       6.377  -5.660  26.920  0.00  0.00    +0.481 P 
ATOM     27  O   UNL     1       7.155  -5.938  28.160  0.00  0.00    -0.227 OA
BRANCH  26  28
ATOM     28  O   UNL     1       5.364  -6.805  26.452  0.00  0.00    -0.302 OA
ATOM     29  H   UNL     1       5.527  -7.064  25.528  0.00  0.00    +0.222 HD
ENDBRANCH  26  28
BRANCH  26  30
ATOM     30  O   UNL     1       5.367  -4.437  27.090  0.00  0.00    -0.302 OA
ATOM     31  H   UNL     1       5.854  -3.666  27.440  0.00  0.00    +0.222 HD
ENDBRANCH  26  30
ENDBRANCH  25  26
ENDBRANCH  21  25
ENDBRANCH  20  21
ENDBRANCH  19  20
ENDBRANCH   2  19
TORSDOF 10
ENDMDL
MODEL 2
REMARK VINA RESULT:      -6.1      2.825      4.217
REMARK  Name = 
REMARK  10 active torsions:
REMARK  status: ('A' for Active; 'I' for Inactive)
REMARK    1  A    between atoms: O_1  and  C_2
REMARK    2  A    between atoms: C_5  and  N_20
REMARK    3  A    between atoms: C_8  and  C_10
REMARK    4  A    between atoms: C_10  and  O_11
REMARK    5  A    between atoms: O_11  and  P_12
REMARK    6  A    between atoms: P_12  and  O_13
REMARK    7  A    between atoms: P_12  and  O_15
REMARK    8  A    between atoms: O_15  and  P_16
REMARK    9  A    between atoms: P_16  and  O_17
REMARK   10  A    between atoms: P_16  and  O_18
REMARK                            x       y       z     vdW  Elec       q    Type
REMARK                         _______ _______ _______ _____ _____    ______ ____
ROOT
ATOM      1  C   UNL     1       8.961  -2.315  22.754  0.00  0.00    +0.150 C 
ATOM      2  C   UNL     1       7.802  -1.419  23.196  0.00  0.00    +0.175 C 
ATOM      3  O   UNL     1       7.871  -1.325  24.641  0.00  0.00    -0.348 OA
ATOM      4  C   UNL     1       8.993  -2.109  25.100  0.00  0.00    +0.225 C 
ATOM      5  C   UNL     1       9.930  -2.174  23.902  0.00  0.00    +0.088 C 
ENDROOT
BRANCH   4   6
ATOM      6  N   UNL     1       8.482  -3.386  25.579  0.00  0.00    -0.289 N 
ATOM      7  C   UNL     1       7.337  -3.617  26.273  0.00  0.00    +0.147 A 
ATOM      8  N   UNL     1       6.403  -2.772  26.722  0.00  0.00    -0.330 N 
ATOM      9  H   UNL     1       6.424  -1.768  26.539  0.00  0.00    +0.168 HD
ATOM     10  C   UNL     1       5.321  -3.337  27.355  0.00  0.00    +0.202 A 
ATOM     11  N   UNL     1       5.114  -4.604  27.562  0.00  0.00    -0.198 NA
ATOM     12  C   UNL     1       6.044  -5.542  27.099  0.00  0.00    +0.301 A 
ATOM     13  O   UNL     1       5.878  -6.753  27.228  0.00  0.00    -0.263 OA
ATOM     14  C   UNL     1       7.226  -4.978  26.433  0.00  0.00    +0.172 A 
ATOM     15  N   UNL     1       8.327  -5.600  25.885  0.00  0.00    -0.229 NA
ATOM     16  C   UNL     1       9.079  -4.617  25.426  0.00  0.00    +0.203 A 
ENDBRANCH   4   6
BRANCH   1  17
ATOM     17  O   UNL     1       9.520  -1.894  21.524  0.00  0.00    -0.389 OA
ATOM     18  H   UNL     1       8.825  -1.935  20.841  0.00  0.00    +0.210 HD
ENDBRANCH   1  17
BRANCH   2  19
ATOM     19  C   UNL     1       6.461  -2.013  22.768  0.00  0.00    +0.206 C 
BRANCH  19  20
ATOM     20  O   UNL     1       6.664  -3.180  21.983  0.00  0.00    -0.284 OA
BRANCH  20  21
ATOM     21  P   UNL     1       6.042  -4.596  22.756  0.00  0.00    +0.483 P 
ATOM     22  O   UNL     1       6.135  -5.371  21.440  0.00  0.00    -0.227 OA
BRANCH  21  23
ATOM     23  O   UNL     1       4.589  -3.871  22.744  0.00  0.00    -0.302 OA
ATOM     24  H   UNL     1       4.177  -3.954  23.634  0.00  0.00    +0.222 HD
ENDBRANCH  21  23
BRANCH  21  25
ATOM     25  O   UNL     1       5.419  -6.013  23.530  0.00  0.00    -0.186 OA
BRANCH  25  26
ATOM     26  P   UNL     1       3.903  -6.315  23.864  0.00  0.00    +0.481 P 
ATOM     27  O   UNL     1       3.171  -5.432  24.814  0.00  0.00    -0.227 OA
BRANCH  26  28
ATOM     28  O   UNL     1       3.933  -7.872  24.228  0.00  0.00    -0.302 OA
ATOM     29  H   UNL     1       4.440  -8.033  25.044  0.00  0.00    +0.222 HD
ENDBRANCH  26  28
BRANCH  26  30
ATOM     30  O   UNL     1       3.216  -6.372  22.424  0.00  0.00    -0.302 OA
ATOM     31  H   UNL     1       3.341  -5.512  21.977  0.00  0.00    +0.222 HD
ENDBRANCH  26  30
ENDBRANCH  25  26
ENDBRANCH  21  25
ENDBRANCH  20  21
ENDBRANCH  19  20
ENDBRANCH   2  19
TORSDOF 10
ENDMDL
MODEL 3
REMARK VINA RESULT:      -5.9      3.069      4.266
REMARK  Name = 
REMARK  10 active torsions:
REMARK  status: ('A' for Active; 'I' for Inactive)
REMARK    1  A    between atoms: O_1  and  C_2
REMARK    2  A    between atoms: C_5  and  N_20
REMARK    3  A    between atoms: C_8  and  C_10
REMARK    4  A    between atoms: C_10  and  O_11
REMARK    5  A    between atoms: O_11  and  P_12
REMARK    6  A    between atoms: P_12  and  O_13
REMARK    7  A    between atoms: P_12  and  O_15
REMARK    8  A    between atoms: O_15  and  P_16
REMARK    9  A    between atoms: P_16  and  O_17
REMARK   10  A    between atoms: P_16  and  O_18
REMARK                            x       y       z     vdW  Elec       q    Type
REMARK                         _______ _______ _______ _____ _____    ______ ____
ROOT
ATOM      1  C   UNL     1       8.553   1.071  23.244  0.00  0.00    +0.150 C 
ATOM      2  C   UNL     1       7.254   0.822  24.013  0.00  0.00    +0.175 C 
ATOM      3  O   UNL     1       7.618   0.172  25.256  0.00  0.00    -0.348 OA
ATOM      4  C   UNL     1       9.052   0.008  25.285  0.00  0.00    +0.225 C 
ATOM      5  C   UNL     1       9.581   1.085  24.349  0.00  0.00    +0.088 C 
ENDROOT
BRANCH   4   6
ATOM      6  N   UNL     1       9.354  -1.367  24.909  0.00  0.00    -0.289 N 
ATOM      7  C   UNL     1       8.862  -2.508  25.458  0.00  0.00    +0.147 A 
ATOM      8  N   UNL     1       8.016  -2.691  26.478  0.00  0.00    -0.330 N 
ATOM      9  H   UNL     1       7.568  -1.922  26.977  0.00  0.00    +0.168 HD
ATOM     10  C   UNL     1       7.670  -3.993  26.758  0.00  0.00    +0.202 A 
ATOM     11  N   UNL     1       8.080  -5.059  26.136  0.00  0.00    -0.198 NA
ATOM     12  C   UNL     1       8.952  -4.934  25.048  0.00  0.00    +0.301 A 
ATOM     13  O   UNL     1       9.336  -5.902  24.398  0.00  0.00    -0.263 OA
ATOM     14  C   UNL     1       9.362  -3.560  24.727  0.00  0.00    +0.172 A 
ATOM     15  N   UNL     1      10.209  -3.084  23.750  0.00  0.00    -0.229 NA
ATOM     16  C   UNL     1      10.218  -1.774  23.917  0.00  0.00    +0.203 A 
ENDBRANCH   4   6
BRANCH   1  17
ATOM     17  O   UNL     1       8.521   2.289  22.524  0.00  0.00    -0.389 OA
ATOM     18  H   UNL     1       8.348   2.087  21.586  0.00  0.00    +0.210 HD
ENDBRANCH   1  17
BRANCH   2  19
ATOM     19  C   UNL     1       6.307  -0.066  23.208  0.00  0.00    +0.206 C 
BRANCH  19  20
ATOM     20  O   UNL     1       7.012  -1.172  22.658  0.00  0.00    -0.284 OA
BRANCH  20  21
ATOM     21  P   UNL     1       6.011  -2.576  22.525  0.00  0.00    +0.483 P 
ATOM     22  O   UNL     1       5.891  -2.649  24.049  0.00  0.00    -0.227 OA
BRANCH  21  23
ATOM     23  O   UNL     1       7.355  -3.405  22.144  0.00  0.00    -0.302 OA
ATOM     24  H   UNL     1       7.697  -3.856  22.948  0.00  0.00    +0.222 HD
ENDBRANCH  21  23
BRANCH  21  25
ATOM     25  O   UNL     1       5.009  -3.981  22.393  0.00  0.00    -0.186 OA
BRANCH  25  26
ATOM     26  P   UNL     1       5.497  -5.484  22.350  0.00  0.00    +0.481 P 
ATOM     27  O   UNL     1       6.328  -5.954  21.206  0.00  0.00    -0.227 OA
BRANCH  26  28
ATOM     28  O   UNL     1       4.144  -6.293  22.618  0.00  0.00    -0.302 OA
ATOM     29  H   UNL     1       4.259  -7.243  22.434  0.00  0.00    +0.222 HD
ENDBRANCH  26  28
BRANCH  26  30
ATOM     30  O   UNL     1       6.226  -5.672  23.757  0.00  0.00    -0.302 OA
ATOM     31  H   UNL     1       6.732  -4.863  23.965  0.00  0.00    +0.222 HD
ENDBRANCH  26  30
ENDBRANCH  25  26
ENDBRANCH  21  25
ENDBRANCH  20  21
ENDBRANCH  19  20
ENDBRANCH   2  19
TORSDOF 10
ENDMDL
MODEL 4
REMARK VINA RESULT:      -5.8      4.180      6.800
REMARK  Name = 
REMARK  10 active torsions:
REMARK  status: ('A' for Active; 'I' for Inactive)
REMARK    1  A    between atoms: O_1  and  C_2
REMARK    2  A    between atoms: C_5  and  N_20
REMARK    3  A    between atoms: C_8  and  C_10
REMARK    4  A    between atoms: C_10  and  O_11
REMARK    5  A    between atoms: O_11  and  P_12
REMARK    6  A    between atoms: P_12  and  O_13
REMARK    7  A    between atoms: P_12  and  O_15
REMARK    8  A    between atoms: O_15  and  P_16
REMARK    9  A    between atoms: P_16  and  O_17
REMARK   10  A    between atoms: P_16  and  O_18
REMARK                            x       y       z     vdW  Elec       q    Type
REMARK                         _______ _______ _______ _____ _____    ______ ____
ROOT
ATOM      1  C   UNL     1       9.041   0.229  22.042  0.00  0.00    +0.150 C 
ATOM      2  C   UNL     1       9.655   0.351  23.438  0.00  0.00    +0.175 C 
ATOM      3  O   UNL     1      10.203  -0.949  23.772  0.00  0.00    -0.348 OA
ATOM      4  C   UNL     1       9.955  -1.849  22.670  0.00  0.00    +0.225 C 
ATOM      5  C   UNL     1       9.800  -0.939  21.460  0.00  0.00    +0.088 C 
ENDROOT
BRANCH   4   6
ATOM      6  N   UNL     1       8.796  -2.663  23.008  0.00  0.00    -0.289 N 
ATOM      7  C   UNL     1       8.672  -3.553  24.027  0.00  0.00    +0.147 A 
ATOM      8  N   UNL     1       9.550  -3.943  24.958  0.00  0.00    -0.330 N 
ATOM      9  H   UNL     1      10.486  -3.546  25.043  0.00  0.00    +0.168 HD
ATOM     10  C   UNL     1       9.089  -4.836  25.897  0.00  0.00    +0.202 A 
ATOM     11  N   UNL     1       7.893  -5.340  25.971  0.00  0.00    -0.198 NA
ATOM     12  C   UNL     1       6.922  -4.959  25.038  0.00  0.00    +0.301 A 
ATOM     13  O   UNL     1       5.765  -5.369  25.087  0.00  0.00    -0.263 OA
ATOM     14  C   UNL     1       7.378  -4.019  24.006  0.00  0.00    +0.172 A 
ATOM     15  N   UNL     1       6.703  -3.461  22.942  0.00  0.00    -0.229 NA
ATOM     16  C   UNL     1       7.592  -2.693  22.340  0.00  0.00    +0.203 A 
ENDBRANCH   4   6
BRANCH   1  17
ATOM     17  O   UNL     1       9.208   1.411  21.282  0.00  0.00    -0.389 OA
ATOM     18  H   UNL     1       8.803   2.150  21.771  0.00  0.00    +0.210 HD
ENDBRANCH   1  17
BRANCH   2  19
ATOM     19  C   UNL     1       8.598   0.760  24.463  0.00  0.00    +0.206 C 
BRANCH  19  20
ATOM     20  O   UNL     1       7.822   1.843  23.969  0.00  0.00    -0.284 OA
BRANCH  20  21
ATOM     21  P   UNL     1       8.504   3.374  24.397  0.00  0.00    +0.483 P 
ATOM     22  O   UNL     1       7.155   3.832  24.955  0.00  0.00    -0.227 OA
BRANCH  21  23
ATOM     23  O   UNL     1       8.478   3.742  22.815  0.00  0.00    -0.302 OA
ATOM     24  H   UNL     1       8.254   4.694  22.706  0.00  0.00    +0.222 HD
ENDBRANCH  21  23
BRANCH  21  25
ATOM     25  O   UNL     1       9.185   4.907  24.825  0.00  0.00    -0.186 OA
BRANCH  25  26
ATOM     26  P   UNL     1      10.275   5.712  24.012  0.00  0.00    +0.481 P 
ATOM     27  O   UNL     1      11.188   6.644  24.731  0.00  0.00    -0.227 OA
BRANCH  26  28
ATOM     28  O   UNL     1       9.418   6.346  22.819  0.00  0.00    -0.302 OA
ATOM     29  H   UNL     1       9.857   7.132  22.449  0.00  0.00    +0.222 HD
ENDBRANCH  26  28
BRANCH  26  30
ATOM     30  O   UNL     1      11.061   4.570  23.222  0.00  0.00    -0.302 OA
ATOM     31  H   UNL     1      11.289   4.897  22.330  0.00  0.00    +0.222 HD
ENDBRANCH  26  30
ENDBRANCH  25  26
ENDBRANCH  21  25
ENDBRANCH  20  21
ENDBRANCH  19  20
ENDBRANCH   2  19
TORSDOF 10
ENDMDL
MODEL 5
REMARK VINA RESULT:      -5.8      2.915      5.936
REMARK  Name = 
REMARK  10 active torsions:
REMARK  status: ('A' for Active; 'I' for Inactive)
REMARK    1  A    between atoms: O_1  and  C_2
REMARK    2  A    between atoms: C_5  and  N_20
REMARK    3  A    between atoms: C_8  and  C_10
REMARK    4  A    between atoms: C_10  and  O_11
REMARK    5  A    between atoms: O_11  and  P_12
REMARK    6  A    between atoms: P_12  and  O_13
REMARK    7  A    between atoms: P_12  and  O_15
REMARK    8  A    between atoms: O_15  and  P_16
REMARK    9  A    between atoms: P_16  and  O_17
REMARK   10  A    between atoms: P_16  and  O_18
REMARK                            x       y       z     vdW  Elec       q    Type
REMARK                         _______ _______ _______ _____ _____    ______ ____
ROOT
ATOM      1  C   UNL     1       5.728  -5.497  22.794  0.00  0.00    +0.150 C 
ATOM      2  C   UNL     1       7.177  -5.111  23.099  0.00  0.00    +0.175 C 
ATOM      3  O   UNL     1       7.267  -4.913  24.531  0.00  0.00    -0.348 OA
ATOM      4  C   UNL     1       5.967  -5.150  25.111  0.00  0.00    +0.225 C 
ATOM      5  C   UNL     1       5.263  -6.061  24.115  0.00  0.00    +0.088 C 
ENDROOT
BRANCH   4   6
ATOM      6  N   UNL     1       5.337  -3.858  25.347  0.00  0.00    -0.289 N 
ATOM      7  C   UNL     1       5.945  -2.672  25.612  0.00  0.00    +0.147 A 
ATOM      8  N   UNL     1       7.239  -2.367  25.757  0.00  0.00    -0.330 N 
ATOM      9  H   UNL     1       7.991  -3.046  25.627  0.00  0.00    +0.168 HD
ATOM     10  C   UNL     1       7.535  -1.041  25.972  0.00  0.00    +0.202 A 
ATOM     11  N   UNL     1       6.687  -0.058  26.053  0.00  0.00    -0.198 NA
ATOM     12  C   UNL     1       5.320  -0.308  25.892  0.00  0.00    +0.301 A 
ATOM     13  O   UNL     1       4.480   0.589  25.914  0.00  0.00    -0.263 OA
ATOM     14  C   UNL     1       4.959  -1.715  25.677  0.00  0.00    +0.172 A 
ATOM     15  N   UNL     1       3.727  -2.308  25.503  0.00  0.00    -0.229 NA
ATOM     16  C   UNL     1       3.986  -3.594  25.356  0.00  0.00    +0.203 A 
ENDBRANCH   4   6
BRANCH   1  17
ATOM     17  O   UNL     1       5.639  -6.443  21.745  0.00  0.00    -0.389 OA
ATOM     18  H   UNL     1       5.541  -7.330  22.139  0.00  0.00    +0.210 HD
ENDBRANCH   1  17
BRANCH   2  19
ATOM     19  C   UNL     1       7.564  -3.829  22.361  0.00  0.00    +0.206 C 
BRANCH  19  20
ATOM     20  O   UNL     1       8.511  -3.088  23.120  0.00  0.00    -0.284 OA
BRANCH  20  21
ATOM     21  P   UNL     1       8.965  -1.618  22.329  0.00  0.00    +0.483 P 
ATOM     22  O   UNL     1       9.989  -1.329  23.429  0.00  0.00    -0.227 OA
BRANCH  21  23
ATOM     23  O   UNL     1       7.561  -0.992  22.852  0.00  0.00    -0.302 OA
ATOM     24  H   UNL     1       7.560  -0.020  22.698  0.00  0.00    +0.222 HD
ENDBRANCH  21  23
BRANCH  21  25
ATOM     25  O   UNL     1       9.420  -0.148  21.539  0.00  0.00    -0.186 OA
BRANCH  25  26
ATOM     26  P   UNL     1       8.969   1.314  21.937  0.00  0.00    +0.481 P 
ATOM     27  O   UNL     1       7.653   1.831  21.465  0.00  0.00    -0.227 OA
BRANCH  26  28
ATOM     28  O   UNL     1      10.250   2.188  21.549  0.00  0.00    -0.302 OA
ATOM     29  H   UNL     1      11.066   1.796  21.908  0.00  0.00    +0.222 HD
ENDBRANCH  26  28
BRANCH  26  30
ATOM     30  O   UNL     1       9.094   1.314  23.528  0.00  0.00    -0.302 OA
ATOM     31  H   UNL     1       9.214   0.396  23.839  0.00  0.00    +0.222 HD
ENDBRANCH  26  30
ENDBRANCH  25  26
ENDBRANCH  21  25
ENDBRANCH  20  21
ENDBRANCH  19  20
ENDBRANCH   2  19
TORSDOF 10
ENDMDL
MODEL 6
REMARK VINA RESULT:      -5.8      3.753      6.291
REMARK  Name = 
REMARK  10 active torsions:
REMARK  status: ('A' for Active; 'I' for Inactive)
REMARK    1  A    between atoms: O_1  and  C_2
REMARK    2  A    between atoms: C_5  and  N_20
REMARK    3  A    between atoms: C_8  and  C_10
REMARK    4  A    between atoms: C_10  and  O_11
REMARK    5  A    between atoms: O_11  and  P_12
REMARK    6  A    between atoms: P_12  and  O_13
REMARK    7  A    between atoms: P_12  and  O_15
REMARK    8  A    between atoms: O_15  and  P_16
REMARK    9  A    between atoms: P_16  and  O_17
REMARK   10  A    between atoms: P_16  and  O_18
REMARK                            x       y       z     vdW  Elec       q    Type
REMARK                         _______ _______ _______ _____ _____    ______ ____
ROOT
ATOM      1  C   UNL     1       9.489  -0.273  24.893  0.00  0.00    +0.150 C 
ATOM      2  C   UNL     1       8.180   0.259  24.306  0.00  0.00    +0.175 C 
ATOM      3  O   UNL     1       7.118  -0.592  24.805  0.00  0.00    -0.348 OA
ATOM      4  C   UNL     1       7.701  -1.606  25.652  0.00  0.00    +0.225 C 
ATOM      5  C   UNL     1       9.014  -0.999  26.128  0.00  0.00    +0.088 C 
ENDROOT
BRANCH   4   6
ATOM      6  N   UNL     1       7.813  -2.832  24.874  0.00  0.00    -0.289 N 
ATOM      7  C   UNL     1       7.049  -3.220  23.819  0.00  0.00    +0.147 A 
ATOM      8  N   UNL     1       6.002  -2.628  23.234  0.00  0.00    -0.330 N 
ATOM      9  H   UNL     1       5.653  -1.710  23.512  0.00  0.00    +0.168 HD
ATOM     10  C   UNL     1       5.475  -3.266  22.135  0.00  0.00    +0.202 A 
ATOM     11  N   UNL     1       5.887  -4.382  21.611  0.00  0.00    -0.198 NA
ATOM     12  C   UNL     1       6.990  -5.042  22.164  0.00  0.00    +0.301 A 
ATOM     13  O   UNL     1       7.449  -6.075  21.682  0.00  0.00    -0.263 OA
ATOM     14  C   UNL     1       7.572  -4.403  23.351  0.00  0.00    +0.172 A 
ATOM     15  N   UNL     1       8.634  -4.784  24.144  0.00  0.00    -0.229 NA
ATOM     16  C   UNL     1       8.719  -3.849  25.070  0.00  0.00    +0.203 A 
ENDBRANCH   4   6
BRANCH   1  17
ATOM     17  O   UNL     1      10.398   0.768  25.198  0.00  0.00    -0.389 OA
ATOM     18  H   UNL     1      11.208   0.370  25.566  0.00  0.00    +0.210 HD
ENDBRANCH   1  17
BRANCH   2  19
ATOM     19  C   UNL     1       8.214   0.222  22.779  0.00  0.00    +0.206 C 
BRANCH  19  20
ATOM     20  O   UNL     1       7.299   1.166  22.240  0.00  0.00    -0.284 OA
BRANCH  20  21
ATOM     21  P   UNL     1       7.735   2.791  22.641  0.00  0.00    +0.483 P 
ATOM     22  O   UNL     1       6.556   3.322  21.822  0.00  0.00    -0.227 OA
BRANCH  21  23
ATOM     23  O   UNL     1       8.969   2.638  21.597  0.00  0.00    -0.302 OA
ATOM     24  H   UNL     1       9.138   1.683  21.431  0.00  0.00    +0.222 HD
ENDBRANCH  21  23
BRANCH  21  25
ATOM     25  O   UNL     1       8.170   4.417  23.043  0.00  0.00    -0.186 OA
BRANCH  25  26
ATOM     26  P   UNL     1       9.361   4.869  23.979  0.00  0.00    +0.481 P 
ATOM     27  O   UNL     1       9.073   5.322  25.369  0.00  0.00    -0.227 OA
BRANCH  26  28
ATOM     28  O   UNL     1      10.156   5.901  23.052  0.00  0.00    -0.302 OA
ATOM     29  H   UNL     1      10.836   5.447  22.521  0.00  0.00    +0.222 HD
ENDBRANCH  26  28
BRANCH  26  30
ATOM     30  O   UNL     1      10.355   3.621  23.933  0.00  0.00    -0.302 OA
ATOM     31  H   UNL     1       9.885   2.851  23.557  0.00  0.00    +0.222 HD
ENDBRANCH  26  30
ENDBRANCH  25  26
ENDBRANCH  21  25
ENDBRANCH  20  21
ENDBRANCH  19  20
ENDBRANCH   2  19
TORSDOF 10
ENDMDL
MODEL 7
REMARK VINA RESULT:      -5.8      2.977      5.053
REMARK  Name = 
REMARK  10 active torsions:
REMARK  status: ('A' for Active; 'I' for Inactive)
REMARK    1  A    between atoms: O_1  and  C_2
REMARK    2  A    between atoms: C_5  and  N_20
REMARK    3  A    between atoms: C_8  and  C_10
REMARK    4  A    between atoms: C_10  and  O_11
REMARK    5  A    between atoms: O_11  and  P_12
REMARK    6  A    between atoms: P_12  and  O_13
REMARK    7  A    between atoms: P_12  and  O_15
REMARK    8  A    between atoms: O_15  and  P_16
REMARK    9  A    between atoms: P_16  and  O_17
REMARK   10  A    between atoms: P_16  and  O_18
REMARK                            x       y       z     vdW  Elec       q    Type
REMARK                         _______ _______ _______ _____ _____    ______ ____
ROOT
ATOM      1  C   UNL     1       9.545  -2.439  23.749  0.00  0.00    +0.150 C 
ATOM      2  C   UNL     1       8.363  -2.351  22.781  0.00  0.00    +0.175 C 
ATOM      3  O   UNL     1       8.668  -1.292  21.840  0.00  0.00    -0.348 OA
ATOM      4  C   UNL     1       9.955  -0.733  22.179  0.00  0.00    +0.225 C 
ATOM      5  C   UNL     1      10.668  -1.844  22.937  0.00  0.00    +0.088 C 
ENDROOT
BRANCH   4   6
ATOM      6  N   UNL     1       9.727   0.500  22.921  0.00  0.00    -0.289 N 
ATOM      7  C   UNL     1       8.764   1.435  22.707  0.00  0.00    +0.147 A 
ATOM      8  N   UNL     1       7.807   1.505  21.776  0.00  0.00    -0.330 N 
ATOM      9  H   UNL     1       7.648   0.773  21.082  0.00  0.00    +0.168 HD
ATOM     10  C   UNL     1       6.944   2.572  21.866  0.00  0.00    +0.202 A 
ATOM     11  N   UNL     1       6.965   3.517  22.759  0.00  0.00    -0.198 NA
ATOM     12  C   UNL     1       7.930   3.491  23.772  0.00  0.00    +0.301 A 
ATOM     13  O   UNL     1       7.968   4.333  24.666  0.00  0.00    -0.263 OA
ATOM     14  C   UNL     1       8.884   2.377  23.702  0.00  0.00    +0.172 A 
ATOM     15  N   UNL     1       9.954   2.061  24.512  0.00  0.00    -0.229 NA
ATOM     16  C   UNL     1      10.463   0.962  23.989  0.00  0.00    +0.203 A 
ENDBRANCH   4   6
BRANCH   1  17
ATOM     17  O   UNL     1       9.813  -3.773  24.141  0.00  0.00    -0.389 OA
ATOM     18  H   UNL     1      10.780  -3.892  24.180  0.00  0.00    +0.210 HD
ENDBRANCH   1  17
BRANCH   2  19
ATOM     19  C   UNL     1       7.068  -2.037  23.531  0.00  0.00    +0.206 C 
BRANCH  19  20
ATOM     20  O   UNL     1       7.045  -2.710  24.783  0.00  0.00    -0.284 OA
BRANCH  20  21
ATOM     21  P   UNL     1       5.984  -4.076  24.763  0.00  0.00    +0.483 P 
ATOM     22  O   UNL     1       7.142  -4.984  24.343  0.00  0.00    -0.227 OA
BRANCH  21  23
ATOM     23  O   UNL     1       5.365  -3.479  23.385  0.00  0.00    -0.302 OA
ATOM     24  H   UNL     1       5.537  -4.111  22.650  0.00  0.00    +0.222 HD
ENDBRANCH  21  23
BRANCH  21  25
ATOM     25  O   UNL     1       4.923  -5.443  24.742  0.00  0.00    -0.186 OA
BRANCH  25  26
ATOM     26  P   UNL     1       4.171  -6.032  23.483  0.00  0.00    +0.481 P 
ATOM     27  O   UNL     1       3.031  -5.278  22.889  0.00  0.00    -0.227 OA
BRANCH  26  28
ATOM     28  O   UNL     1       3.862  -7.534  23.937  0.00  0.00    -0.302 OA
ATOM     29  H   UNL     1       2.939  -7.778  23.743  0.00  0.00    +0.222 HD
ENDBRANCH  26  28
BRANCH  26  30
ATOM     30  O   UNL     1       5.350  -6.286  22.438  0.00  0.00    -0.302 OA
ATOM     31  H   UNL     1       5.294  -5.621  21.725  0.00  0.00    +0.222 HD
ENDBRANCH  26  30
ENDBRANCH  25  26
ENDBRANCH  21  25
ENDBRANCH  20  21
ENDBRANCH  19  20
ENDBRANCH   2  19
TORSDOF 10
ENDMDL
MODEL 8
REMARK VINA RESULT:      -5.8      3.190      6.045
REMARK  Name = 
REMARK  10 active torsions:
REMARK  status: ('A' for Active; 'I' for Inactive)
REMARK    1  A    between atoms: O_1  and  C_2
REMARK    2  A    between atoms: C_5  and  N_20
REMARK    3  A    between atoms: C_8  and  C_10
REMARK    4  A    between atoms: C_10  and  O_11
REMARK    5  A    between atoms: O_11  and  P_12
REMARK    6  A    between atoms: P_12  and  O_13
REMARK    7  A    between atoms: P_12  and  O_15
REMARK    8  A    between atoms: O_15  and  P_16
REMARK    9  A    between atoms: P_16  and  O_17
REMARK   10  A    between atoms: P_16  and  O_18
REMARK                            x       y       z     vdW  Elec       q    Type
REMARK                         _______ _______ _______ _____ _____    ______ ____
ROOT
ATOM      1  C   UNL     1       5.827  -4.208  21.735  0.00  0.00    +0.150 C 
ATOM      2  C   UNL     1       7.275  -4.209  22.230  0.00  0.00    +0.175 C 
ATOM      3  O   UNL     1       7.452  -5.417  23.010  0.00  0.00    -0.348 OA
ATOM      4  C   UNL     1       6.204  -6.144  23.022  0.00  0.00    +0.225 C 
ATOM      5  C   UNL     1       5.476  -5.675  21.770  0.00  0.00    +0.088 C 
ENDROOT
BRANCH   4   6
ATOM      6  N   UNL     1       5.537  -5.869  24.287  0.00  0.00    -0.289 N 
ATOM      7  C   UNL     1       6.109  -5.646  25.499  0.00  0.00    +0.147 A 
ATOM      8  N   UNL     1       7.394  -5.644  25.871  0.00  0.00    -0.330 N 
ATOM      9  H   UNL     1       8.165  -5.777  25.215  0.00  0.00    +0.168 HD
ATOM     10  C   UNL     1       7.649  -5.326  27.184  0.00  0.00    +0.202 A 
ATOM     11  N   UNL     1       6.773  -5.030  28.098  0.00  0.00    -0.198 NA
ATOM     12  C   UNL     1       5.413  -4.997  27.769  0.00  0.00    +0.301 A 
ATOM     13  O   UNL     1       4.547  -4.681  28.581  0.00  0.00    -0.263 OA
ATOM     14  C   UNL     1       5.095  -5.349  26.379  0.00  0.00    +0.172 A 
ATOM     15  N   UNL     1       3.881  -5.434  25.733  0.00  0.00    -0.229 NA
ATOM     16  C   UNL     1       4.178  -5.793  24.498  0.00  0.00    +0.203 A 
ENDBRANCH   4   6
BRANCH   1  17
ATOM     17  O   UNL     1       5.709  -3.658  20.436  0.00  0.00    -0.389 OA
ATOM     18  H   UNL     1       5.954  -4.345  19.789  0.00  0.00    +0.210 HD
ENDBRANCH   1  17
BRANCH   2  19
ATOM     19  C   UNL     1       7.556  -2.977  23.090  0.00  0.00    +0.206 C 
BRANCH  19  20
ATOM     20  O   UNL     1       8.948  -2.868  23.357  0.00  0.00    -0.284 OA
BRANCH  20  21
ATOM     21  P   UNL     1       9.525  -1.253  23.130  0.00  0.00    +0.483 P 
ATOM     22  O   UNL     1       8.092  -0.758  22.924  0.00  0.00    -0.227 OA
BRANCH  21  23
ATOM     23  O   UNL     1      10.047  -1.727  21.667  0.00  0.00    -0.302 OA
ATOM     24  H   UNL     1      10.907  -1.290  21.471  0.00  0.00    +0.222 HD
ENDBRANCH  21  23
BRANCH  21  25
ATOM     25  O   UNL     1      10.102   0.362  22.902  0.00  0.00    -0.186 OA
BRANCH  25  26
ATOM     26  P   UNL     1       9.329   1.547  22.196  0.00  0.00    +0.481 P 
ATOM     27  O   UNL     1       8.291   2.301  22.953  0.00  0.00    -0.227 OA
BRANCH  26  28
ATOM     28  O   UNL     1       8.855   0.879  20.823  0.00  0.00    -0.302 OA
ATOM     29  H   UNL     1       9.484   1.067  20.103  0.00  0.00    +0.222 HD
ENDBRANCH  26  28
BRANCH  26  30
ATOM     30  O   UNL     1      10.506   2.486  21.665  0.00  0.00    -0.302 OA
ATOM     31  H   UNL     1      11.118   2.678  22.402  0.00  0.00    +0.222 HD
ENDBRANCH  26  30
ENDBRANCH  25  26
ENDBRANCH  21  25
ENDBRANCH  20  21
ENDBRANCH  19  20
ENDBRANCH   2  19
TORSDOF 10
ENDMDL
MODEL 9
REMARK VINA RESULT:      -5.7      3.609      6.155
REMARK  Name = 
REMARK  10 active torsions:
REMARK  status: ('A' for Active; 'I' for Inactive)
REMARK    1  A    between atoms: O_1  and  C_2
REMARK    2  A    between atoms: C_5  and  N_20
REMARK    3  A    between atoms: C_8  and  C_10
REMARK    4  A    between atoms: C_10  and  O_11
REMARK    5  A    between atoms: O_11  and  P_12
REMARK    6  A    between atoms: P_12  and  O_13
REMARK    7  A    between atoms: P_12  and  O_15
REMARK    8  A    between atoms: O_15  and  P_16
REMARK    9  A    between atoms: P_16  and  O_17
REMARK   10  A    between atoms: P_16  and  O_18
REMARK                            x       y       z     vdW  Elec       q    Type
REMARK                         _______ _______ _______ _____ _____    ______ ____
ROOT
ATOM      1  C   UNL     1       3.784  -5.562  27.882  0.00  0.00    +0.150 C 
ATOM      2  C   UNL     1       4.533  -6.832  27.474  0.00  0.00    +0.175 C 
ATOM      3  O   UNL     1       5.930  -6.618  27.792  0.00  0.00    -0.348 OA
ATOM      4  C   UNL     1       6.075  -5.299  28.362  0.00  0.00    +0.225 C 
ATOM      5  C   UNL     1       4.700  -4.973  28.928  0.00  0.00    +0.088 C 
ENDROOT
BRANCH   4   6
ATOM      6  N   UNL     1       6.560  -4.409  27.316  0.00  0.00    -0.289 N 
ATOM      7  C   UNL     1       7.596  -4.615  26.462  0.00  0.00    +0.147 A 
ATOM      8  N   UNL     1       8.451  -5.639  26.357  0.00  0.00    -0.330 N 
ATOM      9  H   UNL     1       8.388  -6.480  26.932  0.00  0.00    +0.168 HD
ATOM     10  C   UNL     1       9.369  -5.566  25.336  0.00  0.00    +0.202 A 
ATOM     11  N   UNL     1       9.492  -4.608  24.466  0.00  0.00    -0.198 NA
ATOM     12  C   UNL     1       8.616  -3.517  24.509  0.00  0.00    +0.301 A 
ATOM     13  O   UNL     1       8.659  -2.606  23.686  0.00  0.00    -0.263 OA
ATOM     14  C   UNL     1       7.631  -3.546  25.598  0.00  0.00    +0.172 A 
ATOM     15  N   UNL     1       6.648  -2.642  25.940  0.00  0.00    -0.229 NA
ATOM     16  C   UNL     1       6.059  -3.166  26.999  0.00  0.00    +0.203 A 
ENDBRANCH   4   6
BRANCH   1  17
ATOM     17  O   UNL     1       2.495  -5.845  28.395  0.00  0.00    -0.389 OA
ATOM     18  H   UNL     1       2.034  -6.424  27.760  0.00  0.00    +0.210 HD
ENDBRANCH   1  17
BRANCH   2  19
ATOM     19  C   UNL     1       4.366  -7.106  25.980  0.00  0.00    +0.206 C 
BRANCH  19  20
ATOM     20  O   UNL     1       3.561  -6.100  25.379  0.00  0.00    -0.284 OA
BRANCH  20  21
ATOM     21  P   UNL     1       4.120  -5.683  23.797  0.00  0.00    +0.483 P 
ATOM     22  O   UNL     1       2.686  -5.727  23.265  0.00  0.00    -0.227 OA
BRANCH  21  23
ATOM     23  O   UNL     1       4.686  -7.200  23.680  0.00  0.00    -0.302 OA
ATOM     24  H   UNL     1       5.670  -7.180  23.653  0.00  0.00    +0.222 HD
ENDBRANCH  21  23
BRANCH  21  25
ATOM     25  O   UNL     1       4.680  -5.265  22.213  0.00  0.00    -0.186 OA
BRANCH  25  26
ATOM     26  P   UNL     1       6.181  -5.249  21.719  0.00  0.00    +0.481 P 
ATOM     27  O   UNL     1       7.176  -6.152  22.363  0.00  0.00    -0.227 OA
BRANCH  26  28
ATOM     28  O   UNL     1       6.532  -3.689  21.732  0.00  0.00    -0.302 OA
ATOM     29  H   UNL     1       6.277  -3.278  22.577  0.00  0.00    +0.222 HD
ENDBRANCH  26  28
BRANCH  26  30
ATOM     30  O   UNL     1       6.051  -5.499  20.148  0.00  0.00    -0.302 OA
ATOM     31  H   UNL     1       6.202  -4.656  19.677  0.00  0.00    +0.222 HD
ENDBRANCH  26  30
ENDBRANCH  25  26
ENDBRANCH  21  25
ENDBRANCH  20  21
ENDBRANCH  19  20
ENDBRANCH   2  19
TORSDOF 10
ENDMDL
