MODEL 1
REMARK VINA RESULT:      -7.0      0.000      0.000
REMARK  Name = 
REMARK  16 active torsions:
REMARK  status: ('A' for Active; 'I' for Inactive)
REMARK    1  A    between atoms: C_1  and  N_2
REMARK    2  A    between atoms: N_2  and  C_3
REMARK    3  A    between atoms: C_4  and  O_6
REMARK    4  A    between atoms: O_6  and  C_7
REMARK    5  A    between atoms: C_9  and  C_19
REMARK    6  A    between atoms: C_11  and  O_12
REMARK    7  A    between atoms: O_12  and  C_13
REMARK    8  A    between atoms: N_15  and  C_16
REMARK    9  A    between atoms: N_15  and  C_17
REMARK   10  A    between atoms: C_19  and  O_20
REMARK   11  A    between atoms: C_19  and  C_21
REMARK   12  A    between atoms: C_21  and  N_22
REMARK   13  A    between atoms: N_22  and  C_23
REMARK   14  A    between atoms: C_23  and  C_24
REMARK   15  A    between atoms: C_23  and  C_25
REMARK   16  A    between atoms: C_23  and  C_26
REMARK                            x       y       z     vdW  Elec       q    Type
REMARK                         _______ _______ _______ _____ _____    ______ ____
ROOT
ATOM      1  C   UNL     1       7.264  -3.201  22.703  0.00  0.00    +0.137 A 
ATOM      2  C   UNL     1       8.126  -2.168  22.343  0.00  0.00    +0.092 A 
ATOM      3  C   UNL     1       9.377  -2.092  22.941  0.00  0.00    +0.137 A 
ATOM      4  C   UNL     1       9.779  -3.046  23.879  0.00  0.00    +0.053 A 
ATOM      5  C   UNL     1       8.899  -4.070  24.275  0.00  0.00    -0.011 A 
ATOM      6  C   UNL     1       7.634  -4.142  23.666  0.00  0.00    +0.053 A 
ENDROOT
BRANCH   1   7
ATOM      7  O   UNL     1       5.947  -3.259  22.211  0.00  0.00    -0.411 OA
BRANCH   7  10
ATOM      8  C   UNL     1       3.492  -5.790  23.061  0.00  0.00    +0.135 C 
ATOM      9  N   UNL     1       4.421  -4.688  23.200  0.00  0.00    -0.273 N 
ATOM     10  C   UNL     1       5.343  -4.511  22.173  0.00  0.00    +0.408 C 
ATOM     11  O   UNL     1       5.555  -5.359  21.309  0.00  0.00    -0.226 OA
ATOM     12  C   UNL     1       4.103  -3.611  24.119  0.00  0.00    +0.135 C 
ENDBRANCH   7  10
ENDBRANCH   1   7
BRANCH   3  13
ATOM     13  O   UNL     1      10.328  -1.102  22.606  0.00  0.00    -0.411 OA
BRANCH  13  14
ATOM     14  C   UNL     1       9.961   0.229  22.370  0.00  0.00    +0.408 C 
ATOM     15  N   UNL     1      10.257   1.066  23.439  0.00  0.00    -0.273 N 
ATOM     16  C   UNL     1       9.948   2.480  23.338  0.00  0.00    +0.135 C 
ATOM     17  C   UNL     1      10.784   0.600  24.708  0.00  0.00    +0.135 C 
ATOM     18  O   UNL     1       9.430   0.626  21.339  0.00  0.00    -0.226 OA
ENDBRANCH  13  14
ENDBRANCH   3  13
BRANCH   5  19
ATOM     19  C   UNL     1       9.266  -5.106  25.318  0.00  0.00    +0.158 C 
BRANCH  19  20
ATOM     20  O   UNL     1      10.687  -5.292  25.294  0.00  0.00    -0.386 OA
ATOM     21  H   UNL     1      10.847  -6.249  25.221  0.00  0.00    +0.210 HD
ENDBRANCH  19  20
BRANCH  19  22
ATOM     22  C   UNL     1       8.853  -4.801  26.782  0.00  0.00    +0.117 C 
BRANCH  22  23
ATOM     23  N   UNL     1       7.920  -5.776  27.366  0.00  0.00    -0.309 NA
ATOM     24  H   UNL     1       8.249  -6.036  28.296  0.00  0.00    +0.123 HD
BRANCH  23  25
ATOM     25  C   UNL     1       6.514  -5.338  27.440  0.00  0.00    +0.011 C 
ATOM     26  C   UNL     1       5.867  -5.711  28.783  0.00  0.00    +0.027 C 
ATOM     27  C   UNL     1       5.751  -6.071  26.317  0.00  0.00    +0.027 C 
ATOM     28  C   UNL     1       6.388  -3.826  27.187  0.00  0.00    +0.027 C 
ENDBRANCH  23  25
ENDBRANCH  22  23
ENDBRANCH  19  22
ENDBRANCH   5  19
TORSDOF 9
ENDMDL
MODEL 2
REMARK VINA RESULT:      -7.0      0.691      5.363
REMARK  Name = 
REMARK  16 active torsions:
REMARK  status: ('A' for Active; 'I' for Inactive)
REMARK    1  A    between atoms: C_1  and  N_2
REMARK    2  A    between atoms: N_2  and  C_3
REMARK    3  A    between atoms: C_4  and  O_6
REMARK    4  A    between atoms: O_6  and  C_7
REMARK    5  A    between atoms: C_9  and  C_19
REMARK    6  A    between atoms: C_11  and  O_12
REMARK    7  A    between atoms: O_12  and  C_13
REMARK    8  A    between atoms: N_15  and  C_16
REMARK    9  A    between atoms: N_15  and  C_17
REMARK   10  A    between atoms: C_19  and  O_20
REMARK   11  A    between atoms: C_19  and  C_21
REMARK   12  A    between atoms: C_21  and  N_22
REMARK   13  A    between atoms: N_22  and  C_23
REMARK   14  A    between atoms: C_23  and  C_24
REMARK   15  A    between atoms: C_23  and  C_25
REMARK   16  A    between atoms: C_23  and  C_26
REMARK                            x       y       z     vdW  Elec       q    Type
REMARK                         _______ _______ _______ _____ _____    ______ ____
ROOT
ATOM      1  C   UNL     1       9.477  -1.906  23.241  0.00  0.00    +0.137 A 
ATOM      2  C   UNL     1       8.290  -1.951  22.514  0.00  0.00    +0.092 A 
ATOM      3  C   UNL     1       7.426  -3.023  22.695  0.00  0.00    +0.137 A 
ATOM      4  C   UNL     1       7.729  -4.037  23.606  0.00  0.00    +0.053 A 
ATOM      5  C   UNL     1       8.943  -4.018  24.315  0.00  0.00    -0.011 A 
ATOM      6  C   UNL     1       9.814  -2.930  24.128  0.00  0.00    +0.053 A 
ENDROOT
BRANCH   1   7
ATOM      7  O   UNL     1      10.436  -0.902  23.013  0.00  0.00    -0.411 OA
BRANCH   7  10
ATOM      8  C   UNL     1       9.740   2.510  24.032  0.00  0.00    +0.135 C 
ATOM      9  N   UNL     1      10.127   1.382  23.209  0.00  0.00    -0.273 N 
ATOM     10  C   UNL     1      10.417   0.193  23.871  0.00  0.00    +0.408 C 
ATOM     11  O   UNL     1      10.592   0.127  25.086  0.00  0.00    -0.226 OA
ATOM     12  C   UNL     1       9.796   1.395  21.796  0.00  0.00    +0.135 C 
ENDBRANCH   7  10
ENDBRANCH   1   7
BRANCH   3  13
ATOM     13  O   UNL     1       6.184  -3.127  22.029  0.00  0.00    -0.411 OA
BRANCH  13  14
ATOM     14  C   UNL     1       5.453  -4.321  22.004  0.00  0.00    +0.408 C 
ATOM     15  N   UNL     1       4.504  -4.392  23.017  0.00  0.00    -0.273 N 
ATOM     16  C   UNL     1       3.657  -5.566  23.112  0.00  0.00    +0.135 C 
ATOM     17  C   UNL     1       4.357  -3.391  24.057  0.00  0.00    +0.135 C 
ATOM     18  O   UNL     1       5.626  -5.219  21.188  0.00  0.00    -0.226 OA
ENDBRANCH  13  14
ENDBRANCH   3  13
BRANCH   5  19
ATOM     19  C   UNL     1       9.343  -5.112  25.285  0.00  0.00    +0.158 C 
BRANCH  19  20
ATOM     20  O   UNL     1      10.765  -5.277  25.223  0.00  0.00    -0.386 OA
ATOM     21  H   UNL     1      11.138  -4.425  24.935  0.00  0.00    +0.210 HD
ENDBRANCH  19  20
BRANCH  19  22
ATOM     22  C   UNL     1       8.955  -4.902  26.773  0.00  0.00    +0.117 C 
BRANCH  22  23
ATOM     23  N   UNL     1       7.966  -5.864  27.283  0.00  0.00    -0.309 NA
ATOM     24  H   UNL     1       8.282  -6.218  28.186  0.00  0.00    +0.123 HD
BRANCH  23  25
ATOM     25  C   UNL     1       6.589  -5.350  27.404  0.00  0.00    +0.011 C 
ATOM     26  C   UNL     1       5.970  -5.684  28.770  0.00  0.00    +0.027 C 
ATOM     27  C   UNL     1       5.749  -6.042  26.311  0.00  0.00    +0.027 C 
ATOM     28  C   UNL     1       6.537  -3.833  27.150  0.00  0.00    +0.027 C 
ENDBRANCH  23  25
ENDBRANCH  22  23
ENDBRANCH  19  22
ENDBRANCH   5  19
TORSDOF 9
ENDMDL
MODEL 3
REMARK VINA RESULT:      -6.6      1.394      5.563
REMARK  Name = 
REMARK  16 active torsions:
REMARK  status: ('A' for Active; 'I' for Inactive)
REMARK    1  A    between atoms: C_1  and  N_2
REMARK    2  A    between atoms: N_2  and  C_3
REMARK    3  A    between atoms: C_4  and  O_6
REMARK    4  A    between atoms: O_6  and  C_7
REMARK    5  A    between atoms: C_9  and  C_19
REMARK    6  A    between atoms: C_11  and  O_12
REMARK    7  A    between atoms: O_12  and  C_13
REMARK    8  A    between atoms: N_15  and  C_16
REMARK    9  A    between atoms: N_15  and  C_17
REMARK   10  A    between atoms: C_19  and  O_20
REMARK   11  A    between atoms: C_19  and  C_21
REMARK   12  A    between atoms: C_21  and  N_22
REMARK   13  A    between atoms: N_22  and  C_23
REMARK   14  A    between atoms: C_23  and  C_24
REMARK   15  A    between atoms: C_23  and  C_25
REMARK   16  A    between atoms: C_23  and  C_26
REMARK                            x       y       z     vdW  Elec       q    Type
REMARK                         _______ _______ _______ _____ _____    ______ ____
ROOT
ATOM      1  C   UNL     1       7.822  -2.699  22.558  0.00  0.00    +0.137 A 
ATOM      2  C   UNL     1       6.465  -2.897  22.320  0.00  0.00    +0.092 A 
ATOM      3  C   UNL     1       5.787  -3.873  23.038  0.00  0.00    +0.137 A 
ATOM      4  C   UNL     1       6.449  -4.638  24.002  0.00  0.00    +0.053 A 
ATOM      5  C   UNL     1       7.828  -4.470  24.220  0.00  0.00    -0.011 A 
ATOM      6  C   UNL     1       8.509  -3.479  23.490  0.00  0.00    +0.053 A 
ENDROOT
BRANCH   1   7
ATOM      7  O   UNL     1       8.577  -1.802  21.780  0.00  0.00    -0.411 OA
BRANCH   7  10
ATOM      8  C   UNL     1      10.534   0.450  23.843  0.00  0.00    +0.135 C 
ATOM      9  N   UNL     1       9.523  -0.027  22.923  0.00  0.00    -0.273 N 
ATOM     10  C   UNL     1       9.730  -1.282  22.358  0.00  0.00    +0.408 C 
ATOM     11  O   UNL     1      10.808  -1.871  22.412  0.00  0.00    -0.226 OA
ATOM     12  C   UNL     1       8.202   0.574  22.954  0.00  0.00    +0.135 C 
ENDBRANCH   7  10
ENDBRANCH   1   7
BRANCH   3  13
ATOM     13  O   UNL     1       4.402  -4.113  22.889  0.00  0.00    -0.411 OA
BRANCH  13  14
ATOM     14  C   UNL     1       3.530  -4.127  23.983  0.00  0.00    +0.408 C 
ATOM     15  N   UNL     1       2.785  -5.296  24.062  0.00  0.00    -0.273 N 
ATOM     16  C   UNL     1       1.845  -5.465  25.155  0.00  0.00    +0.135 C 
ATOM     17  C   UNL     1       2.820  -6.346  23.061  0.00  0.00    +0.135 C 
ATOM     18  O   UNL     1       3.420  -3.209  24.789  0.00  0.00    -0.226 OA
ENDBRANCH  13  14
ENDBRANCH   3  13
BRANCH   5  19
ATOM     19  C   UNL     1       8.606  -5.299  25.222  0.00  0.00    +0.158 C 
BRANCH  19  20
ATOM     20  O   UNL     1      10.003  -5.181  24.924  0.00  0.00    -0.386 OA
ATOM     21  H   UNL     1      10.488  -5.496  25.706  0.00  0.00    +0.210 HD
ENDBRANCH  19  20
BRANCH  19  22
ATOM     22  C   UNL     1       8.411  -4.946  26.721  0.00  0.00    +0.117 C 
BRANCH  22  23
ATOM     23  N   UNL     1       7.673  -5.958  27.492  0.00  0.00    -0.309 NA
ATOM     24  H   UNL     1       8.189  -6.168  28.346  0.00  0.00    +0.123 HD
BRANCH  23  25
ATOM     25  C   UNL     1       6.280  -5.604  27.826  0.00  0.00    +0.011 C 
ATOM     26  C   UNL     1       5.922  -5.987  29.270  0.00  0.00    +0.027 C 
ATOM     27  C   UNL     1       5.368  -6.405  26.875  0.00  0.00    +0.027 C 
ATOM     28  C   UNL     1       6.014  -4.107  27.587  0.00  0.00    +0.027 C 
ENDBRANCH  23  25
ENDBRANCH  22  23
ENDBRANCH  19  22
ENDBRANCH   5  19
TORSDOF 9
ENDMDL
MODEL 4
REMARK VINA RESULT:      -6.4      2.453      6.839
REMARK  Name = 
REMARK  16 active torsions:
REMARK  status: ('A' for Active; 'I' for Inactive)
REMARK    1  A    between atoms: C_1  and  N_2
REMARK    2  A    between atoms: N_2  and  C_3
REMARK    3  A    between atoms: C_4  and  O_6
REMARK    4  A    between atoms: O_6  and  C_7
REMARK    5  A    between atoms: C_9  and  C_19
REMARK    6  A    between atoms: C_11  and  O_12
REMARK    7  A    between atoms: O_12  and  C_13
REMARK    8  A    between atoms: N_15  and  C_16
REMARK    9  A    between atoms: N_15  and  C_17
REMARK   10  A    between atoms: C_19  and  O_20
REMARK   11  A    between atoms: C_19  and  C_21
REMARK   12  A    between atoms: C_21  and  N_22
REMARK   13  A    between atoms: N_22  and  C_23
REMARK   14  A    between atoms: C_23  and  C_24
REMARK   15  A    between atoms: C_23  and  C_25
REMARK   16  A    between atoms: C_23  and  C_26
REMARK                            x       y       z     vdW  Elec       q    Type
REMARK                         _______ _______ _______ _____ _____    ______ ____
ROOT
ATOM      1  C   UNL     1       6.554  -5.317  27.161  0.00  0.00    +0.137 A 
ATOM      2  C   UNL     1       5.655  -5.832  26.230  0.00  0.00    +0.092 A 
ATOM      3  C   UNL     1       5.946  -5.722  24.876  0.00  0.00    +0.137 A 
ATOM      4  C   UNL     1       7.133  -5.122  24.449  0.00  0.00    +0.053 A 
ATOM      5  C   UNL     1       8.027  -4.567  25.382  0.00  0.00    -0.011 A 
ATOM      6  C   UNL     1       7.726  -4.680  26.751  0.00  0.00    +0.053 A 
ENDROOT
BRANCH   1   7
ATOM      7  O   UNL     1       6.253  -5.303  28.536  0.00  0.00    -0.411 OA
BRANCH   7  10
ATOM      8  C   UNL     1       3.401  -7.124  29.842  0.00  0.00    +0.135 C 
ATOM      9  N   UNL     1       4.343  -6.050  29.606  0.00  0.00    -0.273 N 
ATOM     10  C   UNL     1       5.566  -6.401  29.042  0.00  0.00    +0.408 C 
ATOM     11  O   UNL     1       5.961  -7.563  28.967  0.00  0.00    -0.226 OA
ATOM     12  C   UNL     1       3.855  -4.684  29.553  0.00  0.00    +0.135 C 
ENDBRANCH   7  10
ENDBRANCH   1   7
BRANCH   3  13
ATOM     13  O   UNL     1       5.110  -6.251  23.867  0.00  0.00    -0.411 OA
BRANCH  13  14
ATOM     14  C   UNL     1       4.025  -5.533  23.351  0.00  0.00    +0.408 C 
ATOM     15  N   UNL     1       2.808  -6.165  23.572  0.00  0.00    -0.273 N 
ATOM     16  C   UNL     1       1.588  -5.533  23.106  0.00  0.00    +0.135 C 
ATOM     17  C   UNL     1       2.676  -7.480  24.172  0.00  0.00    +0.135 C 
ATOM     18  O   UNL     1       4.125  -4.464  22.759  0.00  0.00    -0.226 OA
ENDBRANCH  13  14
ENDBRANCH   3  13
BRANCH   5  19
ATOM     19  C   UNL     1       9.307  -3.868  24.973  0.00  0.00    +0.158 C 
BRANCH  19  20
ATOM     20  O   UNL     1      10.313  -4.862  24.740  0.00  0.00    -0.386 OA
ATOM     21  H   UNL     1       9.851  -5.678  24.478  0.00  0.00    +0.210 HD
ENDBRANCH  19  20
BRANCH  19  22
ATOM     22  C   UNL     1       9.237  -2.961  23.715  0.00  0.00    +0.117 C 
BRANCH  22  23
ATOM     23  N   UNL     1      10.273  -1.919  23.660  0.00  0.00    -0.309 NA
ATOM     24  H   UNL     1      10.914  -2.126  22.894  0.00  0.00    +0.123 HD
BRANCH  23  25
ATOM     25  C   UNL     1       9.773  -0.538  23.531  0.00  0.00    +0.011 C 
ATOM     26  C   UNL     1       8.321  -0.406  24.019  0.00  0.00    +0.027 C 
ATOM     27  C   UNL     1       9.811  -0.179  22.032  0.00  0.00    +0.027 C 
ATOM     28  C   UNL     1      10.680   0.456  24.278  0.00  0.00    +0.027 C 
ENDBRANCH  23  25
ENDBRANCH  22  23
ENDBRANCH  19  22
ENDBRANCH   5  19
TORSDOF 9
ENDMDL
MODEL 5
REMARK VINA RESULT:      -6.4      2.363      6.578
REMARK  Name = 
REMARK  16 active torsions:
REMARK  status: ('A' for Active; 'I' for Inactive)
REMARK    1  A    between atoms: C_1  and  N_2
REMARK    2  A    between atoms: N_2  and  C_3
REMARK    3  A    between atoms: C_4  and  O_6
REMARK    4  A    between atoms: O_6  and  C_7
REMARK    5  A    between atoms: C_9  and  C_19
REMARK    6  A    between atoms: C_11  and  O_12
REMARK    7  A    between atoms: O_12  and  C_13
REMARK    8  A    between atoms: N_15  and  C_16
REMARK    9  A    between atoms: N_15  and  C_17
REMARK   10  A    between atoms: C_19  and  O_20
REMARK   11  A    between atoms: C_19  and  C_21
REMARK   12  A    between atoms: C_21  and  N_22
REMARK   13  A    between atoms: N_22  and  C_23
REMARK   14  A    between atoms: C_23  and  C_24
REMARK   15  A    between atoms: C_23  and  C_25
REMARK   16  A    between atoms: C_23  and  C_26
REMARK                            x       y       z     vdW  Elec       q    Type
REMARK                         _______ _______ _______ _____ _____    ______ ____
ROOT
ATOM      1  C   UNL     1       6.020  -5.602  24.712  0.00  0.00    +0.137 A 
ATOM      2  C   UNL     1       5.831  -5.841  26.070  0.00  0.00    +0.092 A 
ATOM      3  C   UNL     1       6.704  -5.269  26.986  0.00  0.00    +0.137 A 
ATOM      4  C   UNL     1       7.751  -4.448  26.557  0.00  0.00    +0.053 A 
ATOM      5  C   UNL     1       7.970  -4.233  25.184  0.00  0.00    -0.011 A 
ATOM      6  C   UNL     1       7.082  -4.815  24.262  0.00  0.00    +0.053 A 
ENDROOT
BRANCH   1   7
ATOM      7  O   UNL     1       5.233  -6.247  23.740  0.00  0.00    -0.411 OA
BRANCH   7  10
ATOM      8  C   UNL     1       1.745  -5.379  23.247  0.00  0.00    +0.135 C 
ATOM      9  N   UNL     1       2.942  -6.175  23.424  0.00  0.00    -0.273 N 
ATOM     10  C   UNL     1       4.159  -5.531  23.222  0.00  0.00    +0.408 C 
ATOM     11  O   UNL     1       4.253  -4.430  22.683  0.00  0.00    -0.226 OA
ATOM     12  C   UNL     1       2.862  -7.410  24.182  0.00  0.00    +0.135 C 
ENDBRANCH   7  10
ENDBRANCH   1   7
BRANCH   3  13
ATOM     13  O   UNL     1       6.562  -5.426  28.383  0.00  0.00    -0.411 OA
BRANCH  13  14
ATOM     14  C   UNL     1       5.746  -6.419  28.938  0.00  0.00    +0.408 C 
ATOM     15  N   UNL     1       4.613  -5.902  29.555  0.00  0.00    -0.273 N 
ATOM     16  C   UNL     1       3.662  -6.811  30.165  0.00  0.00    +0.135 C 
ATOM     17  C   UNL     1       4.354  -4.482  29.710  0.00  0.00    +0.135 C 
ATOM     18  O   UNL     1       5.995  -7.619  28.898  0.00  0.00    -0.226 OA
ENDBRANCH  13  14
ENDBRANCH   3  13
BRANCH   5  19
ATOM     19  C   UNL     1       9.112  -3.387  24.660  0.00  0.00    +0.158 C 
BRANCH  19  20
ATOM     20  O   UNL     1      10.254  -4.232  24.469  0.00  0.00    -0.386 OA
ATOM     21  H   UNL     1      10.884  -3.738  23.916  0.00  0.00    +0.210 HD
ENDBRANCH  19  20
BRANCH  19  22
ATOM     22  C   UNL     1       8.864  -2.622  23.334  0.00  0.00    +0.117 C 
BRANCH  22  23
ATOM     23  N   UNL     1       9.897  -1.629  23.002  0.00  0.00    -0.309 NA
ATOM     24  H   UNL     1      10.104  -1.684  22.005  0.00  0.00    +0.123 HD
BRANCH  23  25
ATOM     25  C   UNL     1       9.577  -0.237  23.369  0.00  0.00    +0.011 C 
ATOM     26  C   UNL     1       8.071  -0.037  23.599  0.00  0.00    +0.027 C 
ATOM     27  C   UNL     1      10.007   0.654  22.187  0.00  0.00    +0.027 C 
ATOM     28  C   UNL     1      10.372   0.208  24.610  0.00  0.00    +0.027 C 
ENDBRANCH  23  25
ENDBRANCH  22  23
ENDBRANCH  19  22
ENDBRANCH   5  19
TORSDOF 9
ENDMDL
MODEL 6
REMARK VINA RESULT:      -6.3      1.708      6.270
REMARK  Name = 
REMARK  16 active torsions:
REMARK  status: ('A' for Active; 'I' for Inactive)
REMARK    1  A    between atoms: C_1  and  N_2
REMARK    2  A    between atoms: N_2  and  C_3
REMARK    3  A    between atoms: C_4  and  O_6
REMARK    4  A    between atoms: O_6  and  C_7
REMARK    5  A    between atoms: C_9  and  C_19
REMARK    6  A    between atoms: C_11  and  O_12
REMARK    7  A    between atoms: O_12  and  C_13
REMARK    8  A    between atoms: N_15  and  C_16
REMARK    9  A    between atoms: N_15  and  C_17
REMARK   10  A    between atoms: C_19  and  O_20
REMARK   11  A    between atoms: C_19  and  C_21
REMARK   12  A    between atoms: C_21  and  N_22
REMARK   13  A    between atoms: N_22  and  C_23
REMARK   14  A    between atoms: C_23  and  C_24
REMARK   15  A    between atoms: C_23  and  C_25
REMARK   16  A    between atoms: C_23  and  C_26
REMARK                            x       y       z     vdW  Elec       q    Type
REMARK                         _______ _______ _______ _____ _____    ______ ____
ROOT
ATOM      1  C   UNL     1       7.952  -2.618  22.490  0.00  0.00    +0.137 A 
ATOM      2  C   UNL     1       7.962  -3.000  23.829  0.00  0.00    +0.092 A 
ATOM      3  C   UNL     1       8.676  -2.237  24.744  0.00  0.00    +0.137 A 
ATOM      4  C   UNL     1       9.362  -1.090  24.335  0.00  0.00    +0.053 A 
ATOM      5  C   UNL     1       9.387  -0.721  22.978  0.00  0.00    -0.011 A 
ATOM      6  C   UNL     1       8.662  -1.497  22.057  0.00  0.00    +0.053 A 
ENDROOT
BRANCH   1   7
ATOM      7  O   UNL     1       7.338  -3.418  21.507  0.00  0.00    -0.411 OA
BRANCH   7  10
ATOM      8  C   UNL     1       4.858  -5.865  22.519  0.00  0.00    +0.135 C 
ATOM      9  N   UNL     1       6.028  -5.285  21.892  0.00  0.00    -0.273 N 
ATOM     10  C   UNL     1       6.064  -3.898  21.792  0.00  0.00    +0.408 C 
ATOM     11  O   UNL     1       5.080  -3.186  21.981  0.00  0.00    -0.226 OA
ATOM     12  C   UNL     1       7.240  -6.078  21.793  0.00  0.00    +0.135 C 
ENDBRANCH   7  10
ENDBRANCH   1   7
BRANCH   3  13
ATOM     13  O   UNL     1       8.708  -2.528  26.126  0.00  0.00    -0.411 OA
BRANCH  13  14
ATOM     14  C   UNL     1       8.530  -3.828  26.614  0.00  0.00    +0.408 C 
ATOM     15  N   UNL     1       7.228  -4.074  27.031  0.00  0.00    -0.273 N 
ATOM     16  C   UNL     1       6.885  -5.385  27.548  0.00  0.00    +0.135 C 
ATOM     17  C   UNL     1       6.186  -3.064  27.065  0.00  0.00    +0.135 C 
ATOM     18  O   UNL     1       9.421  -4.668  26.679  0.00  0.00    -0.226 OA
ENDBRANCH  13  14
ENDBRANCH   3  13
BRANCH   5  19
ATOM     19  C   UNL     1      10.147   0.488  22.473  0.00  0.00    +0.158 C 
BRANCH  19  20
ATOM     20  O   UNL     1       9.454   1.019  21.336  0.00  0.00    -0.386 OA
ATOM     21  H   UNL     1       8.549   1.228  21.628  0.00  0.00    +0.210 HD
ENDBRANCH  19  20
BRANCH  19  22
ATOM     22  C   UNL     1      10.363   1.649  23.480  0.00  0.00    +0.117 C 
BRANCH  22  23
ATOM     23  N   UNL     1      10.004   2.978  22.960  0.00  0.00    -0.309 NA
ATOM     24  H   UNL     1       9.742   2.891  21.979  0.00  0.00    +0.123 HD
BRANCH  23  25
ATOM     25  C   UNL     1       8.939   3.679  23.701  0.00  0.00    +0.011 C 
ATOM     26  C   UNL     1       8.456   2.868  24.914  0.00  0.00    +0.027 C 
ATOM     27  C   UNL     1       7.752   3.853  22.733  0.00  0.00    +0.027 C 
ATOM     28  C   UNL     1       9.398   5.080  24.143  0.00  0.00    +0.027 C 
ENDBRANCH  23  25
ENDBRANCH  22  23
ENDBRANCH  19  22
ENDBRANCH   5  19
TORSDOF 9
ENDMDL
MODEL 7
REMARK VINA RESULT:      -6.2      1.846      4.055
REMARK  Name = 
REMARK  16 active torsions:
REMARK  status: ('A' for Active; 'I' for Inactive)
REMARK    1  A    between atoms: C_1  and  N_2
REMARK    2  A    between atoms: N_2  and  C_3
REMARK    3  A    between atoms: C_4  and  O_6
REMARK    4  A    between atoms: O_6  and  C_7
REMARK    5  A    between atoms: C_9  and  C_19
REMARK    6  A    between atoms: C_11  and  O_12
REMARK    7  A    between atoms: O_12  and  C_13
REMARK    8  A    between atoms: N_15  and  C_16
REMARK    9  A    between atoms: N_15  and  C_17
REMARK   10  A    between atoms: C_19  and  O_20
REMARK   11  A    between atoms: C_19  and  C_21
REMARK   12  A    between atoms: C_21  and  N_22
REMARK   13  A    between atoms: N_22  and  C_23
REMARK   14  A    between atoms: C_23  and  C_24
REMARK   15  A    between atoms: C_23  and  C_25
REMARK   16  A    between atoms: C_23  and  C_26
REMARK                            x       y       z     vdW  Elec       q    Type
REMARK                         _______ _______ _______ _____ _____    ______ ____
ROOT
ATOM      1  C   UNL     1       7.269  -3.520  25.616  0.00  0.00    +0.137 A 
ATOM      2  C   UNL     1       8.418  -2.791  25.320  0.00  0.00    +0.092 A 
ATOM      3  C   UNL     1       8.911  -2.802  24.022  0.00  0.00    +0.137 A 
ATOM      4  C   UNL     1       8.255  -3.519  23.017  0.00  0.00    +0.053 A 
ATOM      5  C   UNL     1       7.116  -4.287  23.317  0.00  0.00    -0.011 A 
ATOM      6  C   UNL     1       6.622  -4.271  24.634  0.00  0.00    +0.053 A 
ENDROOT
BRANCH   1   7
ATOM      7  O   UNL     1       6.795  -3.631  26.937  0.00  0.00    -0.411 OA
BRANCH   7  10
ATOM      8  C   UNL     1       5.199  -6.646  28.173  0.00  0.00    +0.135 C 
ATOM      9  N   UNL     1       5.458  -5.244  27.920  0.00  0.00    -0.273 N 
ATOM     10  C   UNL     1       6.736  -4.911  27.479  0.00  0.00    +0.408 C 
ATOM     11  O   UNL     1       7.686  -5.690  27.529  0.00  0.00    -0.226 OA
ATOM     12  C   UNL     1       4.337  -4.344  27.720  0.00  0.00    +0.135 C 
ENDBRANCH   7  10
ENDBRANCH   1   7
BRANCH   3  13
ATOM     13  O   UNL     1      10.046  -2.060  23.626  0.00  0.00    -0.411 OA
BRANCH  13  14
ATOM     14  C   UNL     1       9.944  -0.930  22.807  0.00  0.00    +0.408 C 
ATOM     15  N   UNL     1      10.247   0.249  23.476  0.00  0.00    -0.273 N 
ATOM     16  C   UNL     1      10.200   1.506  22.754  0.00  0.00    +0.135 C 
ATOM     17  C   UNL     1      10.531   0.321  24.898  0.00  0.00    +0.135 C 
ATOM     18  O   UNL     1       9.616  -0.961  21.626  0.00  0.00    -0.226 OA
ENDBRANCH  13  14
ENDBRANCH   3  13
BRANCH   5  19
ATOM     19  C   UNL     1       6.389  -5.115  22.277  0.00  0.00    +0.158 C 
BRANCH  19  20
ATOM     20  O   UNL     1       7.363  -5.719  21.416  0.00  0.00    -0.386 OA
ATOM     21  H   UNL     1       7.479  -6.637  21.718  0.00  0.00    +0.210 HD
ENDBRANCH  19  20
BRANCH  19  22
ATOM     22  C   UNL     1       5.462  -6.242  22.805  0.00  0.00    +0.117 C 
BRANCH  22  23
ATOM     23  N   UNL     1       4.039  -6.057  22.483  0.00  0.00    -0.309 NA
ATOM     24  H   UNL     1       3.775  -6.715  21.749  0.00  0.00    +0.123 HD
BRANCH  23  25
ATOM     25  C   UNL     1       3.112  -6.184  23.623  0.00  0.00    +0.011 C 
ATOM     26  C   UNL     1       1.760  -6.780  23.199  0.00  0.00    +0.027 C 
ATOM     27  C   UNL     1       2.862  -4.763  24.166  0.00  0.00    +0.027 C 
ATOM     28  C   UNL     1       3.734  -7.020  24.755  0.00  0.00    +0.027 C 
ENDBRANCH  23  25
ENDBRANCH  22  23
ENDBRANCH  19  22
ENDBRANCH   5  19
TORSDOF 9
ENDMDL
MODEL 8
REMARK VINA RESULT:      -6.1      3.154      7.468
REMARK  Name = 
REMARK  16 active torsions:
REMARK  status: ('A' for Active; 'I' for Inactive)
REMARK    1  A    between atoms: C_1  and  N_2
REMARK    2  A    between atoms: N_2  and  C_3
REMARK    3  A    between atoms: C_4  and  O_6
REMARK    4  A    between atoms: O_6  and  C_7
REMARK    5  A    between atoms: C_9  and  C_19
REMARK    6  A    between atoms: C_11  and  O_12
REMARK    7  A    between atoms: O_12  and  C_13
REMARK    8  A    between atoms: N_15  and  C_16
REMARK    9  A    between atoms: N_15  and  C_17
REMARK   10  A    between atoms: C_19  and  O_20
REMARK   11  A    between atoms: C_19  and  C_21
REMARK   12  A    between atoms: C_21  and  N_22
REMARK   13  A    between atoms: N_22  and  C_23
REMARK   14  A    between atoms: C_23  and  C_24
REMARK   15  A    between atoms: C_23  and  C_25
REMARK   16  A    between atoms: C_23  and  C_26
REMARK                            x       y       z     vdW  Elec       q    Type
REMARK                         _______ _______ _______ _____ _____    ______ ____
ROOT
ATOM      1  C   UNL     1       7.389  -0.261  24.786  0.00  0.00    +0.137 A 
ATOM      2  C   UNL     1       7.134  -1.422  24.062  0.00  0.00    +0.092 A 
ATOM      3  C   UNL     1       7.850  -1.664  22.897  0.00  0.00    +0.137 A 
ATOM      4  C   UNL     1       8.828  -0.765  22.462  0.00  0.00    +0.053 A 
ATOM      5  C   UNL     1       9.064   0.428  23.169  0.00  0.00    -0.011 A 
ATOM      6  C   UNL     1       8.336   0.666  24.348  0.00  0.00    +0.053 A 
ENDROOT
BRANCH   1   7
ATOM      7  O   UNL     1       6.614   0.084  25.910  0.00  0.00    -0.411 OA
BRANCH   7  10
ATOM      8  C   UNL     1       5.126   3.354  26.411  0.00  0.00    +0.135 C 
ATOM      9  N   UNL     1       5.801   2.104  26.691  0.00  0.00    -0.273 N 
ATOM     10  C   UNL     1       5.674   1.096  25.740  0.00  0.00    +0.408 C 
ATOM     11  O   UNL     1       4.848   1.131  24.831  0.00  0.00    -0.226 OA
ATOM     12  C   UNL     1       6.877   2.087  27.665  0.00  0.00    +0.135 C 
ENDBRANCH   7  10
ENDBRANCH   1   7
BRANCH   3  13
ATOM     13  O   UNL     1       7.684  -2.834  22.123  0.00  0.00    -0.411 OA
BRANCH  13  14
ATOM     14  C   UNL     1       6.486  -3.558  22.122  0.00  0.00    +0.408 C 
ATOM     15  N   UNL     1       6.570  -4.738  22.850  0.00  0.00    -0.273 N 
ATOM     16  C   UNL     1       5.401  -5.591  22.954  0.00  0.00    +0.135 C 
ATOM     17  C   UNL     1       7.795  -5.229  23.456  0.00  0.00    +0.135 C 
ATOM     18  O   UNL     1       5.467  -3.205  21.539  0.00  0.00    -0.226 OA
ENDBRANCH  13  14
ENDBRANCH   3  13
BRANCH   5  19
ATOM     19  C   UNL     1      10.083   1.457  22.722  0.00  0.00    +0.158 C 
BRANCH  19  20
ATOM     20  O   UNL     1       9.695   1.950  21.433  0.00  0.00    -0.386 OA
ATOM     21  H   UNL     1       9.549   1.174  20.864  0.00  0.00    +0.210 HD
ENDBRANCH  19  20
BRANCH  19  22
ATOM     22  C   UNL     1      10.295   2.680  23.653  0.00  0.00    +0.117 C 
BRANCH  22  23
ATOM     23  N   UNL     1       9.999   3.978  23.026  0.00  0.00    -0.309 NA
ATOM     24  H   UNL     1       9.822   3.835  22.032  0.00  0.00    +0.123 HD
BRANCH  23  25
ATOM     25  C   UNL     1       8.883   4.730  23.628  0.00  0.00    +0.011 C 
ATOM     26  C   UNL     1       8.614   4.295  25.077  0.00  0.00    +0.027 C 
ATOM     27  C   UNL     1       7.625   4.423  22.791  0.00  0.00    +0.027 C 
ATOM     28  C   UNL     1       9.135   6.247  23.563  0.00  0.00    +0.027 C 
ENDBRANCH  23  25
ENDBRANCH  22  23
ENDBRANCH  19  22
ENDBRANCH   5  19
TORSDOF 9
ENDMDL
MODEL 9
REMARK VINA RESULT:      -6.1      1.821      6.201
REMARK  Name = 
REMARK  16 active torsions:
REMARK  status: ('A' for Active; 'I' for Inactive)
REMARK    1  A    between atoms: C_1  and  N_2
REMARK    2  A    between atoms: N_2  and  C_3
REMARK    3  A    between atoms: C_4  and  O_6
REMARK    4  A    between atoms: O_6  and  C_7
REMARK    5  A    between atoms: C_9  and  C_19
REMARK    6  A    between atoms: C_11  and  O_12
REMARK    7  A    between atoms: O_12  and  C_13
REMARK    8  A    between atoms: N_15  and  C_16
REMARK    9  A    between atoms: N_15  and  C_17
REMARK   10  A    between atoms: C_19  and  O_20
REMARK   11  A    between atoms: C_19  and  C_21
REMARK   12  A    between atoms: C_21  and  N_22
REMARK   13  A    between atoms: N_22  and  C_23
REMARK   14  A    between atoms: C_23  and  C_24
REMARK   15  A    between atoms: C_23  and  C_25
REMARK   16  A    between atoms: C_23  and  C_26
REMARK                            x       y       z     vdW  Elec       q    Type
REMARK                         _______ _______ _______ _____ _____    ______ ____
ROOT
ATOM      1  C   UNL     1       9.047  -2.881  23.883  0.00  0.00    +0.137 A 
ATOM      2  C   UNL     1       8.665  -2.861  25.222  0.00  0.00    +0.092 A 
ATOM      3  C   UNL     1       7.551  -3.589  25.619  0.00  0.00    +0.137 A 
ATOM      4  C   UNL     1       6.829  -4.348  24.694  0.00  0.00    +0.053 A 
ATOM      5  C   UNL     1       7.186  -4.342  23.334  0.00  0.00    -0.011 A 
ATOM      6  C   UNL     1       8.315  -3.603  22.938  0.00  0.00    +0.053 A 
ENDROOT
BRANCH   1   7
ATOM      7  O   UNL     1      10.098  -2.073  23.411  0.00  0.00    -0.411 OA
BRANCH   7  10
ATOM      8  C   UNL     1      10.007   1.394  22.348  0.00  0.00    +0.135 C 
ATOM      9  N   UNL     1       9.996   0.229  23.208  0.00  0.00    -0.273 N 
ATOM     10  C   UNL     1       9.751  -0.998  22.599  0.00  0.00    +0.408 C 
ATOM     11  O   UNL     1       9.318  -1.104  21.454  0.00  0.00    -0.226 OA
ATOM     12  C   UNL     1      10.633   0.309  24.510  0.00  0.00    +0.135 C 
ENDBRANCH   7  10
ENDBRANCH   1   7
BRANCH   3  13
ATOM     13  O   UNL     1       7.119  -3.658  26.962  0.00  0.00    -0.411 OA
BRANCH  13  14
ATOM     14  C   UNL     1       6.743  -4.866  27.560  0.00  0.00    +0.408 C 
ATOM     15  N   UNL     1       5.423  -4.867  27.991  0.00  0.00    -0.273 N 
ATOM     16  C   UNL     1       4.883  -6.058  28.618  0.00  0.00    +0.135 C 
ATOM     17  C   UNL     1       4.553  -3.706  27.932  0.00  0.00    +0.135 C 
ATOM     18  O   UNL     1       7.492  -5.827  27.701  0.00  0.00    -0.226 OA
ENDBRANCH  13  14
ENDBRANCH   3  13
BRANCH   5  19
ATOM     19  C   UNL     1       6.415  -5.113  22.282  0.00  0.00    +0.158 C 
BRANCH  19  20
ATOM     20  O   UNL     1       7.352  -5.693  21.365  0.00  0.00    -0.386 OA
ATOM     21  H   UNL     1       7.121  -5.366  20.478  0.00  0.00    +0.210 HD
ENDBRANCH  19  20
BRANCH  19  22
ATOM     22  C   UNL     1       5.485  -6.247  22.788  0.00  0.00    +0.117 C 
BRANCH  22  23
ATOM     23  N   UNL     1       4.058  -6.036  22.501  0.00  0.00    -0.309 NA
ATOM     24  H   UNL     1       3.739  -6.755  21.852  0.00  0.00    +0.123 HD
BRANCH  23  25
ATOM     25  C   UNL     1       3.175  -6.003  23.681  0.00  0.00    +0.011 C 
ATOM     26  C   UNL     1       3.605  -7.022  24.748  0.00  0.00    +0.027 C 
ATOM     27  C   UNL     1       1.759  -6.379  23.199  0.00  0.00    +0.027 C 
ATOM     28  C   UNL     1       3.108  -4.590  24.287  0.00  0.00    +0.027 C 
ENDBRANCH  23  25
ENDBRANCH  22  23
ENDBRANCH  19  22
ENDBRANCH   5  19
TORSDOF 9
ENDMDL
