MODEL 1
REMARK VINA RESULT:      -5.4      0.000      0.000
REMARK  Name = 
REMARK  1 active torsions:
REMARK  status: ('A' for Active; 'I' for Inactive)
REMARK    1  A    between atoms: O_1  and  C_2
REMARK                            x       y       z     vdW  Elec       q    Type
REMARK                         _______ _______ _______ _____ _____    ______ ____
ROOT
ATOM      1  C   UNL     1       9.293  -5.098  25.369  0.00  0.00    +0.245 A 
ATOM      2  C   UNL     1       9.016  -3.928  24.566  0.00  0.00    +0.168 A 
ATOM      3  N   UNL     1       9.815  -3.084  23.841  0.00  0.00    -0.215 NA
ATOM      4  C   UNL     1       8.978  -2.202  23.326  0.00  0.00    +0.172 A 
ATOM      5  N   UNL     1       7.672  -2.444  23.690  0.00  0.00    -0.320 N 
ATOM      6  H   UNL     1       6.872  -1.896  23.412  0.00  0.00    +0.169 HD
ATOM      7  I   UNL     1       9.554  -0.654  22.122  0.00  0.00    -0.001 I 
ATOM      8  C   UNL     1       7.706  -3.543  24.479  0.00  0.00    +0.144 A 
ATOM      9  N   UNL     1       6.723  -4.206  25.099  0.00  0.00    -0.309 N 
ATOM     10  H   UNL     1       5.736  -3.987  25.083  0.00  0.00    +0.170 HD
ATOM     11  C   UNL     1       7.068  -5.311  25.843  0.00  0.00    +0.225 A 
ATOM     12  N   UNL     1       6.181  -6.003  26.468  0.00  0.00    -0.266 NA
ATOM     13  H   UNL     1       6.710  -6.753  26.930  0.00  0.00    +0.190 HD
ATOM     14  N   UNL     1       8.365  -5.768  25.986  0.00  0.00    -0.176 NA
ENDROOT
BRANCH   1  15
ATOM     15  O   UNL     1      10.573  -5.497  25.472  0.00  0.00    -0.491 OA
ATOM     16  H   UNL     1      10.712  -5.803  26.381  0.00  0.00    +0.294 HD
ENDBRANCH   1  15
TORSDOF 1
ENDMDL
MODEL 2
REMARK VINA RESULT:      -5.3      3.572      5.640
REMARK  Name = 
REMARK  1 active torsions:
REMARK  status: ('A' for Active; 'I' for Inactive)
REMARK    1  A    between atoms: O_1  and  C_2
REMARK                            x       y       z     vdW  Elec       q    Type
REMARK                         _______ _______ _______ _____ _____    ______ ____
ROOT
ATOM      1  C   UNL     1       9.970   0.273  24.345  0.00  0.00    +0.245 A 
ATOM      2  C   UNL     1       9.346  -0.930  23.838  0.00  0.00    +0.168 A 
ATOM      3  N   UNL     1       8.964  -2.103  24.432  0.00  0.00    -0.215 NA
ATOM      4  C   UNL     1       8.450  -2.817  23.447  0.00  0.00    +0.172 A 
ATOM      5  N   UNL     1       8.485  -2.150  22.242  0.00  0.00    -0.320 N 
ATOM      6  H   UNL     1       8.147  -2.507  21.361  0.00  0.00    +0.169 HD
ATOM      7  I   UNL     1       7.685  -4.698  23.682  0.00  0.00    -0.001 I 
ATOM      8  C   UNL     1       9.057  -0.951  22.501  0.00  0.00    +0.144 A 
ATOM      9  N   UNL     1       9.332   0.080  21.694  0.00  0.00    -0.309 N 
ATOM     10  H   UNL     1       9.149   0.142  20.701  0.00  0.00    +0.170 HD
ATOM     11  C   UNL     1       9.925   1.189  22.253  0.00  0.00    +0.225 A 
ATOM     12  N   UNL     1      10.218   2.222  21.544  0.00  0.00    -0.266 NA
ATOM     13  H   UNL     1      10.641   2.884  22.206  0.00  0.00    +0.190 HD
ATOM     14  N   UNL     1      10.251   1.294  23.592  0.00  0.00    -0.176 NA
ENDROOT
BRANCH   1  15
ATOM     15  O   UNL     1      10.265   0.318  25.655  0.00  0.00    -0.491 OA
ATOM     16  H   UNL     1       9.441   0.489  26.136  0.00  0.00    +0.294 HD
ENDBRANCH   1  15
TORSDOF 1
ENDMDL
MODEL 3
REMARK VINA RESULT:      -5.3      5.319      6.284
REMARK  Name = 
REMARK  1 active torsions:
REMARK  status: ('A' for Active; 'I' for Inactive)
REMARK    1  A    between atoms: O_1  and  C_2
REMARK                            x       y       z     vdW  Elec       q    Type
REMARK                         _______ _______ _______ _____ _____    ______ ____
ROOT
ATOM      1  C   UNL     1      10.133   0.487  24.258  0.00  0.00    +0.245 A 
ATOM      2  C   UNL     1       9.618   1.748  23.772  0.00  0.00    +0.168 A 
ATOM      3  N   UNL     1       9.378   2.952  24.378  0.00  0.00    -0.215 NA
ATOM      4  C   UNL     1       8.908   3.718  23.410  0.00  0.00    +0.172 A 
ATOM      5  N   UNL     1       8.835   3.055  22.205  0.00  0.00    -0.320 N 
ATOM      6  H   UNL     1       8.506   3.446  21.336  0.00  0.00    +0.169 HD
ATOM      7  I   UNL     1       8.352   5.668  23.668  0.00  0.00    -0.001 I 
ATOM      8  C   UNL     1       9.289   1.802  22.446  0.00  0.00    +0.144 A 
ATOM      9  N   UNL     1       9.431   0.751  21.630  0.00  0.00    -0.309 N 
ATOM     10  H   UNL     1       9.212   0.712  20.643  0.00  0.00    +0.170 HD
ATOM     11  C   UNL     1       9.929  -0.413  22.168  0.00  0.00    +0.225 A 
ATOM     12  N   UNL     1      10.098  -1.466  21.449  0.00  0.00    -0.266 NA
ATOM     13  H   UNL     1      10.475  -2.169  22.097  0.00  0.00    +0.190 HD
ATOM     14  N   UNL     1      10.286  -0.555  23.496  0.00  0.00    -0.176 NA
ENDROOT
BRANCH   1  15
ATOM     15  O   UNL     1      10.464   0.407  25.559  0.00  0.00    -0.491 OA
ATOM     16  H   UNL     1      11.286   0.904  25.683  0.00  0.00    +0.294 HD
ENDBRANCH   1  15
TORSDOF 1
ENDMDL
MODEL 4
REMARK VINA RESULT:      -5.2      3.860      5.724
REMARK  Name = 
REMARK  1 active torsions:
REMARK  status: ('A' for Active; 'I' for Inactive)
REMARK    1  A    between atoms: O_1  and  C_2
REMARK                            x       y       z     vdW  Elec       q    Type
REMARK                         _______ _______ _______ _____ _____    ______ ____
ROOT
ATOM      1  C   UNL     1       9.553  -0.822  21.977  0.00  0.00    +0.245 A 
ATOM      2  C   UNL     1       8.274  -1.213  22.527  0.00  0.00    +0.168 A 
ATOM      3  N   UNL     1       7.737  -2.428  22.864  0.00  0.00    -0.215 NA
ATOM      4  C   UNL     1       6.530  -2.137  23.317  0.00  0.00    +0.172 A 
ATOM      5  N   UNL     1       6.269  -0.785  23.286  0.00  0.00    -0.320 N 
ATOM      6  H   UNL     1       5.413  -0.343  23.583  0.00  0.00    +0.169 HD
ATOM      7  I   UNL     1       5.200  -3.536  23.991  0.00  0.00    -0.001 I 
ATOM      8  C   UNL     1       7.385  -0.206  22.781  0.00  0.00    +0.144 A 
ATOM      9  N   UNL     1       7.670   1.078  22.539  0.00  0.00    -0.309 N 
ATOM     10  H   UNL     1       7.070   1.877  22.701  0.00  0.00    +0.170 HD
ATOM     11  C   UNL     1       8.909   1.369  22.017  0.00  0.00    +0.225 A 
ATOM     12  N   UNL     1       9.261   2.580  21.759  0.00  0.00    -0.266 NA
ATOM     13  H   UNL     1      10.215   2.503  21.387  0.00  0.00    +0.190 HD
ATOM     14  N   UNL     1       9.867   0.415  21.729  0.00  0.00    -0.176 NA
ENDROOT
BRANCH   1  15
ATOM     15  O   UNL     1      10.445  -1.793  21.717  0.00  0.00    -0.491 OA
ATOM     16  H   UNL     1      10.014  -2.440  21.139  0.00  0.00    +0.294 HD
ENDBRANCH   1  15
TORSDOF 1
ENDMDL
MODEL 5
REMARK VINA RESULT:      -5.2      3.346      4.408
REMARK  Name = 
REMARK  1 active torsions:
REMARK  status: ('A' for Active; 'I' for Inactive)
REMARK    1  A    between atoms: O_1  and  C_2
REMARK                            x       y       z     vdW  Elec       q    Type
REMARK                         _______ _______ _______ _____ _____    ______ ____
ROOT
ATOM      1  C   UNL     1       8.871  -5.320  25.378  0.00  0.00    +0.245 A 
ATOM      2  C   UNL     1       7.723  -5.432  26.250  0.00  0.00    +0.168 A 
ATOM      3  N   UNL     1       7.592  -5.693  27.588  0.00  0.00    -0.215 NA
ATOM      4  C   UNL     1       6.288  -5.664  27.801  0.00  0.00    +0.172 A 
ATOM      5  N   UNL     1       5.576  -5.394  26.654  0.00  0.00    -0.320 N 
ATOM      6  H   UNL     1       4.572  -5.325  26.586  0.00  0.00    +0.169 HD
ATOM      7  I   UNL     1       5.425  -5.979  29.627  0.00  0.00    -0.001 I 
ATOM      8  C   UNL     1       6.497  -5.249  25.673  0.00  0.00    +0.144 A 
ATOM      9  N   UNL     1       6.353  -4.978  24.370  0.00  0.00    -0.309 N 
ATOM     10  H   UNL     1       5.486  -4.829  23.871  0.00  0.00    +0.170 HD
ATOM     11  C   UNL     1       7.495  -4.886  23.607  0.00  0.00    +0.225 A 
ATOM     12  N   UNL     1       7.440  -4.627  22.348  0.00  0.00    -0.266 NA
ATOM     13  H   UNL     1       8.420  -4.618  22.039  0.00  0.00    +0.190 HD
ATOM     14  N   UNL     1       8.771  -5.058  24.109  0.00  0.00    -0.176 NA
ENDROOT
BRANCH   1  15
ATOM     15  O   UNL     1      10.088  -5.497  25.921  0.00  0.00    -0.491 OA
ATOM     16  H   UNL     1       9.996  -5.412  26.882  0.00  0.00    +0.294 HD
ENDBRANCH   1  15
TORSDOF 1
ENDMDL
MODEL 6
REMARK VINA RESULT:      -5.1      3.571      4.786
REMARK  Name = 
REMARK  1 active torsions:
REMARK  status: ('A' for Active; 'I' for Inactive)
REMARK    1  A    between atoms: O_1  and  C_2
REMARK                            x       y       z     vdW  Elec       q    Type
REMARK                         _______ _______ _______ _____ _____    ______ ____
ROOT
ATOM      1  C   UNL     1       7.342  -4.873  24.105  0.00  0.00    +0.245 A 
ATOM      2  C   UNL     1       6.475  -5.259  25.197  0.00  0.00    +0.168 A 
ATOM      3  N   UNL     1       5.113  -5.285  25.340  0.00  0.00    -0.215 NA
ATOM      4  C   UNL     1       4.922  -5.737  26.567  0.00  0.00    +0.172 A 
ATOM      5  N   UNL     1       6.106  -6.003  27.218  0.00  0.00    -0.320 N 
ATOM      6  H   UNL     1       6.194  -6.354  28.160  0.00  0.00    +0.169 HD
ATOM      7  I   UNL     1       3.077  -6.014  27.404  0.00  0.00    -0.001 I 
ATOM      8  C   UNL     1       7.088  -5.695  26.339  0.00  0.00    +0.144 A 
ATOM      9  N   UNL     1       8.419  -5.766  26.454  0.00  0.00    -0.309 N 
ATOM     10  H   UNL     1       8.945  -6.077  27.260  0.00  0.00    +0.170 HD
ATOM     11  C   UNL     1       9.175  -5.381  25.370  0.00  0.00    +0.225 A 
ATOM     12  N   UNL     1      10.461  -5.422  25.401  0.00  0.00    -0.266 NA
ATOM     13  H   UNL     1      10.757  -5.086  24.476  0.00  0.00    +0.190 HD
ATOM     14  N   UNL     1       8.639  -4.927  24.180  0.00  0.00    -0.176 NA
ENDROOT
BRANCH   1  15
ATOM     15  O   UNL     1       6.764  -4.439  22.972  0.00  0.00    -0.491 OA
ATOM     16  H   UNL     1       6.117  -3.760  23.214  0.00  0.00    +0.294 HD
ENDBRANCH   1  15
TORSDOF 1
ENDMDL
MODEL 7
REMARK VINA RESULT:      -5.1      5.082      6.375
REMARK  Name = 
REMARK  1 active torsions:
REMARK  status: ('A' for Active; 'I' for Inactive)
REMARK    1  A    between atoms: O_1  and  C_2
REMARK                            x       y       z     vdW  Elec       q    Type
REMARK                         _______ _______ _______ _____ _____    ______ ____
ROOT
ATOM      1  C   UNL     1       7.290  -0.087  22.881  0.00  0.00    +0.245 A 
ATOM      2  C   UNL     1       7.511   1.320  22.628  0.00  0.00    +0.168 A 
ATOM      3  N   UNL     1       6.795   2.445  22.939  0.00  0.00    -0.215 NA
ATOM      4  C   UNL     1       7.511   3.437  22.440  0.00  0.00    +0.172 A 
ATOM      5  N   UNL     1       8.659   2.995  21.820  0.00  0.00    -0.320 N 
ATOM      6  H   UNL     1       9.348   3.579  21.372  0.00  0.00    +0.169 HD
ATOM      7  I   UNL     1       6.978   5.406  22.573  0.00  0.00    -0.001 I 
ATOM      8  C   UNL     1       8.649   1.647  21.945  0.00  0.00    +0.144 A 
ATOM      9  N   UNL     1       9.523   0.724  21.527  0.00  0.00    -0.309 N 
ATOM     10  H   UNL     1      10.383   0.885  21.020  0.00  0.00    +0.170 HD
ATOM     11  C   UNL     1       9.243  -0.594  21.808  0.00  0.00    +0.225 A 
ATOM     12  N   UNL     1      10.034  -1.541  21.441  0.00  0.00    -0.266 NA
ATOM     13  H   UNL     1       9.585  -2.402  21.777  0.00  0.00    +0.190 HD
ATOM     14  N   UNL     1       8.116  -1.012  22.490  0.00  0.00    -0.176 NA
ENDROOT
BRANCH   1  15
ATOM     15  O   UNL     1       6.178  -0.435  23.549  0.00  0.00    -0.491 OA
ATOM     16  H   UNL     1       6.407  -1.170  24.138  0.00  0.00    +0.294 HD
ENDBRANCH   1  15
TORSDOF 1
ENDMDL
MODEL 8
REMARK VINA RESULT:      -5.1      3.617      5.764
REMARK  Name = 
REMARK  1 active torsions:
REMARK  status: ('A' for Active; 'I' for Inactive)
REMARK    1  A    between atoms: O_1  and  C_2
REMARK                            x       y       z     vdW  Elec       q    Type
REMARK                         _______ _______ _______ _____ _____    ______ ____
ROOT
ATOM      1  C   UNL     1       7.477   0.003  23.077  0.00  0.00    +0.245 A 
ATOM      2  C   UNL     1       8.224  -1.152  23.524  0.00  0.00    +0.168 A 
ATOM      3  N   UNL     1       7.867  -2.286  24.204  0.00  0.00    -0.215 NA
ATOM      4  C   UNL     1       8.993  -2.968  24.317  0.00  0.00    +0.172 A 
ATOM      5  N   UNL     1      10.060  -2.318  23.737  0.00  0.00    -0.320 N 
ATOM      6  H   UNL     1      11.010  -2.656  23.706  0.00  0.00    +0.169 HD
ATOM      7  I   UNL     1       9.136  -4.784  25.244  0.00  0.00    -0.001 I 
ATOM      8  C   UNL     1       9.560  -1.164  23.236  0.00  0.00    +0.144 A 
ATOM      9  N   UNL     1      10.158  -0.166  22.574  0.00  0.00    -0.309 N 
ATOM     10  H   UNL     1      11.136  -0.102  22.323  0.00  0.00    +0.170 HD
ATOM     11  C   UNL     1       9.378   0.897  22.180  0.00  0.00    +0.225 A 
ATOM     12  N   UNL     1       9.878   1.894  21.538  0.00  0.00    -0.266 NA
ATOM     13  H   UNL     1       9.085   2.526  21.376  0.00  0.00    +0.190 HD
ATOM     14  N   UNL     1       8.022   0.991  22.431  0.00  0.00    -0.176 NA
ENDROOT
BRANCH   1  15
ATOM     15  O   UNL     1       6.161   0.040  23.349  0.00  0.00    -0.491 OA
ATOM     16  H   UNL     1       5.875   0.963  23.287  0.00  0.00    +0.294 HD
ENDBRANCH   1  15
TORSDOF 1
ENDMDL
MODEL 9
REMARK VINA RESULT:      -5.0      2.209      2.747
REMARK  Name = 
REMARK  1 active torsions:
REMARK  status: ('A' for Active; 'I' for Inactive)
REMARK    1  A    between atoms: O_1  and  C_2
REMARK                            x       y       z     vdW  Elec       q    Type
REMARK                         _______ _______ _______ _____ _____    ______ ____
ROOT
ATOM      1  C   UNL     1       7.683  -4.261  23.149  0.00  0.00    +0.245 A 
ATOM      2  C   UNL     1       8.330  -2.970  23.062  0.00  0.00    +0.168 A 
ATOM      3  N   UNL     1       8.100  -1.864  22.288  0.00  0.00    -0.215 NA
ATOM      4  C   UNL     1       9.024  -1.000  22.670  0.00  0.00    +0.172 A 
ATOM      5  N   UNL     1       9.839  -1.506  23.659  0.00  0.00    -0.320 N 
ATOM      6  H   UNL     1      10.607  -1.020  24.096  0.00  0.00    +0.169 HD
ATOM      7  I   UNL     1       9.222   0.877  21.886  0.00  0.00    -0.001 I 
ATOM      8  C   UNL     1       9.389  -2.760  23.901  0.00  0.00    +0.144 A 
ATOM      9  N   UNL     1       9.815  -3.691  24.762  0.00  0.00    -0.309 N 
ATOM     10  H   UNL     1      10.586  -3.612  25.413  0.00  0.00    +0.170 HD
ATOM     11  C   UNL     1       9.147  -4.893  24.786  0.00  0.00    +0.225 A 
ATOM     12  N   UNL     1       9.494  -5.839  25.587  0.00  0.00    -0.266 NA
ATOM     13  H   UNL     1       8.835  -6.603  25.393  0.00  0.00    +0.190 HD
ATOM     14  N   UNL     1       8.069  -5.190  23.973  0.00  0.00    -0.176 NA
ENDROOT
BRANCH   1  15
ATOM     15  O   UNL     1       6.640  -4.494  22.335  0.00  0.00    -0.491 OA
ATOM     16  H   UNL     1       5.889  -3.979  22.666  0.00  0.00    +0.294 HD
ENDBRANCH   1  15
TORSDOF 1
ENDMDL
