MODEL 1
REMARK VINA RESULT:      -5.1      0.000      0.000
REMARK  Name = 
REMARK  17 active torsions:
REMARK  status: ('A' for Active; 'I' for Inactive)
REMARK    1  A    between atoms: C_1  and  C_2
REMARK    2  A    between atoms: C_2  and  C_3
REMARK    3  A    between atoms: C_3  and  C_4
REMARK    4  A    between atoms: C_4  and  C_5
REMARK    5  A    between atoms: C_5  and  C_6
REMARK    6  A    between atoms: C_6  and  C_7
REMARK    7  A    between atoms: C_7  and  C_8
REMARK    8  A    between atoms: C_8  and  C_9
REMARK    9  A    between atoms: C_9  and  C_10
REMARK   10  A    between atoms: C_10  and  C_11
REMARK   11  A    between atoms: C_11  and  C_12
REMARK   12  A    between atoms: N_14  and  C_15
REMARK   13  A    between atoms: C_15  and  C_16
REMARK   14  A    between atoms: C_16  and  C_17
REMARK   15  A    between atoms: C_17  and  N_18
REMARK   16  A    between atoms: N_18  and  C_19
REMARK   17  A    between atoms: N_18  and  C_20
REMARK                            x       y       z     vdW  Elec       q    Type
REMARK                         _______ _______ _______ _____ _____    ______ ____
ROOT
ATOM      1  C   UNL     1       8.814  -0.230  22.559  0.00  0.00    +0.096 C 
ENDROOT
BRANCH   1   2
ATOM      2  C   UNL     1       9.339  -1.605  22.921  0.00  0.00    +0.213 C 
ATOM      3  N   UNL     1       8.429  -2.370  23.617  0.00  0.00    -0.315 N 
ATOM      4  H   UNL     1       7.543  -1.960  23.884  0.00  0.00    +0.149 HD
ATOM      5  O   UNL     1      10.469  -1.997  22.649  0.00  0.00    -0.276 OA
BRANCH   3   6
ATOM      6  C   UNL     1       8.775  -3.690  24.096  0.00  0.00    +0.109 C 
BRANCH   6   7
ATOM      7  C   UNL     1       7.638  -4.693  23.903  0.00  0.00    +0.069 C 
BRANCH   7   8
ATOM      8  C   UNL     1       7.412  -4.990  22.424  0.00  0.00    +0.131 C 
BRANCH   8   9
ATOM      9  N   UNL     1       6.002  -4.787  21.900  0.00  0.00    +0.213 N 
ATOM     10  O   UNL     1       5.972  -5.236  20.593  0.00  0.00    -0.776 OA
ATOM     11  C   UNL     1       5.620  -3.333  21.905  0.00  0.00    +0.189 C 
ATOM     12  C   UNL     1       5.002  -5.581  22.690  0.00  0.00    +0.189 C 
ENDBRANCH   8   9
ENDBRANCH   7   8
ENDBRANCH   6   7
ENDBRANCH   3   6
ENDBRANCH   1   2
BRANCH   1  13
ATOM     13  C   UNL     1       9.893   0.594  21.865  0.00  0.00    +0.009 C 
BRANCH  13  14
ATOM     14  C   UNL     1      10.044   1.983  22.475  0.00  0.00    +0.000 C 
BRANCH  14  15
ATOM     15  C   UNL     1       9.901   1.899  23.994  0.00  0.00    +0.000 C 
BRANCH  15  16
ATOM     16  C   UNL     1       9.150   3.101  24.555  0.00  0.00    +0.000 C 
BRANCH  16  17
ATOM     17  C   UNL     1       8.587   3.958  23.425  0.00  0.00    +0.000 C 
BRANCH  17  18
ATOM     18  C   UNL     1       8.523   5.427  23.833  0.00  0.00    -0.000 C 
BRANCH  18  19
ATOM     19  C   UNL     1       9.805   6.163  23.448  0.00  0.00    -0.000 C 
BRANCH  19  20
ATOM     20  C   UNL     1      10.663   6.439  24.681  0.00  0.00    -0.000 C 
BRANCH  20  22
ATOM     21  C   UNL     1      12.319   5.075  23.374  0.00  0.00    +0.004 C 
ATOM     22  C   UNL     1      12.140   6.185  24.398  0.00  0.00    -0.003 C 
ENDBRANCH  20  22
ENDBRANCH  19  20
ENDBRANCH  18  19
ENDBRANCH  17  18
ENDBRANCH  16  17
ENDBRANCH  15  16
ENDBRANCH  14  15
ENDBRANCH  13  14
ENDBRANCH   1  13
TORSDOF 14
ENDMDL
MODEL 2
REMARK VINA RESULT:      -5.0      1.439      2.520
REMARK  Name = 
REMARK  17 active torsions:
REMARK  status: ('A' for Active; 'I' for Inactive)
REMARK    1  A    between atoms: C_1  and  C_2
REMARK    2  A    between atoms: C_2  and  C_3
REMARK    3  A    between atoms: C_3  and  C_4
REMARK    4  A    between atoms: C_4  and  C_5
REMARK    5  A    between atoms: C_5  and  C_6
REMARK    6  A    between atoms: C_6  and  C_7
REMARK    7  A    between atoms: C_7  and  C_8
REMARK    8  A    between atoms: C_8  and  C_9
REMARK    9  A    between atoms: C_9  and  C_10
REMARK   10  A    between atoms: C_10  and  C_11
REMARK   11  A    between atoms: C_11  and  C_12
REMARK   12  A    between atoms: N_14  and  C_15
REMARK   13  A    between atoms: C_15  and  C_16
REMARK   14  A    between atoms: C_16  and  C_17
REMARK   15  A    between atoms: C_17  and  N_18
REMARK   16  A    between atoms: N_18  and  C_19
REMARK   17  A    between atoms: N_18  and  C_20
REMARK                            x       y       z     vdW  Elec       q    Type
REMARK                         _______ _______ _______ _____ _____    ______ ____
ROOT
ATOM      1  C   UNL     1       9.977  -1.991  23.414  0.00  0.00    +0.096 C 
ENDROOT
BRANCH   1   2
ATOM      2  C   UNL     1       9.407  -3.144  24.215  0.00  0.00    +0.213 C 
ATOM      3  N   UNL     1       8.107  -2.937  24.621  0.00  0.00    -0.315 N 
ATOM      4  H   UNL     1       7.666  -2.046  24.426  0.00  0.00    +0.149 HD
ATOM      5  O   UNL     1      10.040  -4.156  24.501  0.00  0.00    -0.276 OA
BRANCH   3   6
ATOM      6  C   UNL     1       7.418  -3.905  25.445  0.00  0.00    +0.109 C 
BRANCH   6   7
ATOM      7  C   UNL     1       6.167  -4.459  24.764  0.00  0.00    +0.069 C 
BRANCH   7   8
ATOM      8  C   UNL     1       6.523  -5.216  23.489  0.00  0.00    +0.131 C 
BRANCH   8   9
ATOM      9  N   UNL     1       5.731  -4.859  22.245  0.00  0.00    +0.213 N 
ATOM     10  O   UNL     1       4.411  -5.197  22.477  0.00  0.00    -0.776 OA
ATOM     11  C   UNL     1       6.211  -5.634  21.050  0.00  0.00    +0.189 C 
ATOM     12  C   UNL     1       5.792  -3.387  21.958  0.00  0.00    +0.189 C 
ENDBRANCH   8   9
ENDBRANCH   7   8
ENDBRANCH   6   7
ENDBRANCH   3   6
ENDBRANCH   1   2
BRANCH   1  13
ATOM     13  C   UNL     1       8.922  -1.408  22.481  0.00  0.00    +0.009 C 
BRANCH  13  14
ATOM     14  C   UNL     1       9.519  -0.453  21.454  0.00  0.00    +0.000 C 
BRANCH  14  15
ATOM     15  C   UNL     1       9.047   0.972  21.738  0.00  0.00    +0.000 C 
BRANCH  15  16
ATOM     16  C   UNL     1      10.203   1.877  22.148  0.00  0.00    +0.000 C 
BRANCH  16  17
ATOM     17  C   UNL     1      10.243   2.043  23.665  0.00  0.00    +0.000 C 
BRANCH  17  18
ATOM     18  C   UNL     1       8.855   1.857  24.271  0.00  0.00    -0.000 C 
BRANCH  18  19
ATOM     19  C   UNL     1       8.439   3.083  25.082  0.00  0.00    -0.000 C 
BRANCH  19  20
ATOM     20  C   UNL     1       8.369   4.323  24.193  0.00  0.00    -0.000 C 
BRANCH  20  22
ATOM     21  C   UNL     1       9.942   6.201  23.636  0.00  0.00    +0.004 C 
ATOM     22  C   UNL     1       9.229   5.453  24.751  0.00  0.00    -0.003 C 
ENDBRANCH  20  22
ENDBRANCH  19  20
ENDBRANCH  18  19
ENDBRANCH  17  18
ENDBRANCH  16  17
ENDBRANCH  15  16
ENDBRANCH  14  15
ENDBRANCH  13  14
ENDBRANCH   1  13
TORSDOF 14
ENDMDL
MODEL 3
REMARK VINA RESULT:      -5.0      2.312      3.851
REMARK  Name = 
REMARK  17 active torsions:
REMARK  status: ('A' for Active; 'I' for Inactive)
REMARK    1  A    between atoms: C_1  and  C_2
REMARK    2  A    between atoms: C_2  and  C_3
REMARK    3  A    between atoms: C_3  and  C_4
REMARK    4  A    between atoms: C_4  and  C_5
REMARK    5  A    between atoms: C_5  and  C_6
REMARK    6  A    between atoms: C_6  and  C_7
REMARK    7  A    between atoms: C_7  and  C_8
REMARK    8  A    between atoms: C_8  and  C_9
REMARK    9  A    between atoms: C_9  and  C_10
REMARK   10  A    between atoms: C_10  and  C_11
REMARK   11  A    between atoms: C_11  and  C_12
REMARK   12  A    between atoms: N_14  and  C_15
REMARK   13  A    between atoms: C_15  and  C_16
REMARK   14  A    between atoms: C_16  and  C_17
REMARK   15  A    between atoms: C_17  and  N_18
REMARK   16  A    between atoms: N_18  and  C_19
REMARK   17  A    between atoms: N_18  and  C_20
REMARK                            x       y       z     vdW  Elec       q    Type
REMARK                         _______ _______ _______ _____ _____    ______ ____
ROOT
ATOM      1  C   UNL     1       9.593  -2.069  24.235  0.00  0.00    +0.096 C 
ENDROOT
BRANCH   1   2
ATOM      2  C   UNL     1       9.244  -3.471  24.693  0.00  0.00    +0.213 C 
ATOM      3  N   UNL     1       8.013  -3.554  25.306  0.00  0.00    -0.315 N 
ATOM      4  H   UNL     1       7.483  -2.706  25.463  0.00  0.00    +0.149 HD
ATOM      5  O   UNL     1       9.987  -4.438  24.558  0.00  0.00    -0.276 OA
BRANCH   3   6
ATOM      6  C   UNL     1       7.537  -4.803  25.859  0.00  0.00    +0.109 C 
BRANCH   6   7
ATOM      7  C   UNL     1       6.359  -5.374  25.070  0.00  0.00    +0.069 C 
BRANCH   7   8
ATOM      8  C   UNL     1       5.618  -4.276  24.315  0.00  0.00    +0.131 C 
BRANCH   8   9
ATOM      9  N   UNL     1       5.558  -4.413  22.805  0.00  0.00    +0.213 N 
ATOM     10  O   UNL     1       4.354  -5.013  22.486  0.00  0.00    -0.776 OA
ATOM     11  C   UNL     1       6.668  -5.285  22.289  0.00  0.00    +0.189 C 
ATOM     12  C   UNL     1       5.605  -3.073  22.129  0.00  0.00    +0.189 C 
ENDBRANCH   8   9
ENDBRANCH   7   8
ENDBRANCH   6   7
ENDBRANCH   3   6
ENDBRANCH   1   2
BRANCH   1  13
ATOM     13  C   UNL     1       8.953  -1.767  22.885  0.00  0.00    +0.009 C 
BRANCH  13  14
ATOM     14  C   UNL     1       9.913  -1.063  21.933  0.00  0.00    +0.000 C 
BRANCH  14  15
ATOM     15  C   UNL     1       9.298   0.254  21.460  0.00  0.00    +0.000 C 
BRANCH  15  16
ATOM     16  C   UNL     1      10.048   1.458  22.019  0.00  0.00    +0.000 C 
BRANCH  16  17
ATOM     17  C   UNL     1       9.074   2.465  22.624  0.00  0.00    +0.000 C 
BRANCH  17  18
ATOM     18  C   UNL     1       9.298   2.607  24.126  0.00  0.00    -0.000 C 
BRANCH  18  19
ATOM     19  C   UNL     1       8.673   1.441  24.890  0.00  0.00    -0.000 C 
BRANCH  19  20
ATOM     20  C   UNL     1       7.162   1.627  25.020  0.00  0.00    -0.000 C 
BRANCH  20  22
ATOM     21  C   UNL     1       5.952  -0.571  24.893  0.00  0.00    +0.004 C 
ATOM     22  C   UNL     1       6.405   0.656  24.119  0.00  0.00    -0.003 C 
ENDBRANCH  20  22
ENDBRANCH  19  20
ENDBRANCH  18  19
ENDBRANCH  17  18
ENDBRANCH  16  17
ENDBRANCH  15  16
ENDBRANCH  14  15
ENDBRANCH  13  14
ENDBRANCH   1  13
TORSDOF 14
ENDMDL
MODEL 4
REMARK VINA RESULT:      -5.0      2.062      2.517
REMARK  Name = 
REMARK  17 active torsions:
REMARK  status: ('A' for Active; 'I' for Inactive)
REMARK    1  A    between atoms: C_1  and  C_2
REMARK    2  A    between atoms: C_2  and  C_3
REMARK    3  A    between atoms: C_3  and  C_4
REMARK    4  A    between atoms: C_4  and  C_5
REMARK    5  A    between atoms: C_5  and  C_6
REMARK    6  A    between atoms: C_6  and  C_7
REMARK    7  A    between atoms: C_7  and  C_8
REMARK    8  A    between atoms: C_8  and  C_9
REMARK    9  A    between atoms: C_9  and  C_10
REMARK   10  A    between atoms: C_10  and  C_11
REMARK   11  A    between atoms: C_11  and  C_12
REMARK   12  A    between atoms: N_14  and  C_15
REMARK   13  A    between atoms: C_15  and  C_16
REMARK   14  A    between atoms: C_16  and  C_17
REMARK   15  A    between atoms: C_17  and  N_18
REMARK   16  A    between atoms: N_18  and  C_19
REMARK   17  A    between atoms: N_18  and  C_20
REMARK                            x       y       z     vdW  Elec       q    Type
REMARK                         _______ _______ _______ _____ _____    ______ ____
ROOT
ATOM      1  C   UNL     1       9.783  -0.653  21.775  0.00  0.00    +0.096 C 
ENDROOT
BRANCH   1   2
ATOM      2  C   UNL     1       9.789  -1.523  23.016  0.00  0.00    +0.213 C 
ATOM      3  N   UNL     1       9.022  -1.014  24.042  0.00  0.00    -0.315 N 
ATOM      4  H   UNL     1       8.585  -0.108  23.928  0.00  0.00    +0.149 HD
ATOM      5  O   UNL     1      10.429  -2.565  23.117  0.00  0.00    -0.276 OA
BRANCH   3   6
ATOM      6  C   UNL     1       8.955  -1.680  25.324  0.00  0.00    +0.109 C 
BRANCH   6   7
ATOM      7  C   UNL     1       7.656  -2.465  25.502  0.00  0.00    +0.069 C 
BRANCH   7   8
ATOM      8  C   UNL     1       7.856  -3.657  26.431  0.00  0.00    +0.131 C 
BRANCH   8   9
ATOM      9  N   UNL     1       7.849  -5.030  25.784  0.00  0.00    +0.213 N 
ATOM     10  O   UNL     1       7.509  -5.951  26.757  0.00  0.00    -0.776 OA
ATOM     11  C   UNL     1       9.206  -5.391  25.249  0.00  0.00    +0.189 C 
ATOM     12  C   UNL     1       6.828  -5.114  24.686  0.00  0.00    +0.189 C 
ENDBRANCH   8   9
ENDBRANCH   7   8
ENDBRANCH   6   7
ENDBRANCH   3   6
ENDBRANCH   1   2
BRANCH   1  13
ATOM     13  C   UNL     1       9.111   0.686  22.057  0.00  0.00    +0.009 C 
BRANCH  13  14
ATOM     14  C   UNL     1      10.114   1.828  22.155  0.00  0.00    +0.000 C 
BRANCH  14  15
ATOM     15  C   UNL     1      10.358   2.178  23.623  0.00  0.00    +0.000 C 
BRANCH  15  16
ATOM     16  C   UNL     1       9.194   2.965  24.214  0.00  0.00    +0.000 C 
BRANCH  16  17
ATOM     17  C   UNL     1       8.696   4.014  23.223  0.00  0.00    +0.000 C 
BRANCH  17  18
ATOM     18  C   UNL     1       8.587   5.383  23.886  0.00  0.00    -0.000 C 
BRANCH  18  19
ATOM     19  C   UNL     1       9.799   6.254  23.558  0.00  0.00    -0.000 C 
BRANCH  19  20
ATOM     20  C   UNL     1      10.865   6.129  24.645  0.00  0.00    -0.000 C 
BRANCH  20  22
ATOM     21  C   UNL     1      12.560   4.930  23.231  0.00  0.00    +0.004 C 
ATOM     22  C   UNL     1      12.270   6.176  24.052  0.00  0.00    -0.003 C 
ENDBRANCH  20  22
ENDBRANCH  19  20
ENDBRANCH  18  19
ENDBRANCH  17  18
ENDBRANCH  16  17
ENDBRANCH  15  16
ENDBRANCH  14  15
ENDBRANCH  13  14
ENDBRANCH   1  13
TORSDOF 14
ENDMDL
MODEL 5
REMARK VINA RESULT:      -4.9      2.747      4.455
REMARK  Name = 
REMARK  17 active torsions:
REMARK  status: ('A' for Active; 'I' for Inactive)
REMARK    1  A    between atoms: C_1  and  C_2
REMARK    2  A    between atoms: C_2  and  C_3
REMARK    3  A    between atoms: C_3  and  C_4
REMARK    4  A    between atoms: C_4  and  C_5
REMARK    5  A    between atoms: C_5  and  C_6
REMARK    6  A    between atoms: C_6  and  C_7
REMARK    7  A    between atoms: C_7  and  C_8
REMARK    8  A    between atoms: C_8  and  C_9
REMARK    9  A    between atoms: C_9  and  C_10
REMARK   10  A    between atoms: C_10  and  C_11
REMARK   11  A    between atoms: C_11  and  C_12
REMARK   12  A    between atoms: N_14  and  C_15
REMARK   13  A    between atoms: C_15  and  C_16
REMARK   14  A    between atoms: C_16  and  C_17
REMARK   15  A    between atoms: C_17  and  N_18
REMARK   16  A    between atoms: N_18  and  C_19
REMARK   17  A    between atoms: N_18  and  C_20
REMARK                            x       y       z     vdW  Elec       q    Type
REMARK                         _______ _______ _______ _____ _____    ______ ____
ROOT
ATOM      1  C   UNL     1       7.061  -3.439  22.388  0.00  0.00    +0.096 C 
ENDROOT
BRANCH   1   2
ATOM      2  C   UNL     1       7.567  -4.617  23.196  0.00  0.00    +0.213 C 
ATOM      3  N   UNL     1       7.870  -4.294  24.500  0.00  0.00    -0.315 N 
ATOM      4  H   UNL     1       7.803  -3.328  24.797  0.00  0.00    +0.149 HD
ATOM      5  O   UNL     1       7.719  -5.744  22.736  0.00  0.00    -0.276 OA
BRANCH   3   6
ATOM      6  C   UNL     1       8.421  -5.279  25.405  0.00  0.00    +0.109 C 
BRANCH   6   7
ATOM      7  C   UNL     1       7.707  -5.288  26.756  0.00  0.00    +0.069 C 
BRANCH   7   8
ATOM      8  C   UNL     1       6.325  -4.652  26.653  0.00  0.00    +0.131 C 
BRANCH   8   9
ATOM      9  N   UNL     1       5.142  -5.602  26.625  0.00  0.00    +0.213 N 
ATOM     10  O   UNL     1       5.592  -6.844  27.028  0.00  0.00    -0.776 OA
ATOM     11  C   UNL     1       4.578  -5.734  25.238  0.00  0.00    +0.189 C 
ATOM     12  C   UNL     1       4.065  -5.165  27.575  0.00  0.00    +0.189 C 
ENDBRANCH   8   9
ENDBRANCH   7   8
ENDBRANCH   6   7
ENDBRANCH   3   6
ENDBRANCH   1   2
BRANCH   1  13
ATOM     13  C   UNL     1       7.687  -2.139  22.880  0.00  0.00    +0.009 C 
BRANCH  13  14
ATOM     14  C   UNL     1       9.030  -1.855  22.216  0.00  0.00    +0.000 C 
BRANCH  14  15
ATOM     15  C   UNL     1      10.088  -1.582  23.285  0.00  0.00    +0.000 C 
BRANCH  15  16
ATOM     16  C   UNL     1       9.454  -1.236  24.628  0.00  0.00    +0.000 C 
BRANCH  16  17
ATOM     17  C   UNL     1       9.724   0.222  24.990  0.00  0.00    +0.000 C 
BRANCH  17  18
ATOM     18  C   UNL     1      10.909   0.770  24.201  0.00  0.00    -0.000 C 
BRANCH  18  19
ATOM     19  C   UNL     1      10.556   2.091  23.522  0.00  0.00    -0.000 C 
BRANCH  19  20
ATOM     20  C   UNL     1       9.864   1.844  22.183  0.00  0.00    -0.000 C 
BRANCH  20  22
ATOM     21  C   UNL     1       7.377   1.490  22.117  0.00  0.00    +0.004 C 
ATOM     22  C   UNL     1       8.496   2.519  22.132  0.00  0.00    -0.003 C 
ENDBRANCH  20  22
ENDBRANCH  19  20
ENDBRANCH  18  19
ENDBRANCH  17  18
ENDBRANCH  16  17
ENDBRANCH  15  16
ENDBRANCH  14  15
ENDBRANCH  13  14
ENDBRANCH   1  13
TORSDOF 14
ENDMDL
MODEL 6
REMARK VINA RESULT:      -4.9      2.376      3.487
REMARK  Name = 
REMARK  17 active torsions:
REMARK  status: ('A' for Active; 'I' for Inactive)
REMARK    1  A    between atoms: C_1  and  C_2
REMARK    2  A    between atoms: C_2  and  C_3
REMARK    3  A    between atoms: C_3  and  C_4
REMARK    4  A    between atoms: C_4  and  C_5
REMARK    5  A    between atoms: C_5  and  C_6
REMARK    6  A    between atoms: C_6  and  C_7
REMARK    7  A    between atoms: C_7  and  C_8
REMARK    8  A    between atoms: C_8  and  C_9
REMARK    9  A    between atoms: C_9  and  C_10
REMARK   10  A    between atoms: C_10  and  C_11
REMARK   11  A    between atoms: C_11  and  C_12
REMARK   12  A    between atoms: N_14  and  C_15
REMARK   13  A    between atoms: C_15  and  C_16
REMARK   14  A    between atoms: C_16  and  C_17
REMARK   15  A    between atoms: C_17  and  N_18
REMARK   16  A    between atoms: N_18  and  C_19
REMARK   17  A    between atoms: N_18  and  C_20
REMARK                            x       y       z     vdW  Elec       q    Type
REMARK                         _______ _______ _______ _____ _____    ______ ____
ROOT
ATOM      1  C   UNL     1       8.358  -0.454  25.077  0.00  0.00    +0.096 C 
ENDROOT
BRANCH   1   2
ATOM      2  C   UNL     1       7.944  -1.573  26.011  0.00  0.00    +0.213 C 
ATOM      3  N   UNL     1       8.631  -2.747  25.794  0.00  0.00    -0.315 N 
ATOM      4  H   UNL     1       9.282  -2.801  25.021  0.00  0.00    +0.149 HD
ATOM      5  O   UNL     1       7.068  -1.461  26.863  0.00  0.00    -0.276 OA
BRANCH   3   6
ATOM      6  C   UNL     1       8.328  -3.941  26.553  0.00  0.00    +0.109 C 
BRANCH   6   7
ATOM      7  C   UNL     1       8.271  -5.188  25.672  0.00  0.00    +0.069 C 
BRANCH   7   8
ATOM      8  C   UNL     1       8.333  -4.821  24.193  0.00  0.00    +0.131 C 
BRANCH   8   9
ATOM      9  N   UNL     1       7.009  -4.763  23.453  0.00  0.00    +0.213 N 
ATOM     10  O   UNL     1       6.674  -3.432  23.297  0.00  0.00    -0.776 OA
ATOM     11  C   UNL     1       5.916  -5.435  24.234  0.00  0.00    +0.189 C 
ATOM     12  C   UNL     1       7.116  -5.381  22.088  0.00  0.00    +0.189 C 
ENDBRANCH   8   9
ENDBRANCH   7   8
ENDBRANCH   6   7
ENDBRANCH   3   6
ENDBRANCH   1   2
BRANCH   1  13
ATOM     13  C   UNL     1       9.834  -0.118  25.259  0.00  0.00    +0.009 C 
BRANCH  13  14
ATOM     14  C   UNL     1      10.529   0.175  23.934  0.00  0.00    +0.000 C 
BRANCH  14  15
ATOM     15  C   UNL     1      10.118  -0.866  22.893  0.00  0.00    +0.000 C 
BRANCH  15  16
ATOM     16  C   UNL     1       9.728  -0.215  21.571  0.00  0.00    +0.000 C 
BRANCH  16  17
ATOM     17  C   UNL     1       9.556   1.292  21.744  0.00  0.00    +0.000 C 
BRANCH  17  18
ATOM     18  C   UNL     1       8.098   1.700  21.557  0.00  0.00    -0.000 C 
BRANCH  18  19
ATOM     19  C   UNL     1       7.553   2.390  22.806  0.00  0.00    -0.000 C 
BRANCH  19  20
ATOM     20  C   UNL     1       8.493   3.504  23.262  0.00  0.00    -0.000 C 
BRANCH  20  22
ATOM     21  C   UNL     1       7.668   3.755  25.622  0.00  0.00    +0.004 C 
ATOM     22  C   UNL     1       8.843   3.363  24.741  0.00  0.00    -0.003 C 
ENDBRANCH  20  22
ENDBRANCH  19  20
ENDBRANCH  18  19
ENDBRANCH  17  18
ENDBRANCH  16  17
ENDBRANCH  15  16
ENDBRANCH  14  15
ENDBRANCH  13  14
ENDBRANCH   1  13
TORSDOF 14
ENDMDL
MODEL 7
REMARK VINA RESULT:      -4.9      2.492      3.724
REMARK  Name = 
REMARK  17 active torsions:
REMARK  status: ('A' for Active; 'I' for Inactive)
REMARK    1  A    between atoms: C_1  and  C_2
REMARK    2  A    between atoms: C_2  and  C_3
REMARK    3  A    between atoms: C_3  and  C_4
REMARK    4  A    between atoms: C_4  and  C_5
REMARK    5  A    between atoms: C_5  and  C_6
REMARK    6  A    between atoms: C_6  and  C_7
REMARK    7  A    between atoms: C_7  and  C_8
REMARK    8  A    between atoms: C_8  and  C_9
REMARK    9  A    between atoms: C_9  and  C_10
REMARK   10  A    between atoms: C_10  and  C_11
REMARK   11  A    between atoms: C_11  and  C_12
REMARK   12  A    between atoms: N_14  and  C_15
REMARK   13  A    between atoms: C_15  and  C_16
REMARK   14  A    between atoms: C_16  and  C_17
REMARK   15  A    between atoms: C_17  and  N_18
REMARK   16  A    between atoms: N_18  and  C_19
REMARK   17  A    between atoms: N_18  and  C_20
REMARK                            x       y       z     vdW  Elec       q    Type
REMARK                         _______ _______ _______ _____ _____    ______ ____
ROOT
ATOM      1  C   UNL     1       9.764  -1.379  23.764  0.00  0.00    +0.096 C 
ENDROOT
BRANCH   1   2
ATOM      2  C   UNL     1       9.418  -2.726  24.367  0.00  0.00    +0.213 C 
ATOM      3  N   UNL     1       8.199  -2.739  25.008  0.00  0.00    -0.315 N 
ATOM      4  H   UNL     1       7.675  -1.877  25.089  0.00  0.00    +0.149 HD
ATOM      5  O   UNL     1      10.155  -3.705  24.316  0.00  0.00    -0.276 OA
BRANCH   3   6
ATOM      6  C   UNL     1       7.729  -3.923  25.693  0.00  0.00    +0.109 C 
BRANCH   6   7
ATOM      7  C   UNL     1       6.481  -4.514  25.037  0.00  0.00    +0.069 C 
BRANCH   7   8
ATOM      8  C   UNL     1       6.826  -5.219  23.730  0.00  0.00    +0.131 C 
BRANCH   8   9
ATOM      9  N   UNL     1       6.393  -4.527  22.451  0.00  0.00    +0.213 N 
ATOM     10  O   UNL     1       7.421  -3.693  22.056  0.00  0.00    -0.776 OA
ATOM     11  C   UNL     1       5.166  -3.688  22.672  0.00  0.00    +0.189 C 
ATOM     12  C   UNL     1       6.145  -5.516  21.349  0.00  0.00    +0.189 C 
ENDBRANCH   8   9
ENDBRANCH   7   8
ENDBRANCH   6   7
ENDBRANCH   3   6
ENDBRANCH   1   2
BRANCH   1  13
ATOM     13  C   UNL     1      10.017  -0.347  24.858  0.00  0.00    +0.009 C 
BRANCH  13  14
ATOM     14  C   UNL     1      10.944   0.772  24.396  0.00  0.00    +0.000 C 
BRANCH  14  15
ATOM     15  C   UNL     1      10.119   1.914  23.802  0.00  0.00    +0.000 C 
BRANCH  15  16
ATOM     16  C   UNL     1      10.167   1.909  22.278  0.00  0.00    +0.000 C 
BRANCH  16  17
ATOM     17  C   UNL     1       8.759   1.813  21.697  0.00  0.00    +0.000 C 
BRANCH  17  18
ATOM     18  C   UNL     1       7.707   1.891  22.799  0.00  0.00    -0.000 C 
BRANCH  18  19
ATOM     19  C   UNL     1       6.834   0.638  22.818  0.00  0.00    -0.000 C 
BRANCH  19  20
ATOM     20  C   UNL     1       6.392   0.307  24.241  0.00  0.00    -0.000 C 
BRANCH  20  22
ATOM     21  C   UNL     1       5.443   1.990  25.847  0.00  0.00    +0.004 C 
ATOM     22  C   UNL     1       6.708   1.451  25.200  0.00  0.00    -0.003 C 
ENDBRANCH  20  22
ENDBRANCH  19  20
ENDBRANCH  18  19
ENDBRANCH  17  18
ENDBRANCH  16  17
ENDBRANCH  15  16
ENDBRANCH  14  15
ENDBRANCH  13  14
ENDBRANCH   1  13
TORSDOF 14
ENDMDL
MODEL 8
REMARK VINA RESULT:      -4.9      2.707      4.540
REMARK  Name = 
REMARK  17 active torsions:
REMARK  status: ('A' for Active; 'I' for Inactive)
REMARK    1  A    between atoms: C_1  and  C_2
REMARK    2  A    between atoms: C_2  and  C_3
REMARK    3  A    between atoms: C_3  and  C_4
REMARK    4  A    between atoms: C_4  and  C_5
REMARK    5  A    between atoms: C_5  and  C_6
REMARK    6  A    between atoms: C_6  and  C_7
REMARK    7  A    between atoms: C_7  and  C_8
REMARK    8  A    between atoms: C_8  and  C_9
REMARK    9  A    between atoms: C_9  and  C_10
REMARK   10  A    between atoms: C_10  and  C_11
REMARK   11  A    between atoms: C_11  and  C_12
REMARK   12  A    between atoms: N_14  and  C_15
REMARK   13  A    between atoms: C_15  and  C_16
REMARK   14  A    between atoms: C_16  and  C_17
REMARK   15  A    between atoms: C_17  and  N_18
REMARK   16  A    between atoms: N_18  and  C_19
REMARK   17  A    between atoms: N_18  and  C_20
REMARK                            x       y       z     vdW  Elec       q    Type
REMARK                         _______ _______ _______ _____ _____    ______ ____
ROOT
ATOM      1  C   UNL     1       7.415  -2.492  22.469  0.00  0.00    +0.096 C 
ENDROOT
BRANCH   1   2
ATOM      2  C   UNL     1       6.399  -3.533  22.045  0.00  0.00    +0.213 C 
ATOM      3  N   UNL     1       6.527  -4.727  22.721  0.00  0.00    -0.315 N 
ATOM      4  H   UNL     1       7.293  -4.844  23.373  0.00  0.00    +0.149 HD
ATOM      5  O   UNL     1       5.559  -3.351  21.169  0.00  0.00    -0.276 OA
BRANCH   3   6
ATOM      6  C   UNL     1       5.680  -5.857  22.409  0.00  0.00    +0.109 C 
BRANCH   6   7
ATOM      7  C   UNL     1       4.457  -5.934  23.321  0.00  0.00    +0.069 C 
BRANCH   7   8
ATOM      8  C   UNL     1       4.758  -6.743  24.578  0.00  0.00    +0.131 C 
BRANCH   8   9
ATOM      9  N   UNL     1       5.159  -5.956  25.812  0.00  0.00    +0.213 N 
ATOM     10  O   UNL     1       6.516  -5.707  25.727  0.00  0.00    -0.776 OA
ATOM     11  C   UNL     1       4.903  -6.739  27.068  0.00  0.00    +0.189 C 
ATOM     12  C   UNL     1       4.446  -4.636  25.877  0.00  0.00    +0.189 C 
ENDBRANCH   8   9
ENDBRANCH   7   8
ENDBRANCH   6   7
ENDBRANCH   3   6
ENDBRANCH   1   2
BRANCH   1  13
ATOM     13  C   UNL     1       8.472  -3.108  23.379  0.00  0.00    +0.009 C 
BRANCH  13  14
ATOM     14  C   UNL     1       9.425  -2.064  23.950  0.00  0.00    +0.000 C 
BRANCH  14  15
ATOM     15  C   UNL     1       8.778  -1.375  25.151  0.00  0.00    +0.000 C 
BRANCH  15  16
ATOM     16  C   UNL     1       9.261   0.063  25.302  0.00  0.00    +0.000 C 
BRANCH  16  17
ATOM     17  C   UNL     1      10.664   0.222  24.724  0.00  0.00    +0.000 C 
BRANCH  17  18
ATOM     18  C   UNL     1      10.903   1.654  24.256  0.00  0.00    -0.000 C 
BRANCH  18  19
ATOM     19  C   UNL     1       9.834   2.093  23.256  0.00  0.00    -0.000 C 
BRANCH  19  20
ATOM     20  C   UNL     1       9.994   1.351  21.931  0.00  0.00    -0.000 C 
BRANCH  20  22
ATOM     21  C   UNL     1       7.529   1.816  21.783  0.00  0.00    +0.004 C 
ATOM     22  C   UNL     1       8.648   0.859  21.406  0.00  0.00    -0.003 C 
ENDBRANCH  20  22
ENDBRANCH  19  20
ENDBRANCH  18  19
ENDBRANCH  17  18
ENDBRANCH  16  17
ENDBRANCH  15  16
ENDBRANCH  14  15
ENDBRANCH  13  14
ENDBRANCH   1  13
TORSDOF 14
ENDMDL
MODEL 9
REMARK VINA RESULT:      -4.9      2.639      8.292
REMARK  Name = 
REMARK  17 active torsions:
REMARK  status: ('A' for Active; 'I' for Inactive)
REMARK    1  A    between atoms: C_1  and  C_2
REMARK    2  A    between atoms: C_2  and  C_3
REMARK    3  A    between atoms: C_3  and  C_4
REMARK    4  A    between atoms: C_4  and  C_5
REMARK    5  A    between atoms: C_5  and  C_6
REMARK    6  A    between atoms: C_6  and  C_7
REMARK    7  A    between atoms: C_7  and  C_8
REMARK    8  A    between atoms: C_8  and  C_9
REMARK    9  A    between atoms: C_9  and  C_10
REMARK   10  A    between atoms: C_10  and  C_11
REMARK   11  A    between atoms: C_11  and  C_12
REMARK   12  A    between atoms: N_14  and  C_15
REMARK   13  A    between atoms: C_15  and  C_16
REMARK   14  A    between atoms: C_16  and  C_17
REMARK   15  A    between atoms: C_17  and  N_18
REMARK   16  A    between atoms: N_18  and  C_19
REMARK   17  A    between atoms: N_18  and  C_20
REMARK                            x       y       z     vdW  Elec       q    Type
REMARK                         _______ _______ _______ _____ _____    ______ ____
ROOT
ATOM      1  C   UNL     1       8.523  -3.108  25.838  0.00  0.00    +0.096 C 
ENDROOT
BRANCH   1   2
ATOM      2  C   UNL     1       9.113  -2.899  24.458  0.00  0.00    +0.213 C 
ATOM      3  N   UNL     1       8.334  -2.102  23.647  0.00  0.00    -0.315 N 
ATOM      4  H   UNL     1       7.435  -1.783  23.986  0.00  0.00    +0.149 HD
ATOM      5  O   UNL     1      10.166  -3.404  24.081  0.00  0.00    -0.276 OA
BRANCH   3   6
ATOM      6  C   UNL     1       8.710  -1.839  22.275  0.00  0.00    +0.109 C 
BRANCH   6   7
ATOM      7  C   UNL     1       9.563  -0.578  22.140  0.00  0.00    +0.069 C 
BRANCH   7   8
ATOM      8  C   UNL     1       8.880   0.621  22.789  0.00  0.00    +0.131 C 
BRANCH   8   9
ATOM      9  N   UNL     1       9.432   1.074  24.128  0.00  0.00    +0.213 N 
ATOM     10  O   UNL     1       8.606   0.570  25.114  0.00  0.00    -0.776 OA
ATOM     11  C   UNL     1       9.436   2.573  24.239  0.00  0.00    +0.189 C 
ATOM     12  C   UNL     1      10.816   0.540  24.360  0.00  0.00    +0.189 C 
ENDBRANCH   8   9
ENDBRANCH   7   8
ENDBRANCH   6   7
ENDBRANCH   3   6
ENDBRANCH   1   2
BRANCH   1  13
ATOM     13  C   UNL     1       8.897  -4.483  26.381  0.00  0.00    +0.009 C 
BRANCH  13  14
ATOM     14  C   UNL     1       7.704  -5.209  26.991  0.00  0.00    +0.000 C 
BRANCH  14  15
ATOM     15  C   UNL     1       6.734  -5.629  25.887  0.00  0.00    +0.000 C 
BRANCH  15  16
ATOM     16  C   UNL     1       5.383  -6.048  26.454  0.00  0.00    +0.000 C 
BRANCH  16  17
ATOM     17  C   UNL     1       4.254  -5.271  25.783  0.00  0.00    +0.000 C 
BRANCH  17  18
ATOM     18  C   UNL     1       4.797  -4.062  25.028  0.00  0.00    -0.000 C 
BRANCH  18  19
ATOM     19  C   UNL     1       4.268  -4.021  23.596  0.00  0.00    -0.000 C 
BRANCH  19  20
ATOM     20  C   UNL     1       5.418  -4.060  22.592  0.00  0.00    -0.000 C 
BRANCH  20  22
ATOM     21  C   UNL     1       7.309  -5.679  22.252  0.00  0.00    +0.004 C 
ATOM     22  C   UNL     1       5.800  -5.495  22.241  0.00  0.00    -0.003 C 
ENDBRANCH  20  22
ENDBRANCH  19  20
ENDBRANCH  18  19
ENDBRANCH  17  18
ENDBRANCH  16  17
ENDBRANCH  15  16
ENDBRANCH  14  15
ENDBRANCH  13  14
ENDBRANCH   1  13
TORSDOF 14
ENDMDL
