MODEL 1
REMARK VINA RESULT:      -7.5      0.000      0.000
REMARK  Name = 
REMARK  9 active torsions:
REMARK  status: ('A' for Active; 'I' for Inactive)
REMARK    1  A    between atoms: C_1  and  O_2
REMARK    2  A    between atoms: O_2  and  N_3
REMARK    3  A    between atoms: C_4  and  C_5
REMARK    4  A    between atoms: C_4  and  C_29
REMARK    5  A    between atoms: N_7  and  CA_8
REMARK    6  A    between atoms: C_17  and  C_18
REMARK    7  A    between atoms: C_18  and  N_19
REMARK    8  A    between atoms: N_19  and  C_20
REMARK    9  A    between atoms: CA_25  and  C_26
REMARK                            x       y       z     vdW  Elec       q    Type
REMARK                         _______ _______ _______ _____ _____    ______ ____
ROOT
ATOM      1  CA  UNL     1       9.898  -0.540  23.744  0.00  0.00    +0.191 C 
ATOM      2  C   UNL     1       9.500  -1.597  24.817  0.00  0.00    +0.168 C 
ATOM      3  S   UNL     1       8.365  -1.094  26.130  0.00  0.00    -0.131 S 
ATOM      4  C   UNL     1       7.823  -2.778  26.453  0.00  0.00    +0.109 C 
ATOM      5  C   UNL     1       7.426  -3.598  25.255  0.00  0.00    +0.008 C 
ATOM      6  CA  UNL     1       7.887  -3.320  24.003  0.00  0.00    +0.065 C 
ATOM      7  N   UNL     1       8.710  -2.243  23.792  0.00  0.00    -0.253 N 
ATOM      8  C   UNL     1       9.126  -1.486  22.755  0.00  0.00    +0.244 C 
ATOM      9  O   UNL     1       8.845  -1.449  21.576  0.00  0.00    -0.273 OA
ENDROOT
BRANCH   1  11
ATOM     10  C   UNL     1       9.606   1.823  22.926  0.00  0.00    +0.268 C 
ATOM     11  N   UNL     1       9.318   0.839  23.857  0.00  0.00    -0.296 N 
ATOM     12  H   UNL     1       9.059   1.167  24.787  0.00  0.00    +0.150 HD
ATOM     13  O   UNL     1      10.171   1.591  21.862  0.00  0.00    -0.268 OA
BRANCH  10  15
ATOM     14  N   UNL     1       8.057   3.718  23.537  0.00  0.00    -0.078 NA
ATOM     15  C   UNL     1       9.266   3.263  23.365  0.00  0.00    +0.190 C 
BRANCH  15  16
ATOM     16  C   UNL     1      10.342   4.236  23.606  0.00  0.00    +0.107 A 
ATOM     17  N   UNL     1      11.654   3.990  23.193  0.00  0.00    -0.223 NA
ATOM     18  C   UNL     1      12.428   5.004  23.490  0.00  0.00    +0.156 A 
ATOM     19  N   UNL     1      13.726   5.057  23.157  0.00  0.00    -0.338 N 
ATOM     20  H   UNL     1      14.173   4.187  22.884  0.00  0.00    +0.144 HD
ATOM     21  H   UNL     1      14.332   5.722  23.621  0.00  0.00    +0.144 HD
ATOM     22  S   UNL     1      11.664   6.290  24.331  0.00  0.00    -0.060 S 
ATOM     23  C   UNL     1      10.176   5.448  24.254  0.00  0.00    +0.078 A 
ENDBRANCH  15  16
BRANCH  14  25
ATOM     24  C   UNL     1       6.199   3.222  22.293  0.00  0.00    +0.313 C 
ATOM     25  O   UNL     1       7.079   2.741  23.302  0.00  0.00    -0.396 OA
ENDBRANCH  14  25
ENDBRANCH  10  15
ENDBRANCH   1  11
BRANCH   6  26
ATOM     26  C   UNL     1       7.538  -4.257  22.784  0.00  0.00    +0.086 C 
ATOM     27  OXT UNL     1       6.562  -3.835  22.086  0.00  0.00    -0.543 OA
ATOM     28  O   UNL     1       8.130  -5.362  22.785  0.00  0.00    -0.543 OA
ENDBRANCH   6  26
BRANCH   5  29
ATOM     29  C   UNL     1       6.605  -4.843  25.585  0.00  0.00    +0.168 C 
BRANCH  29  30
ATOM     30  N   UNL     1       5.033  -4.806  25.464  0.00  0.00    +0.244 N 
ATOM     31  C   UNL     1       4.612  -5.798  24.357  0.00  0.00    +0.133 C 
ATOM     32  C   UNL     1       4.240  -7.096  25.086  0.00  0.00    +0.056 C 
ATOM     33  C   UNL     1       4.435  -6.823  26.569  0.00  0.00    +0.056 C 
ATOM     34  C   UNL     1       4.224  -5.329  26.637  0.00  0.00    +0.133 C 
ATOM     35  C   UNL     1       4.624  -3.387  25.093  0.00  0.00    +0.193 C 
ENDBRANCH  29  30
ENDBRANCH   5  29
TORSDOF 7
ENDMDL
MODEL 2
REMARK VINA RESULT:      -7.3      3.136      9.313
REMARK  Name = 
REMARK  9 active torsions:
REMARK  status: ('A' for Active; 'I' for Inactive)
REMARK    1  A    between atoms: C_1  and  O_2
REMARK    2  A    between atoms: O_2  and  N_3
REMARK    3  A    between atoms: C_4  and  C_5
REMARK    4  A    between atoms: C_4  and  C_29
REMARK    5  A    between atoms: N_7  and  CA_8
REMARK    6  A    between atoms: C_17  and  C_18
REMARK    7  A    between atoms: C_18  and  N_19
REMARK    8  A    between atoms: N_19  and  C_20
REMARK    9  A    between atoms: CA_25  and  C_26
REMARK                            x       y       z     vdW  Elec       q    Type
REMARK                         _______ _______ _______ _____ _____    ______ ____
ROOT
ATOM      1  CA  UNL     1       5.414  -4.314  23.283  0.00  0.00    +0.191 C 
ATOM      2  C   UNL     1       5.628  -2.785  23.496  0.00  0.00    +0.168 C 
ATOM      3  S   UNL     1       5.245  -2.087  25.118  0.00  0.00    -0.131 S 
ATOM      4  C   UNL     1       6.335  -0.676  24.887  0.00  0.00    +0.109 C 
ATOM      5  C   UNL     1       7.727  -0.974  24.397  0.00  0.00    +0.008 C 
ATOM      6  CA  UNL     1       8.022  -2.111  23.707  0.00  0.00    +0.065 C 
ATOM      7  N   UNL     1       7.050  -3.048  23.468  0.00  0.00    -0.253 N 
ATOM      8  C   UNL     1       6.976  -4.349  23.114  0.00  0.00    +0.244 C 
ATOM      9  O   UNL     1       7.800  -5.220  22.937  0.00  0.00    -0.273 OA
ENDROOT
BRANCH   1  11
ATOM     10  C   UNL     1       4.767  -6.501  24.349  0.00  0.00    +0.268 C 
ATOM     11  N   UNL     1       4.901  -5.126  24.436  0.00  0.00    -0.296 N 
ATOM     12  H   UNL     1       4.290  -4.660  25.106  0.00  0.00    +0.150 HD
ATOM     13  O   UNL     1       5.238  -7.161  23.428  0.00  0.00    -0.268 OA
BRANCH  10  15
ATOM     14  N   UNL     1       2.876  -7.937  25.201  0.00  0.00    -0.078 NA
ATOM     15  C   UNL     1       3.886  -7.147  25.439  0.00  0.00    +0.190 C 
BRANCH  15  16
ATOM     16  C   UNL     1       4.149  -6.876  26.860  0.00  0.00    +0.107 A 
ATOM     17  N   UNL     1       5.391  -7.153  27.437  0.00  0.00    -0.223 NA
ATOM     18  C   UNL     1       5.400  -6.806  28.700  0.00  0.00    +0.156 A 
ATOM     19  N   UNL     1       6.485  -6.910  29.481  0.00  0.00    -0.338 N 
ATOM     20  H   UNL     1       7.244  -7.498  29.149  0.00  0.00    +0.144 HD
ATOM     21  H   UNL     1       6.379  -6.877  30.487  0.00  0.00    +0.144 HD
ATOM     22  S   UNL     1       3.919  -6.183  29.301  0.00  0.00    -0.060 S 
ATOM     23  C   UNL     1       3.225  -6.349  27.745  0.00  0.00    +0.078 A 
ENDBRANCH  15  16
BRANCH  14  25
ATOM     24  C   UNL     1       1.288  -8.286  23.589  0.00  0.00    +0.313 C 
ATOM     25  O   UNL     1       2.684  -8.163  23.832  0.00  0.00    -0.396 OA
ENDBRANCH  14  25
ENDBRANCH  10  15
ENDBRANCH   1  11
BRANCH   6  26
ATOM     26  C   UNL     1       9.465  -2.348  23.117  0.00  0.00    +0.086 C 
ATOM     27  OXT UNL     1       9.566  -2.039  21.888  0.00  0.00    -0.543 OA
ATOM     28  O   UNL     1      10.245  -2.976  23.873  0.00  0.00    -0.543 OA
ENDBRANCH   6  26
BRANCH   5  29
ATOM     29  C   UNL     1       8.725   0.165  24.599  0.00  0.00    +0.168 C 
BRANCH  29  30
ATOM     30  N   UNL     1       8.460   1.571  23.935  0.00  0.00    +0.244 N 
ATOM     31  C   UNL     1       9.825   2.183  23.545  0.00  0.00    +0.133 C 
ATOM     32  C   UNL     1      10.022   1.838  22.062  0.00  0.00    +0.056 C 
ATOM     33  C   UNL     1       8.785   1.066  21.635  0.00  0.00    +0.056 C 
ATOM     34  C   UNL     1       7.746   1.594  22.596  0.00  0.00    +0.133 C 
ATOM     35  C   UNL     1       7.755   2.450  24.959  0.00  0.00    +0.193 C 
ENDBRANCH  29  30
ENDBRANCH   5  29
TORSDOF 7
ENDMDL
MODEL 3
REMARK VINA RESULT:      -7.1      2.904      4.482
REMARK  Name = 
REMARK  9 active torsions:
REMARK  status: ('A' for Active; 'I' for Inactive)
REMARK    1  A    between atoms: C_1  and  O_2
REMARK    2  A    between atoms: O_2  and  N_3
REMARK    3  A    between atoms: C_4  and  C_5
REMARK    4  A    between atoms: C_4  and  C_29
REMARK    5  A    between atoms: N_7  and  CA_8
REMARK    6  A    between atoms: C_17  and  C_18
REMARK    7  A    between atoms: C_18  and  N_19
REMARK    8  A    between atoms: N_19  and  C_20
REMARK    9  A    between atoms: CA_25  and  C_26
REMARK                            x       y       z     vdW  Elec       q    Type
REMARK                         _______ _______ _______ _____ _____    ______ ____
ROOT
ATOM      1  CA  UNL     1       9.037   1.800  25.175  0.00  0.00    +0.191 C 
ATOM      2  C   UNL     1       7.970   0.709  24.857  0.00  0.00    +0.168 C 
ATOM      3  S   UNL     1       6.721   1.077  23.605  0.00  0.00    -0.131 S 
ATOM      4  C   UNL     1       6.403  -0.659  23.258  0.00  0.00    +0.109 C 
ATOM      5  C   UNL     1       7.609  -1.530  23.026  0.00  0.00    +0.008 C 
ATOM      6  CA  UNL     1       8.841  -1.205  23.511  0.00  0.00    +0.065 C 
ATOM      7  N   UNL     1       9.024  -0.036  24.204  0.00  0.00    -0.253 N 
ATOM      8  C   UNL     1      10.050   0.760  24.575  0.00  0.00    +0.244 C 
ATOM      9  O   UNL     1      11.241   0.754  24.352  0.00  0.00    -0.273 OA
ENDROOT
BRANCH   1  11
ATOM     10  C   UNL     1       8.424   4.235  24.997  0.00  0.00    +0.268 C 
ATOM     11  N   UNL     1       8.969   3.097  24.426  0.00  0.00    -0.296 N 
ATOM     12  H   UNL     1       8.942   3.053  23.407  0.00  0.00    +0.150 HD
ATOM     13  O   UNL     1       8.155   4.319  26.191  0.00  0.00    -0.268 OA
BRANCH  10  15
ATOM     14  N   UNL     1       8.949   6.095  23.376  0.00  0.00    -0.078 NA
ATOM     15  C   UNL     1       8.072   5.365  24.006  0.00  0.00    +0.190 C 
BRANCH  15  16
ATOM     16  C   UNL     1       6.666   5.691  23.726  0.00  0.00    +0.107 A 
ATOM     17  N   UNL     1       5.910   4.942  22.821  0.00  0.00    -0.223 NA
ATOM     18  C   UNL     1       4.684   5.400  22.755  0.00  0.00    +0.156 A 
ATOM     19  N   UNL     1       3.729   4.832  22.005  0.00  0.00    -0.338 N 
ATOM     20  H   UNL     1       4.027   4.180  21.285  0.00  0.00    +0.144 HD
ATOM     21  H   UNL     1       2.891   5.356  21.785  0.00  0.00    +0.144 HD
ATOM     22  S   UNL     1       4.365   6.784  23.717  0.00  0.00    -0.060 S 
ATOM     23  C   UNL     1       5.973   6.744  24.300  0.00  0.00    +0.078 A 
ENDBRANCH  15  16
BRANCH  14  25
ATOM     24  C   UNL     1      10.767   6.622  24.664  0.00  0.00    +0.313 C 
ATOM     25  O   UNL     1      10.267   5.729  23.676  0.00  0.00    -0.396 OA
ENDBRANCH  14  25
ENDBRANCH  10  15
ENDBRANCH   1  11
BRANCH   6  26
ATOM     26  C   UNL     1      10.063  -2.186  23.340  0.00  0.00    +0.086 C 
ATOM     27  OXT UNL     1      10.761  -1.948  22.304  0.00  0.00    -0.543 OA
ATOM     28  O   UNL     1      10.066  -3.163  24.126  0.00  0.00    -0.543 OA
ENDBRANCH   6  26
BRANCH   5  29
ATOM     29  C   UNL     1       7.304  -2.864  22.348  0.00  0.00    +0.168 C 
BRANCH  29  30
ATOM     30  N   UNL     1       6.776  -4.080  23.204  0.00  0.00    +0.244 N 
ATOM     31  C   UNL     1       5.423  -4.533  22.612  0.00  0.00    +0.133 C 
ATOM     32  C   UNL     1       5.754  -5.704  21.676  0.00  0.00    +0.056 C 
ATOM     33  C   UNL     1       7.258  -5.906  21.761  0.00  0.00    +0.056 C 
ATOM     34  C   UNL     1       7.562  -5.377  23.143  0.00  0.00    +0.133 C 
ATOM     35  C   UNL     1       6.598  -3.603  24.639  0.00  0.00    +0.193 C 
ENDBRANCH  29  30
ENDBRANCH   5  29
TORSDOF 7
ENDMDL
MODEL 4
REMARK VINA RESULT:      -7.1      1.738      3.144
REMARK  Name = 
REMARK  9 active torsions:
REMARK  status: ('A' for Active; 'I' for Inactive)
REMARK    1  A    between atoms: C_1  and  O_2
REMARK    2  A    between atoms: O_2  and  N_3
REMARK    3  A    between atoms: C_4  and  C_5
REMARK    4  A    between atoms: C_4  and  C_29
REMARK    5  A    between atoms: N_7  and  CA_8
REMARK    6  A    between atoms: C_17  and  C_18
REMARK    7  A    between atoms: C_18  and  N_19
REMARK    8  A    between atoms: N_19  and  C_20
REMARK    9  A    between atoms: CA_25  and  C_26
REMARK                            x       y       z     vdW  Elec       q    Type
REMARK                         _______ _______ _______ _____ _____    ______ ____
ROOT
ATOM      1  CA  UNL     1       9.912  -0.729  23.546  0.00  0.00    +0.191 C 
ATOM      2  C   UNL     1       9.655  -1.767  24.680  0.00  0.00    +0.168 C 
ATOM      3  S   UNL     1       8.623  -1.266  26.076  0.00  0.00    -0.131 S 
ATOM      4  C   UNL     1       8.179  -2.958  26.493  0.00  0.00    +0.109 C 
ATOM      5  C   UNL     1       7.709  -3.829  25.358  0.00  0.00    +0.008 C 
ATOM      6  CA  UNL     1       8.044  -3.572  24.063  0.00  0.00    +0.065 C 
ATOM      7  N   UNL     1       8.801  -2.473  23.749  0.00  0.00    -0.253 N 
ATOM      8  C   UNL     1       9.092  -1.733  22.657  0.00  0.00    +0.244 C 
ATOM      9  O   UNL     1       8.705  -1.743  21.509  0.00  0.00    -0.273 OA
ENDROOT
BRANCH   1  11
ATOM     10  C   UNL     1       9.544   1.630  22.750  0.00  0.00    +0.268 C 
ATOM     11  N   UNL     1       9.291   0.630  23.674  0.00  0.00    -0.296 N 
ATOM     12  H   UNL     1       9.027   0.942  24.608  0.00  0.00    +0.150 HD
ATOM     13  O   UNL     1      10.111   1.424  21.681  0.00  0.00    -0.268 OA
BRANCH  10  15
ATOM     14  N   UNL     1      10.003   3.927  23.686  0.00  0.00    -0.078 NA
ATOM     15  C   UNL     1       9.163   3.055  23.203  0.00  0.00    +0.190 C 
BRANCH  15  16
ATOM     16  C   UNL     1       7.768   3.510  23.118  0.00  0.00    +0.107 A 
ATOM     17  N   UNL     1       6.704   2.604  23.124  0.00  0.00    -0.223 NA
ATOM     18  C   UNL     1       5.559   3.238  23.066  0.00  0.00    +0.156 A 
ATOM     19  N   UNL     1       4.373   2.614  23.115  0.00  0.00    -0.338 N 
ATOM     20  H   UNL     1       4.366   1.612  22.945  0.00  0.00    +0.144 HD
ATOM     21  H   UNL     1       3.540   3.103  22.813  0.00  0.00    +0.144 HD
ATOM     22  S   UNL     1       5.670   4.945  22.942  0.00  0.00    -0.060 S 
ATOM     23  C   UNL     1       7.376   4.834  23.014  0.00  0.00    +0.078 A 
ENDBRANCH  15  16
BRANCH  14  25
ATOM     24  C   UNL     1      12.199   4.489  23.359  0.00  0.00    +0.313 C 
ATOM     25  O   UNL     1      11.316   3.438  23.732  0.00  0.00    -0.396 OA
ENDBRANCH  14  25
ENDBRANCH  10  15
ENDBRANCH   1  11
BRANCH   6  26
ATOM     26  C   UNL     1       7.623  -4.558  22.907  0.00  0.00    +0.086 C 
ATOM     27  OXT UNL     1       6.590  -4.179  22.270  0.00  0.00    -0.543 OA
ATOM     28  O   UNL     1       8.237  -5.652  22.900  0.00  0.00    -0.543 OA
ENDBRANCH   6  26
BRANCH   5  29
ATOM     29  C   UNL     1       6.970  -5.092  25.796  0.00  0.00    +0.168 C 
BRANCH  29  30
ATOM     30  N   UNL     1       5.477  -4.999  26.295  0.00  0.00    +0.244 N 
ATOM     31  C   UNL     1       4.938  -6.436  26.470  0.00  0.00    +0.133 C 
ATOM     32  C   UNL     1       5.115  -6.764  27.960  0.00  0.00    +0.056 C 
ATOM     33  C   UNL     1       5.725  -5.527  28.599  0.00  0.00    +0.056 C 
ATOM     34  C   UNL     1       5.233  -4.433  27.682  0.00  0.00    +0.133 C 
ATOM     35  C   UNL     1       4.673  -4.253  25.239  0.00  0.00    +0.193 C 
ENDBRANCH  29  30
ENDBRANCH   5  29
TORSDOF 7
ENDMDL
MODEL 5
REMARK VINA RESULT:      -7.1      1.944      2.565
REMARK  Name = 
REMARK  9 active torsions:
REMARK  status: ('A' for Active; 'I' for Inactive)
REMARK    1  A    between atoms: C_1  and  O_2
REMARK    2  A    between atoms: O_2  and  N_3
REMARK    3  A    between atoms: C_4  and  C_5
REMARK    4  A    between atoms: C_4  and  C_29
REMARK    5  A    between atoms: N_7  and  CA_8
REMARK    6  A    between atoms: C_17  and  C_18
REMARK    7  A    between atoms: C_18  and  N_19
REMARK    8  A    between atoms: N_19  and  C_20
REMARK    9  A    between atoms: CA_25  and  C_26
REMARK                            x       y       z     vdW  Elec       q    Type
REMARK                         _______ _______ _______ _____ _____    ______ ____
ROOT
ATOM      1  CA  UNL     1       9.260  -0.968  24.213  0.00  0.00    +0.191 C 
ATOM      2  C   UNL     1       8.800  -2.074  25.211  0.00  0.00    +0.168 C 
ATOM      3  S   UNL     1       7.462  -1.684  26.360  0.00  0.00    -0.131 S 
ATOM      4  C   UNL     1       7.010  -3.409  26.587  0.00  0.00    +0.109 C 
ATOM      5  C   UNL     1       6.844  -4.231  25.337  0.00  0.00    +0.008 C 
ATOM      6  CA  UNL     1       7.449  -3.893  24.164  0.00  0.00    +0.065 C 
ATOM      7  N   UNL     1       8.209  -2.755  24.080  0.00  0.00    -0.253 N 
ATOM      8  C   UNL     1       8.704  -1.948  23.118  0.00  0.00    +0.244 C 
ATOM      9  O   UNL     1       8.585  -1.907  21.912  0.00  0.00    -0.273 OA
ENDROOT
BRANCH   1  11
ATOM     10  C   UNL     1       9.261   1.530  24.526  0.00  0.00    +0.268 C 
ATOM     11  N   UNL     1       8.567   0.361  24.260  0.00  0.00    -0.296 N 
ATOM     12  H   UNL     1       7.575   0.368  24.497  0.00  0.00    +0.150 HD
ATOM     13  O   UNL     1      10.487   1.590  24.537  0.00  0.00    -0.268 OA
BRANCH  10  15
ATOM     14  N   UNL     1       7.498   2.730  25.872  0.00  0.00    -0.078 NA
ATOM     15  C   UNL     1       8.388   2.739  24.919  0.00  0.00    +0.190 C 
BRANCH  15  16
ATOM     16  C   UNL     1       8.516   4.012  24.195  0.00  0.00    +0.107 A 
ATOM     17  N   UNL     1       7.770   4.274  23.043  0.00  0.00    -0.223 NA
ATOM     18  C   UNL     1       8.031   5.474  22.588  0.00  0.00    +0.156 A 
ATOM     19  N   UNL     1       7.412   6.005  21.524  0.00  0.00    -0.338 N 
ATOM     20  H   UNL     1       6.907   5.370  20.913  0.00  0.00    +0.144 HD
ATOM     21  H   UNL     1       7.817   6.809  21.062  0.00  0.00    +0.144 HD
ATOM     22  S   UNL     1       9.220   6.348  23.462  0.00  0.00    -0.060 S 
ATOM     23  C   UNL     1       9.368   5.041  24.557  0.00  0.00    +0.078 A 
ENDBRANCH  15  16
BRANCH  14  25
ATOM     24  C   UNL     1       6.917   1.711  27.839  0.00  0.00    +0.313 C 
ATOM     25  O   UNL     1       7.430   1.494  26.530  0.00  0.00    -0.396 OA
ENDBRANCH  14  25
ENDBRANCH  10  15
ENDBRANCH   1  11
BRANCH   6  26
ATOM     26  C   UNL     1       7.342  -4.828  22.899  0.00  0.00    +0.086 C 
ATOM     27  OXT UNL     1       8.226  -5.741  22.868  0.00  0.00    -0.543 OA
ATOM     28  O   UNL     1       6.538  -4.433  22.020  0.00  0.00    -0.543 OA
ENDBRANCH   6  26
BRANCH   5  29
ATOM     29  C   UNL     1       6.082  -5.540  25.538  0.00  0.00    +0.168 C 
BRANCH  29  30
ATOM     30  N   UNL     1       4.515  -5.521  25.713  0.00  0.00    +0.244 N 
ATOM     31  C   UNL     1       3.961  -4.295  24.953  0.00  0.00    +0.133 C 
ATOM     32  C   UNL     1       3.516  -4.827  23.583  0.00  0.00    +0.056 C 
ATOM     33  C   UNL     1       3.802  -6.320  23.591  0.00  0.00    +0.056 C 
ATOM     34  C   UNL     1       3.721  -6.640  25.065  0.00  0.00    +0.133 C 
ATOM     35  C   UNL     1       4.209  -5.409  27.200  0.00  0.00    +0.193 C 
ENDBRANCH  29  30
ENDBRANCH   5  29
TORSDOF 7
ENDMDL
MODEL 6
REMARK VINA RESULT:      -7.0      2.561      9.211
REMARK  Name = 
REMARK  9 active torsions:
REMARK  status: ('A' for Active; 'I' for Inactive)
REMARK    1  A    between atoms: C_1  and  O_2
REMARK    2  A    between atoms: O_2  and  N_3
REMARK    3  A    between atoms: C_4  and  C_5
REMARK    4  A    between atoms: C_4  and  C_29
REMARK    5  A    between atoms: N_7  and  CA_8
REMARK    6  A    between atoms: C_17  and  C_18
REMARK    7  A    between atoms: C_18  and  N_19
REMARK    8  A    between atoms: N_19  and  C_20
REMARK    9  A    between atoms: CA_25  and  C_26
REMARK                            x       y       z     vdW  Elec       q    Type
REMARK                         _______ _______ _______ _____ _____    ______ ____
ROOT
ATOM      1  CA  UNL     1       7.413  -1.870  22.699  0.00  0.00    +0.191 C 
ATOM      2  C   UNL     1       6.925  -0.450  23.119  0.00  0.00    +0.168 C 
ATOM      3  S   UNL     1       6.153  -0.260  24.742  0.00  0.00    -0.131 S 
ATOM      4  C   UNL     1       6.536   1.494  24.837  0.00  0.00    +0.109 C 
ATOM      5  C   UNL     1       7.953   1.892  24.518  0.00  0.00    +0.008 C 
ATOM      6  CA  UNL     1       8.765   1.116  23.747  0.00  0.00    +0.065 C 
ATOM      7  N   UNL     1       8.318  -0.087  23.263  0.00  0.00    -0.253 N 
ATOM      8  C   UNL     1       8.843  -1.220  22.750  0.00  0.00    +0.244 C 
ATOM      9  O   UNL     1       9.975  -1.623  22.590  0.00  0.00    -0.273 OA
ENDROOT
BRANCH   1  11
ATOM     10  C   UNL     1       7.008  -4.298  23.222  0.00  0.00    +0.268 C 
ATOM     11  N   UNL     1       7.217  -3.002  23.662  0.00  0.00    -0.296 N 
ATOM     12  H   UNL     1       6.840  -2.778  24.583  0.00  0.00    +0.150 HD
ATOM     13  O   UNL     1       7.171  -4.641  22.055  0.00  0.00    -0.268 OA
BRANCH  10  15
ATOM     14  N   UNL     1       7.102  -5.679  25.331  0.00  0.00    -0.078 NA
ATOM     15  C   UNL     1       6.447  -5.271  24.280  0.00  0.00    +0.190 C 
BRANCH  15  16
ATOM     16  C   UNL     1       5.089  -5.817  24.137  0.00  0.00    +0.107 A 
ATOM     17  N   UNL     1       4.664  -6.918  24.884  0.00  0.00    -0.223 NA
ATOM     18  C   UNL     1       3.416  -7.207  24.609  0.00  0.00    +0.156 A 
ATOM     19  N   UNL     1       2.737  -8.185  25.226  0.00  0.00    -0.338 N 
ATOM     20  H   UNL     1       3.277  -8.874  25.742  0.00  0.00    +0.144 HD
ATOM     21  H   UNL     1       1.883  -8.536  24.812  0.00  0.00    +0.144 HD
ATOM     22  S   UNL     1       2.684  -6.229  23.404  0.00  0.00    -0.060 S 
ATOM     23  C   UNL     1       4.130  -5.323  23.270  0.00  0.00    +0.078 A 
ENDBRANCH  15  16
BRANCH  14  25
ATOM     24  C   UNL     1       8.541  -4.554  26.713  0.00  0.00    +0.313 C 
ATOM     25  O   UNL     1       8.382  -5.116  25.416  0.00  0.00    -0.396 OA
ENDBRANCH  14  25
ENDBRANCH  10  15
ENDBRANCH   1  11
BRANCH   6  26
ATOM     26  C   UNL     1      10.208   1.606  23.344  0.00  0.00    +0.086 C 
ATOM     27  OXT UNL     1      10.302   1.957  22.126  0.00  0.00    -0.543 OA
ATOM     28  O   UNL     1      11.093   1.404  24.211  0.00  0.00    -0.543 OA
ENDBRANCH   6  26
BRANCH   5  29
ATOM     29  C   UNL     1       8.338   3.291  24.994  0.00  0.00    +0.168 C 
BRANCH  29  30
ATOM     30  N   UNL     1       8.224   4.517  24.008  0.00  0.00    +0.244 N 
ATOM     31  C   UNL     1       7.553   4.027  22.706  0.00  0.00    +0.133 C 
ATOM     32  C   UNL     1       6.064   4.372  22.853  0.00  0.00    +0.056 C 
ATOM     33  C   UNL     1       5.917   5.055  24.203  0.00  0.00    +0.056 C 
ATOM     34  C   UNL     1       7.292   5.650  24.399  0.00  0.00    +0.133 C 
ATOM     35  C   UNL     1       9.631   5.026  23.725  0.00  0.00    +0.193 C 
ENDBRANCH  29  30
ENDBRANCH   5  29
TORSDOF 7
ENDMDL
MODEL 7
REMARK VINA RESULT:      -6.9      1.739      2.163
REMARK  Name = 
REMARK  9 active torsions:
REMARK  status: ('A' for Active; 'I' for Inactive)
REMARK    1  A    between atoms: C_1  and  O_2
REMARK    2  A    between atoms: O_2  and  N_3
REMARK    3  A    between atoms: C_4  and  C_5
REMARK    4  A    between atoms: C_4  and  C_29
REMARK    5  A    between atoms: N_7  and  CA_8
REMARK    6  A    between atoms: C_17  and  C_18
REMARK    7  A    between atoms: C_18  and  N_19
REMARK    8  A    between atoms: N_19  and  C_20
REMARK    9  A    between atoms: CA_25  and  C_26
REMARK                            x       y       z     vdW  Elec       q    Type
REMARK                         _______ _______ _______ _____ _____    ______ ____
ROOT
ATOM      1  CA  UNL     1       9.653   0.014  25.119  0.00  0.00    +0.191 C 
ATOM      2  C   UNL     1       8.793  -0.857  26.084  0.00  0.00    +0.168 C 
ATOM      3  S   UNL     1       7.069  -0.387  26.349  0.00  0.00    -0.131 S 
ATOM      4  C   UNL     1       6.581  -2.045  26.846  0.00  0.00    +0.109 C 
ATOM      5  C   UNL     1       7.026  -3.172  25.954  0.00  0.00    +0.008 C 
ATOM      6  CA  UNL     1       8.106  -3.059  25.130  0.00  0.00    +0.065 C 
ATOM      7  N   UNL     1       8.805  -1.881  25.063  0.00  0.00    -0.253 N 
ATOM      8  C   UNL     1       9.683  -1.282  24.231  0.00  0.00    +0.244 C 
ATOM      9  O   UNL     1      10.140  -1.567  23.145  0.00  0.00    -0.273 OA
ENDROOT
BRANCH   1  11
ATOM     10  C   UNL     1       9.755   2.249  23.966  0.00  0.00    +0.268 C 
ATOM     11  N   UNL     1       9.005   1.196  24.463  0.00  0.00    -0.296 N 
ATOM     12  H   UNL     1       8.047   1.419  24.732  0.00  0.00    +0.150 HD
ATOM     13  O   UNL     1      10.975   2.200  23.843  0.00  0.00    -0.268 OA
BRANCH  10  15
ATOM     14  N   UNL     1       8.056   3.661  22.748  0.00  0.00    -0.078 NA
ATOM     15  C   UNL     1       8.964   3.542  23.677  0.00  0.00    +0.190 C 
BRANCH  15  16
ATOM     16  C   UNL     1       9.220   4.758  24.462  0.00  0.00    +0.107 A 
ATOM     17  N   UNL     1       8.430   5.093  25.565  0.00  0.00    -0.223 NA
ATOM     18  C   UNL     1       8.861   6.198  26.121  0.00  0.00    +0.156 A 
ATOM     19  N   UNL     1       8.320   6.719  27.232  0.00  0.00    -0.338 N 
ATOM     20  H   UNL     1       7.402   6.380  27.506  0.00  0.00    +0.144 HD
ATOM     21  H   UNL     1       8.508   7.684  27.473  0.00  0.00    +0.144 HD
ATOM     22  S   UNL     1      10.194   6.943  25.339  0.00  0.00    -0.060 S 
ATOM     23  C   UNL     1      10.226   5.670  24.195  0.00  0.00    +0.078 A 
ENDBRANCH  15  16
BRANCH  14  25
ATOM     24  C   UNL     1       6.504   2.056  22.239  0.00  0.00    +0.313 C 
ATOM     25  O   UNL     1       7.852   2.467  22.043  0.00  0.00    -0.396 OA
ENDBRANCH  14  25
ENDBRANCH  10  15
ENDBRANCH   1  11
BRANCH   6  26
ATOM     26  C   UNL     1       8.611  -4.290  24.284  0.00  0.00    +0.086 C 
ATOM     27  OXT UNL     1       9.682  -4.808  24.734  0.00  0.00    -0.543 OA
ATOM     28  O   UNL     1       8.007  -4.464  23.198  0.00  0.00    -0.543 OA
ENDBRANCH   6  26
BRANCH   5  29
ATOM     29  C   UNL     1       6.273  -4.483  26.169  0.00  0.00    +0.168 C 
BRANCH  29  30
ATOM     30  N   UNL     1       4.917  -4.747  25.407  0.00  0.00    +0.244 N 
ATOM     31  C   UNL     1       5.013  -6.127  24.719  0.00  0.00    +0.133 C 
ATOM     32  C   UNL     1       4.335  -7.114  25.680  0.00  0.00    +0.056 C 
ATOM     33  C   UNL     1       3.858  -6.295  26.867  0.00  0.00    +0.056 C 
ATOM     34  C   UNL     1       3.664  -4.933  26.244  0.00  0.00    +0.133 C 
ATOM     35  C   UNL     1       4.738  -3.646  24.371  0.00  0.00    +0.193 C 
ENDBRANCH  29  30
ENDBRANCH   5  29
TORSDOF 7
ENDMDL
MODEL 8
REMARK VINA RESULT:      -6.8      3.067      9.119
REMARK  Name = 
REMARK  9 active torsions:
REMARK  status: ('A' for Active; 'I' for Inactive)
REMARK    1  A    between atoms: C_1  and  O_2
REMARK    2  A    between atoms: O_2  and  N_3
REMARK    3  A    between atoms: C_4  and  C_5
REMARK    4  A    between atoms: C_4  and  C_29
REMARK    5  A    between atoms: N_7  and  CA_8
REMARK    6  A    between atoms: C_17  and  C_18
REMARK    7  A    between atoms: C_18  and  N_19
REMARK    8  A    between atoms: N_19  and  C_20
REMARK    9  A    between atoms: CA_25  and  C_26
REMARK                            x       y       z     vdW  Elec       q    Type
REMARK                         _______ _______ _______ _____ _____    ______ ____
ROOT
ATOM      1  CA  UNL     1       7.172  -2.649  22.895  0.00  0.00    +0.191 C 
ATOM      2  C   UNL     1       6.465  -1.307  23.257  0.00  0.00    +0.168 C 
ATOM      3  S   UNL     1       6.088  -0.984  24.995  0.00  0.00    -0.131 S 
ATOM      4  C   UNL     1       6.036   0.799  24.762  0.00  0.00    +0.109 C 
ATOM      5  C   UNL     1       7.189   1.413  24.014  0.00  0.00    +0.008 C 
ATOM      6  CA  UNL     1       7.956   0.692  23.148  0.00  0.00    +0.065 C 
ATOM      7  N   UNL     1       7.716  -0.645  22.960  0.00  0.00    -0.253 N 
ATOM      8  C   UNL     1       8.364  -1.721  22.465  0.00  0.00    +0.244 C 
ATOM      9  O   UNL     1       9.487  -1.906  22.046  0.00  0.00    -0.273 OA
ENDROOT
BRANCH   1  11
ATOM     10  C   UNL     1       6.724  -4.719  24.256  0.00  0.00    +0.268 C 
ATOM     11  N   UNL     1       7.501  -3.600  24.007  0.00  0.00    -0.296 N 
ATOM     12  H   UNL     1       8.021  -3.232  24.804  0.00  0.00    +0.150 HD
ATOM     13  O   UNL     1       5.859  -5.116  23.482  0.00  0.00    -0.268 OA
BRANCH  10  15
ATOM     14  N   UNL     1       8.084  -5.843  26.058  0.00  0.00    -0.078 NA
ATOM     15  C   UNL     1       6.943  -5.379  25.633  0.00  0.00    +0.190 C 
BRANCH  15  16
ATOM     16  C   UNL     1       5.817  -5.532  26.567  0.00  0.00    +0.107 A 
ATOM     17  N   UNL     1       5.671  -6.680  27.350  0.00  0.00    -0.223 NA
ATOM     18  C   UNL     1       4.616  -6.581  28.120  0.00  0.00    +0.156 A 
ATOM     19  N   UNL     1       4.272  -7.518  29.015  0.00  0.00    -0.338 N 
ATOM     20  H   UNL     1       4.701  -8.434  28.921  0.00  0.00    +0.144 HD
ATOM     21  H   UNL     1       3.333  -7.525  29.393  0.00  0.00    +0.144 HD
ATOM     22  S   UNL     1       3.695  -5.147  27.923  0.00  0.00    -0.060 S 
ATOM     23  C   UNL     1       4.814  -4.597  26.751  0.00  0.00    +0.078 A 
ENDBRANCH  15  16
BRANCH  14  25
ATOM     24  C   UNL     1      10.167  -4.936  25.764  0.00  0.00    +0.313 C 
ATOM     25  O   UNL     1       9.117  -5.658  25.129  0.00  0.00    -0.396 OA
ENDBRANCH  14  25
ENDBRANCH  10  15
ENDBRANCH   1  11
BRANCH   6  26
ATOM     26  C   UNL     1       9.090   1.385  22.301  0.00  0.00    +0.086 C 
ATOM     27  OXT UNL     1       8.787   1.535  21.075  0.00  0.00    -0.543 OA
ATOM     28  O   UNL     1      10.186   1.515  22.898  0.00  0.00    -0.543 OA
ENDBRANCH   6  26
BRANCH   5  29
ATOM     29  C   UNL     1       7.320   2.925  24.186  0.00  0.00    +0.168 C 
BRANCH  29  30
ATOM     30  N   UNL     1       6.509   3.898  23.247  0.00  0.00    +0.244 N 
ATOM     31  C   UNL     1       5.911   5.023  24.122  0.00  0.00    +0.133 C 
ATOM     32  C   UNL     1       6.894   6.197  24.013  0.00  0.00    +0.056 C 
ATOM     33  C   UNL     1       8.005   5.738  23.083  0.00  0.00    +0.056 C 
ATOM     34  C   UNL     1       7.292   4.713  22.233  0.00  0.00    +0.133 C 
ATOM     35  C   UNL     1       5.401   3.094  22.581  0.00  0.00    +0.193 C 
ENDBRANCH  29  30
ENDBRANCH   5  29
TORSDOF 7
ENDMDL
MODEL 9
REMARK VINA RESULT:      -6.8      3.291      9.782
REMARK  Name = 
REMARK  9 active torsions:
REMARK  status: ('A' for Active; 'I' for Inactive)
REMARK    1  A    between atoms: C_1  and  O_2
REMARK    2  A    between atoms: O_2  and  N_3
REMARK    3  A    between atoms: C_4  and  C_5
REMARK    4  A    between atoms: C_4  and  C_29
REMARK    5  A    between atoms: N_7  and  CA_8
REMARK    6  A    between atoms: C_17  and  C_18
REMARK    7  A    between atoms: C_18  and  N_19
REMARK    8  A    between atoms: N_19  and  C_20
REMARK    9  A    between atoms: CA_25  and  C_26
REMARK                            x       y       z     vdW  Elec       q    Type
REMARK                         _______ _______ _______ _____ _____    ______ ____
ROOT
ATOM      1  CA  UNL     1       6.526  -3.890  26.576  0.00  0.00    +0.191 C 
ATOM      2  C   UNL     1       7.810  -3.142  26.105  0.00  0.00    +0.168 C 
ATOM      3  S   UNL     1       8.153  -3.069  24.333  0.00  0.00    -0.131 S 
ATOM      4  C   UNL     1       9.176  -1.597  24.482  0.00  0.00    +0.109 C 
ATOM      5  C   UNL     1       8.603  -0.459  25.284  0.00  0.00    +0.008 C 
ATOM      6  CA  UNL     1       7.645  -0.654  26.234  0.00  0.00    +0.065 C 
ATOM      7  N   UNL     1       7.142  -1.909  26.462  0.00  0.00    -0.253 N 
ATOM      8  C   UNL     1       6.062  -2.465  27.050  0.00  0.00    +0.244 C 
ATOM      9  O   UNL     1       5.056  -2.016  27.557  0.00  0.00    -0.273 OA
ENDROOT
BRANCH   1  11
ATOM     10  C   UNL     1       5.378  -5.869  25.526  0.00  0.00    +0.268 C 
ATOM     11  N   UNL     1       5.644  -4.510  25.533  0.00  0.00    -0.296 N 
ATOM     12  H   UNL     1       5.574  -4.037  24.632  0.00  0.00    +0.150 HD
ATOM     13  O   UNL     1       5.665  -6.610  26.461  0.00  0.00    -0.268 OA
BRANCH  10  15
ATOM     14  N   UNL     1       5.382  -6.345  23.049  0.00  0.00    -0.078 NA
ATOM     15  C   UNL     1       4.791  -6.417  24.209  0.00  0.00    +0.190 C 
BRANCH  15  16
ATOM     16  C   UNL     1       3.471  -7.065  24.200  0.00  0.00    +0.107 A 
ATOM     17  N   UNL     1       3.248  -8.275  24.862  0.00  0.00    -0.223 NA
ATOM     18  C   UNL     1       1.997  -8.644  24.739  0.00  0.00    +0.156 A 
ATOM     19  N   UNL     1       1.496  -9.741  25.324  0.00  0.00    -0.338 N 
ATOM     20  H   UNL     1       2.158 -10.431  25.667  0.00  0.00    +0.144 HD
ATOM     21  H   UNL     1       0.615 -10.121  24.999  0.00  0.00    +0.144 HD
ATOM     22  S   UNL     1       1.017  -7.610  23.783  0.00  0.00    -0.060 S 
ATOM     23  C   UNL     1       2.354  -6.568  23.550  0.00  0.00    +0.078 A 
ENDBRANCH  15  16
BRANCH  14  25
ATOM     24  C   UNL     1       7.287  -5.876  21.868  0.00  0.00    +0.313 C 
ATOM     25  O   UNL     1       6.637  -5.728  23.125  0.00  0.00    -0.396 OA
ENDBRANCH  14  25
ENDBRANCH  10  15
ENDBRANCH   1  11
BRANCH   6  26
ATOM     26  C   UNL     1       7.138   0.540  27.129  0.00  0.00    +0.086 C 
ATOM     27  OXT UNL     1       7.699   0.591  28.270  0.00  0.00    -0.543 OA
ATOM     28  O   UNL     1       6.137   1.147  26.679  0.00  0.00    -0.543 OA
ENDBRANCH   6  26
BRANCH   5  29
ATOM     29  C   UNL     1       9.292   0.884  25.056  0.00  0.00    +0.168 C 
BRANCH  29  30
ATOM     30  N   UNL     1       8.723   1.889  23.981  0.00  0.00    +0.244 N 
ATOM     31  C   UNL     1       9.913   2.456  23.176  0.00  0.00    +0.133 C 
ATOM     32  C   UNL     1      10.001   1.595  21.908  0.00  0.00    +0.056 C 
ATOM     33  C   UNL     1       8.871   0.582  22.001  0.00  0.00    +0.056 C 
ATOM     34  C   UNL     1       7.871   1.315  22.864  0.00  0.00    +0.133 C 
ATOM     35  C   UNL     1       7.998   3.006  24.719  0.00  0.00    +0.193 C 
ENDBRANCH  29  30
ENDBRANCH   5  29
TORSDOF 7
ENDMDL
