MODEL 1
REMARK VINA RESULT:      -4.1      0.000      0.000
REMARK  Name = 
REMARK  8 active torsions:
REMARK  status: ('A' for Active; 'I' for Inactive)
REMARK    1  A    between atoms: C_1  and  C_2
REMARK    2  A    between atoms: C_2  and  C_3
REMARK    3  A    between atoms: C_3  and  C_4
REMARK    4  A    between atoms: C_4  and  C_5
REMARK    5  A    between atoms: C_5  and  C_6
REMARK    6  A    between atoms: C_6  and  C_7
REMARK    7  A    between atoms: C_7  and  C_9
REMARK    8  A    between atoms: C_7  and  N_10
REMARK                            x       y       z     vdW  Elec       q    Type
REMARK                         _______ _______ _______ _____ _____    ______ ____
ROOT
ATOM      1  C   UNL     1       9.590  -0.871  24.843  0.00  0.00    +0.022 C 
ENDROOT
BRANCH   1   2
ATOM      2  C   UNL     1       9.824  -2.066  23.898  0.00  0.00    +0.070 C 
ATOM      3  C   UNL     1       9.995  -1.650  22.437  0.00  0.00    +0.028 C 
BRANCH   2   4
ATOM      4  N   UNL     1       8.760  -3.051  24.026  0.00  0.00    -0.315 N 
ATOM      5  H   UNL     1       7.868  -2.878  23.575  0.00  0.00    +0.149 HD
ATOM      6  C   UNL     1       8.990  -4.319  24.498  0.00  0.00    +0.325 C 
ATOM      7  O   UNL     1      10.052  -4.743  24.929  0.00  0.00    -0.280 OA
ENDBRANCH   2   4
ENDBRANCH   1   2
BRANCH   1   8
ATOM      8  C   UNL     1      10.533   0.312  24.604  0.00  0.00    +0.002 C 
BRANCH   8   9
ATOM      9  C   UNL     1       9.795   1.650  24.514  0.00  0.00    +0.000 C 
BRANCH   9  10
ATOM     10  C   UNL     1      10.374   2.478  23.364  0.00  0.00    -0.000 C 
BRANCH  10  12
ATOM     11  C   UNL     1       8.531   1.855  21.785  0.00  0.00    +0.004 C 
ATOM     12  C   UNL     1      10.038   1.899  21.993  0.00  0.00    -0.003 C 
ENDBRANCH  10  12
ENDBRANCH   9  10
ENDBRANCH   8   9
ENDBRANCH   1   8
TORSDOF 6
ENDMDL
MODEL 2
REMARK VINA RESULT:      -4.0      1.437      2.252
REMARK  Name = 
REMARK  8 active torsions:
REMARK  status: ('A' for Active; 'I' for Inactive)
REMARK    1  A    between atoms: C_1  and  C_2
REMARK    2  A    between atoms: C_2  and  C_3
REMARK    3  A    between atoms: C_3  and  C_4
REMARK    4  A    between atoms: C_4  and  C_5
REMARK    5  A    between atoms: C_5  and  C_6
REMARK    6  A    between atoms: C_6  and  C_7
REMARK    7  A    between atoms: C_7  and  C_9
REMARK    8  A    between atoms: C_7  and  N_10
REMARK                            x       y       z     vdW  Elec       q    Type
REMARK                         _______ _______ _______ _____ _____    ______ ____
ROOT
ATOM      1  C   UNL     1       8.311  -1.946  23.897  0.00  0.00    +0.022 C 
ENDROOT
BRANCH   1   2
ATOM      2  C   UNL     1       8.188  -3.394  23.385  0.00  0.00    +0.070 C 
ATOM      3  C   UNL     1       7.098  -3.565  22.326  0.00  0.00    +0.028 C 
BRANCH   2   4
ATOM      4  N   UNL     1       7.980  -4.324  24.484  0.00  0.00    -0.315 N 
ATOM      5  H   UNL     1       7.041  -4.649  24.687  0.00  0.00    +0.149 HD
ATOM      6  C   UNL     1       9.019  -4.987  25.089  0.00  0.00    +0.325 C 
ATOM      7  O   UNL     1      10.206  -4.832  24.849  0.00  0.00    -0.280 OA
ENDBRANCH   2   4
ENDBRANCH   1   2
BRANCH   1   8
ATOM      8  C   UNL     1       9.726  -1.368  23.811  0.00  0.00    +0.002 C 
BRANCH   8   9
ATOM      9  C   UNL     1      10.299  -1.409  22.392  0.00  0.00    +0.000 C 
BRANCH   9  10
ATOM     10  C   UNL     1       9.506  -0.459  21.492  0.00  0.00    -0.000 C 
BRANCH  10  12
ATOM     11  C   UNL     1       8.424   1.788  21.724  0.00  0.00    +0.004 C 
ATOM     12  C   UNL     1       9.726   1.009  21.844  0.00  0.00    -0.003 C 
ENDBRANCH  10  12
ENDBRANCH   9  10
ENDBRANCH   8   9
ENDBRANCH   1   8
TORSDOF 6
ENDMDL
MODEL 3
REMARK VINA RESULT:      -3.9      1.519      1.571
REMARK  Name = 
REMARK  8 active torsions:
REMARK  status: ('A' for Active; 'I' for Inactive)
REMARK    1  A    between atoms: C_1  and  C_2
REMARK    2  A    between atoms: C_2  and  C_3
REMARK    3  A    between atoms: C_3  and  C_4
REMARK    4  A    between atoms: C_4  and  C_5
REMARK    5  A    between atoms: C_5  and  C_6
REMARK    6  A    between atoms: C_6  and  C_7
REMARK    7  A    between atoms: C_7  and  C_9
REMARK    8  A    between atoms: C_7  and  N_10
REMARK                            x       y       z     vdW  Elec       q    Type
REMARK                         _______ _______ _______ _____ _____    ______ ____
ROOT
ATOM      1  C   UNL     1       9.604  -0.812  24.861  0.00  0.00    +0.022 C 
ENDROOT
BRANCH   1   2
ATOM      2  C   UNL     1       9.345  -1.760  23.674  0.00  0.00    +0.070 C 
ATOM      3  C   UNL     1      10.412  -1.663  22.584  0.00  0.00    +0.028 C 
BRANCH   2   4
ATOM      4  N   UNL     1       8.020  -1.546  23.110  0.00  0.00    -0.315 N 
ATOM      5  H   UNL     1       7.692  -0.598  22.964  0.00  0.00    +0.149 HD
ATOM      6  C   UNL     1       7.303  -2.557  22.521  0.00  0.00    +0.325 C 
ATOM      7  O   UNL     1       7.632  -3.733  22.466  0.00  0.00    -0.280 OA
ENDBRANCH   2   4
ENDBRANCH   1   2
BRANCH   1   8
ATOM      8  C   UNL     1      10.511   0.376  24.529  0.00  0.00    +0.002 C 
BRANCH   8   9
ATOM      9  C   UNL     1       9.760   1.710  24.515  0.00  0.00    +0.000 C 
BRANCH   9  10
ATOM     10  C   UNL     1      10.188   2.525  23.292  0.00  0.00    -0.000 C 
BRANCH  10  12
ATOM     11  C   UNL     1       8.496   1.743  21.619  0.00  0.00    +0.004 C 
ATOM     12  C   UNL     1       9.974   1.777  21.980  0.00  0.00    -0.003 C 
ENDBRANCH  10  12
ENDBRANCH   9  10
ENDBRANCH   8   9
ENDBRANCH   1   8
TORSDOF 6
ENDMDL
MODEL 4
REMARK VINA RESULT:      -3.9      2.505      3.346
REMARK  Name = 
REMARK  8 active torsions:
REMARK  status: ('A' for Active; 'I' for Inactive)
REMARK    1  A    between atoms: C_1  and  C_2
REMARK    2  A    between atoms: C_2  and  C_3
REMARK    3  A    between atoms: C_3  and  C_4
REMARK    4  A    between atoms: C_4  and  C_5
REMARK    5  A    between atoms: C_5  and  C_6
REMARK    6  A    between atoms: C_6  and  C_7
REMARK    7  A    between atoms: C_7  and  C_9
REMARK    8  A    between atoms: C_7  and  N_10
REMARK                            x       y       z     vdW  Elec       q    Type
REMARK                         _______ _______ _______ _____ _____    ______ ____
ROOT
ATOM      1  C   UNL     1       8.418  -2.626  22.736  0.00  0.00    +0.022 C 
ENDROOT
BRANCH   1   2
ATOM      2  C   UNL     1       7.731  -3.863  23.349  0.00  0.00    +0.070 C 
ATOM      3  C   UNL     1       8.595  -4.574  24.391  0.00  0.00    +0.028 C 
BRANCH   2   4
ATOM      4  N   UNL     1       7.310  -4.796  22.314  0.00  0.00    -0.315 N 
ATOM      5  H   UNL     1       7.854  -5.637  22.155  0.00  0.00    +0.149 HD
ATOM      6  C   UNL     1       6.070  -4.728  21.728  0.00  0.00    +0.325 C 
ATOM      7  O   UNL     1       5.227  -3.868  21.931  0.00  0.00    -0.280 OA
ENDBRANCH   2   4
ENDBRANCH   1   2
BRANCH   1   8
ATOM      8  C   UNL     1       9.719  -2.220  23.433  0.00  0.00    +0.002 C 
BRANCH   8   9
ATOM      9  C   UNL     1      10.238  -0.856  22.973  0.00  0.00    +0.000 C 
BRANCH   9  10
ATOM     10  C   UNL     1       9.654  -0.524  21.597  0.00  0.00    -0.000 C 
BRANCH  10  12
ATOM     11  C   UNL     1      10.063   1.881  22.165  0.00  0.00    +0.004 C 
ATOM     12  C   UNL     1       9.101   0.895  21.518  0.00  0.00    -0.003 C 
ENDBRANCH  10  12
ENDBRANCH   9  10
ENDBRANCH   8   9
ENDBRANCH   1   8
TORSDOF 6
ENDMDL
MODEL 5
REMARK VINA RESULT:      -3.8      1.697      2.947
REMARK  Name = 
REMARK  8 active torsions:
REMARK  status: ('A' for Active; 'I' for Inactive)
REMARK    1  A    between atoms: C_1  and  C_2
REMARK    2  A    between atoms: C_2  and  C_3
REMARK    3  A    between atoms: C_3  and  C_4
REMARK    4  A    between atoms: C_4  and  C_5
REMARK    5  A    between atoms: C_5  and  C_6
REMARK    6  A    between atoms: C_6  and  C_7
REMARK    7  A    between atoms: C_7  and  C_9
REMARK    8  A    between atoms: C_7  and  N_10
REMARK                            x       y       z     vdW  Elec       q    Type
REMARK                         _______ _______ _______ _____ _____    ______ ____
ROOT
ATOM      1  C   UNL     1       7.295  -2.875  23.041  0.00  0.00    +0.022 C 
ENDROOT
BRANCH   1   2
ATOM      2  C   UNL     1       7.874  -4.297  23.184  0.00  0.00    +0.070 C 
ATOM      3  C   UNL     1       7.187  -5.317  22.276  0.00  0.00    +0.028 C 
BRANCH   2   4
ATOM      4  N   UNL     1       7.837  -4.742  24.569  0.00  0.00    -0.315 N 
ATOM      5  H   UNL     1       6.954  -5.034  24.972  0.00  0.00    +0.149 HD
ATOM      6  C   UNL     1       8.978  -5.037  25.273  0.00  0.00    +0.325 C 
ATOM      7  O   UNL     1      10.124  -4.896  24.875  0.00  0.00    -0.280 OA
ENDBRANCH   2   4
ENDBRANCH   1   2
BRANCH   1   8
ATOM      8  C   UNL     1       8.212  -1.768  23.567  0.00  0.00    +0.002 C 
BRANCH   8   9
ATOM      9  C   UNL     1       9.647  -1.891  23.051  0.00  0.00    +0.000 C 
BRANCH   9  10
ATOM     10  C   UNL     1       9.800  -1.080  21.762  0.00  0.00    -0.000 C 
BRANCH  10  12
ATOM     11  C   UNL     1       9.958   1.410  21.992  0.00  0.00    +0.004 C 
ATOM     12  C   UNL     1       9.018   0.230  21.794  0.00  0.00    -0.003 C 
ENDBRANCH  10  12
ENDBRANCH   9  10
ENDBRANCH   8   9
ENDBRANCH   1   8
TORSDOF 6
ENDMDL
MODEL 6
REMARK VINA RESULT:      -3.8      2.350      4.075
REMARK  Name = 
REMARK  8 active torsions:
REMARK  status: ('A' for Active; 'I' for Inactive)
REMARK    1  A    between atoms: C_1  and  C_2
REMARK    2  A    between atoms: C_2  and  C_3
REMARK    3  A    between atoms: C_3  and  C_4
REMARK    4  A    between atoms: C_4  and  C_5
REMARK    5  A    between atoms: C_5  and  C_6
REMARK    6  A    between atoms: C_6  and  C_7
REMARK    7  A    between atoms: C_7  and  C_9
REMARK    8  A    between atoms: C_7  and  N_10
REMARK                            x       y       z     vdW  Elec       q    Type
REMARK                         _______ _______ _______ _____ _____    ______ ____
ROOT
ATOM      1  C   UNL     1      10.334   1.628  23.607  0.00  0.00    +0.022 C 
ENDROOT
BRANCH   1   2
ATOM      2  C   UNL     1       9.057   1.599  24.469  0.00  0.00    +0.070 C 
ATOM      3  C   UNL     1       8.582   2.991  24.885  0.00  0.00    +0.028 C 
BRANCH   2   4
ATOM      4  N   UNL     1       9.232   0.750  25.638  0.00  0.00    -0.315 N 
ATOM      5  H   UNL     1       9.963   0.971  26.304  0.00  0.00    +0.149 HD
ATOM      6  C   UNL     1       8.290  -0.173  26.020  0.00  0.00    +0.325 C 
ATOM      7  O   UNL     1       7.266  -0.447  25.412  0.00  0.00    -0.280 OA
ENDBRANCH   2   4
ENDBRANCH   1   2
BRANCH   1   8
ATOM      8  C   UNL     1      10.076   1.787  22.106  0.00  0.00    +0.002 C 
BRANCH   8   9
ATOM      9  C   UNL     1       9.053   0.783  21.571  0.00  0.00    +0.000 C 
BRANCH   9  10
ATOM     10  C   UNL     1       9.683  -0.610  21.515  0.00  0.00    -0.000 C 
BRANCH  10  12
ATOM     11  C   UNL     1       9.961  -2.184  23.444  0.00  0.00    +0.004 C 
ATOM     12  C   UNL     1       8.982  -1.612  22.428  0.00  0.00    -0.003 C 
ENDBRANCH  10  12
ENDBRANCH   9  10
ENDBRANCH   8   9
ENDBRANCH   1   8
TORSDOF 6
ENDMDL
MODEL 7
REMARK VINA RESULT:      -3.7      1.861      2.705
REMARK  Name = 
REMARK  8 active torsions:
REMARK  status: ('A' for Active; 'I' for Inactive)
REMARK    1  A    between atoms: C_1  and  C_2
REMARK    2  A    between atoms: C_2  and  C_3
REMARK    3  A    between atoms: C_3  and  C_4
REMARK    4  A    between atoms: C_4  and  C_5
REMARK    5  A    between atoms: C_5  and  C_6
REMARK    6  A    between atoms: C_6  and  C_7
REMARK    7  A    between atoms: C_7  and  C_9
REMARK    8  A    between atoms: C_7  and  N_10
REMARK                            x       y       z     vdW  Elec       q    Type
REMARK                         _______ _______ _______ _____ _____    ______ ____
ROOT
ATOM      1  C   UNL     1       9.407  -1.758  22.586  0.00  0.00    +0.022 C 
ENDROOT
BRANCH   1   2
ATOM      2  C   UNL     1       8.148  -2.645  22.663  0.00  0.00    +0.070 C 
ATOM      3  C   UNL     1       6.860  -1.843  22.847  0.00  0.00    +0.028 C 
BRANCH   2   4
ATOM      4  N   UNL     1       8.277  -3.649  23.708  0.00  0.00    -0.315 N 
ATOM      5  H   UNL     1       8.493  -3.354  24.654  0.00  0.00    +0.149 HD
ATOM      6  C   UNL     1       7.860  -4.946  23.534  0.00  0.00    +0.325 C 
ATOM      7  O   UNL     1       7.421  -5.425  22.500  0.00  0.00    -0.280 OA
ENDBRANCH   2   4
ENDBRANCH   1   2
BRANCH   1   8
ATOM      8  C   UNL     1       9.344  -0.671  21.510  0.00  0.00    +0.002 C 
BRANCH   8   9
ATOM      9  C   UNL     1       9.892   0.674  21.993  0.00  0.00    +0.000 C 
BRANCH   9  10
ATOM     10  C   UNL     1       9.013   1.208  23.126  0.00  0.00    -0.000 C 
BRANCH  10  12
ATOM     11  C   UNL     1      11.030   0.802  24.555  0.00  0.00    +0.004 C 
ATOM     12  C   UNL     1       9.824   1.700  24.321  0.00  0.00    -0.003 C 
ENDBRANCH  10  12
ENDBRANCH   9  10
ENDBRANCH   8   9
ENDBRANCH   1   8
TORSDOF 6
ENDMDL
MODEL 8
REMARK VINA RESULT:      -3.6      3.177      4.968
REMARK  Name = 
REMARK  8 active torsions:
REMARK  status: ('A' for Active; 'I' for Inactive)
REMARK    1  A    between atoms: C_1  and  C_2
REMARK    2  A    between atoms: C_2  and  C_3
REMARK    3  A    between atoms: C_3  and  C_4
REMARK    4  A    between atoms: C_4  and  C_5
REMARK    5  A    between atoms: C_5  and  C_6
REMARK    6  A    between atoms: C_6  and  C_7
REMARK    7  A    between atoms: C_7  and  C_9
REMARK    8  A    between atoms: C_7  and  N_10
REMARK                            x       y       z     vdW  Elec       q    Type
REMARK                         _______ _______ _______ _____ _____    ______ ____
ROOT
ATOM      1  C   UNL     1       9.469  -0.093  21.306  0.00  0.00    +0.022 C 
ENDROOT
BRANCH   1   2
ATOM      2  C   UNL     1       9.010   1.121  22.138  0.00  0.00    +0.070 C 
ATOM      3  C   UNL     1       7.549   1.498  21.893  0.00  0.00    +0.028 C 
BRANCH   2   4
ATOM      4  N   UNL     1       9.877   2.268  21.916  0.00  0.00    -0.315 N 
ATOM      5  H   UNL     1       9.722   2.855  21.104  0.00  0.00    +0.149 HD
ATOM      6  C   UNL     1      10.720   2.748  22.887  0.00  0.00    +0.325 C 
ATOM      7  O   UNL     1      10.905   2.250  23.987  0.00  0.00    -0.280 OA
ENDBRANCH   2   4
ENDBRANCH   1   2
BRANCH   1   8
ATOM      8  C   UNL     1       9.832  -1.325  22.139  0.00  0.00    +0.002 C 
BRANCH   8   9
ATOM      9  C   UNL     1       9.771  -1.061  23.646  0.00  0.00    +0.000 C 
BRANCH   9  10
ATOM     10  C   UNL     1       8.642  -1.888  24.265  0.00  0.00    -0.000 C 
BRANCH  10  12
ATOM     11  C   UNL     1       6.377  -1.982  23.199  0.00  0.00    +0.004 C 
ATOM     12  C   UNL     1       7.776  -2.582  23.218  0.00  0.00    -0.003 C 
ENDBRANCH  10  12
ENDBRANCH   9  10
ENDBRANCH   8   9
ENDBRANCH   1   8
TORSDOF 6
ENDMDL
MODEL 9
REMARK VINA RESULT:      -3.6      3.710      5.247
REMARK  Name = 
REMARK  8 active torsions:
REMARK  status: ('A' for Active; 'I' for Inactive)
REMARK    1  A    between atoms: C_1  and  C_2
REMARK    2  A    between atoms: C_2  and  C_3
REMARK    3  A    between atoms: C_3  and  C_4
REMARK    4  A    between atoms: C_4  and  C_5
REMARK    5  A    between atoms: C_5  and  C_6
REMARK    6  A    between atoms: C_6  and  C_7
REMARK    7  A    between atoms: C_7  and  C_9
REMARK    8  A    between atoms: C_7  and  N_10
REMARK                            x       y       z     vdW  Elec       q    Type
REMARK                         _______ _______ _______ _____ _____    ______ ____
ROOT
ATOM      1  C   UNL     1       9.131   2.104  24.319  0.00  0.00    +0.022 C 
ENDROOT
BRANCH   1   2
ATOM      2  C   UNL     1       8.769   2.222  22.826  0.00  0.00    +0.070 C 
ATOM      3  C   UNL     1       9.859   1.679  21.900  0.00  0.00    +0.028 C 
BRANCH   2   4
ATOM      4  N   UNL     1       8.438   3.594  22.473  0.00  0.00    -0.315 N 
ATOM      5  H   UNL     1       9.187   4.252  22.288  0.00  0.00    +0.149 HD
ATOM      6  C   UNL     1       7.167   3.972  22.118  0.00  0.00    +0.325 C 
ATOM      7  O   UNL     1       6.176   3.257  22.128  0.00  0.00    -0.280 OA
ENDBRANCH   2   4
ENDBRANCH   1   2
BRANCH   1   8
ATOM      8  C   UNL     1      10.288   1.144  24.611  0.00  0.00    +0.002 C 
BRANCH   8   9
ATOM      9  C   UNL     1       9.824  -0.166  25.252  0.00  0.00    +0.000 C 
BRANCH   9  10
ATOM     10  C   UNL     1       9.831  -1.280  24.204  0.00  0.00    -0.000 C 
BRANCH  10  12
ATOM     11  C   UNL     1       8.632  -1.895  22.092  0.00  0.00    +0.004 C 
ATOM     12  C   UNL     1       8.469  -1.482  23.548  0.00  0.00    -0.003 C 
ENDBRANCH  10  12
ENDBRANCH   9  10
ENDBRANCH   8   9
ENDBRANCH   1   8
TORSDOF 6
ENDMDL
