MODEL 1
REMARK VINA RESULT:      -6.7      0.000      0.000
REMARK  Name = 
REMARK  4 active torsions:
REMARK  status: ('A' for Active; 'I' for Inactive)
REMARK    1  A    between atoms: C_1  and  C_2
REMARK    2  A    between atoms: C_2  and  C_4
REMARK    3  A    between atoms: C_2  and  N_13
REMARK    4  A    between atoms: C_4  and  N_5
REMARK                            x       y       z     vdW  Elec       q    Type
REMARK                         _______ _______ _______ _____ _____    ______ ____
ROOT
ATOM      1  C   UNL     1       6.487  -1.922  22.640  0.00  0.00    +0.025 C 
ATOM      2  C   UNL     1       7.671  -1.795  23.625  0.00  0.00    +0.069 C 
ENDROOT
BRANCH   2   3
ATOM      3  N   UNL     1       8.983  -2.002  22.947  0.00  0.00    -0.282 NA
ATOM      4  C   UNL     1      10.160  -1.688  23.792  0.00  0.00    +0.181 C 
ATOM      5  C   UNL     1      10.285  -0.196  24.077  0.00  0.00    +0.233 C 
ATOM      6  O   UNL     1      10.664   0.243  25.163  0.00  0.00    -0.274 OA
ATOM      7  N   UNL     1       9.956   0.646  23.050  0.00  0.00    -0.254 N 
ATOM      8  H   UNL     1      10.013   1.636  23.241  0.00  0.00    +0.158 HD
ATOM      9  C   UNL     1       9.254   0.274  21.929  0.00  0.00    +0.233 C 
ATOM     10  O   UNL     1       8.778   1.117  21.173  0.00  0.00    -0.274 OA
ATOM     11  C   UNL     1       9.134  -1.230  21.684  0.00  0.00    +0.181 C 
ENDBRANCH   2   3
BRANCH   2  12
ATOM     12  C   UNL     1       7.371  -2.714  24.882  0.00  0.00    +0.104 C 
BRANCH  12  13
ATOM     13  N   UNL     1       7.079  -4.140  24.639  0.00  0.00    -0.284 NA
ATOM     14  C   UNL     1       6.385  -4.779  25.780  0.00  0.00    +0.181 C 
ATOM     15  C   UNL     1       7.319  -5.214  26.907  0.00  0.00    +0.233 C 
ATOM     16  O   UNL     1       6.963  -5.248  28.083  0.00  0.00    -0.274 OA
ATOM     17  N   UNL     1       8.576  -5.619  26.551  0.00  0.00    -0.254 N 
ATOM     18  H   UNL     1       9.196  -5.861  27.310  0.00  0.00    +0.158 HD
ATOM     19  C   UNL     1       9.170  -5.308  25.356  0.00  0.00    +0.233 C 
ATOM     20  O   UNL     1      10.393  -5.336  25.234  0.00  0.00    -0.274 OA
ATOM     21  C   UNL     1       8.223  -4.962  24.211  0.00  0.00    +0.181 C 
ENDBRANCH  12  13
ENDBRANCH   2  12
TORSDOF 3
ENDMDL
MODEL 2
REMARK VINA RESULT:      -6.3      1.721      2.649
REMARK  Name = 
REMARK  4 active torsions:
REMARK  status: ('A' for Active; 'I' for Inactive)
REMARK    1  A    between atoms: C_1  and  C_2
REMARK    2  A    between atoms: C_2  and  C_4
REMARK    3  A    between atoms: C_2  and  N_13
REMARK    4  A    between atoms: C_4  and  N_5
REMARK                            x       y       z     vdW  Elec       q    Type
REMARK                         _______ _______ _______ _____ _____    ______ ____
ROOT
ATOM      1  C   UNL     1       8.682  -1.571  26.580  0.00  0.00    +0.025 C 
ATOM      2  C   UNL     1       8.006  -2.020  25.265  0.00  0.00    +0.069 C 
ENDROOT
BRANCH   2   3
ATOM      3  N   UNL     1       7.813  -0.881  24.322  0.00  0.00    -0.282 NA
ATOM      4  C   UNL     1       6.756  -1.105  23.307  0.00  0.00    +0.181 C 
ATOM      5  C   UNL     1       7.146  -2.175  22.293  0.00  0.00    +0.233 C 
ATOM      6  O   UNL     1       6.337  -2.982  21.835  0.00  0.00    -0.274 OA
ATOM      7  N   UNL     1       8.458  -2.193  21.907  0.00  0.00    -0.254 N 
ATOM      8  H   UNL     1       8.728  -2.914  21.255  0.00  0.00    +0.158 HD
ATOM      9  C   UNL     1       9.476  -1.548  22.567  0.00  0.00    +0.233 C 
ATOM     10  O   UNL     1      10.652  -1.803  22.320  0.00  0.00    -0.274 OA
ATOM     11  C   UNL     1       9.048  -0.493  23.588  0.00  0.00    +0.181 C 
ENDBRANCH   2   3
BRANCH   2  12
ATOM     12  C   UNL     1       6.713  -2.861  25.634  0.00  0.00    +0.104 C 
BRANCH  12  13
ATOM     13  N   UNL     1       6.630  -4.249  25.142  0.00  0.00    -0.284 NA
ATOM     14  C   UNL     1       6.182  -5.196  26.188  0.00  0.00    +0.181 C 
ATOM     15  C   UNL     1       7.295  -5.650  27.130  0.00  0.00    +0.233 C 
ATOM     16  O   UNL     1       7.083  -5.957  28.301  0.00  0.00    -0.274 OA
ATOM     17  N   UNL     1       8.553  -5.752  26.602  0.00  0.00    -0.254 N 
ATOM     18  H   UNL     1       9.285  -6.010  27.248  0.00  0.00    +0.158 HD
ATOM     19  C   UNL     1       8.950  -5.131  25.448  0.00  0.00    +0.233 C 
ATOM     20  O   UNL     1      10.140  -4.916  25.225  0.00  0.00    -0.274 OA
ATOM     21  C   UNL     1       7.838  -4.762  24.471  0.00  0.00    +0.181 C 
ENDBRANCH  12  13
ENDBRANCH   2  12
TORSDOF 3
ENDMDL
MODEL 3
REMARK VINA RESULT:      -6.3      1.801      5.728
REMARK  Name = 
REMARK  4 active torsions:
REMARK  status: ('A' for Active; 'I' for Inactive)
REMARK    1  A    between atoms: C_1  and  C_2
REMARK    2  A    between atoms: C_2  and  C_4
REMARK    3  A    between atoms: C_2  and  N_13
REMARK    4  A    between atoms: C_4  and  N_5
REMARK                            x       y       z     vdW  Elec       q    Type
REMARK                         _______ _______ _______ _____ _____    ______ ____
ROOT
ATOM      1  C   UNL     1       6.485  -1.217  23.517  0.00  0.00    +0.025 C 
ATOM      2  C   UNL     1       7.664  -1.926  24.222  0.00  0.00    +0.069 C 
ENDROOT
BRANCH   2   3
ATOM      3  N   UNL     1       7.194  -2.964  25.184  0.00  0.00    -0.282 NA
ATOM      4  C   UNL     1       8.286  -3.728  25.835  0.00  0.00    +0.181 C 
ATOM      5  C   UNL     1       9.015  -4.640  24.855  0.00  0.00    +0.233 C 
ATOM      6  O   UNL     1      10.231  -4.827  24.903  0.00  0.00    -0.274 OA
ATOM      7  N   UNL     1       8.242  -5.254  23.909  0.00  0.00    -0.254 N 
ATOM      8  H   UNL     1       8.723  -5.840  23.242  0.00  0.00    +0.158 HD
ATOM      9  C   UNL     1       6.957  -4.886  23.591  0.00  0.00    +0.233 C 
ATOM     10  O   UNL     1       6.412  -5.308  22.574  0.00  0.00    -0.274 OA
ATOM     11  C   UNL     1       6.262  -3.958  24.587  0.00  0.00    +0.181 C 
ENDBRANCH   2   3
BRANCH   2  12
ATOM     12  C   UNL     1       8.637  -0.815  24.798  0.00  0.00    +0.104 C 
BRANCH  12  13
ATOM     13  N   UNL     1      10.027  -0.790  24.302  0.00  0.00    -0.284 NA
ATOM     14  C   UNL     1      10.704   0.497  24.575  0.00  0.00    +0.181 C 
ATOM     15  C   UNL     1      10.379   1.595  23.565  0.00  0.00    +0.233 C 
ATOM     16  O   UNL     1      10.369   2.787  23.865  0.00  0.00    -0.274 OA
ATOM     17  N   UNL     1      10.139   1.202  22.276  0.00  0.00    -0.254 N 
ATOM     18  H   UNL     1       9.881   1.934  21.630  0.00  0.00    +0.158 HD
ATOM     19  C   UNL     1       9.797  -0.075  21.917  0.00  0.00    +0.233 C 
ATOM     20  O   UNL     1       9.215  -0.298  20.858  0.00  0.00    -0.274 OA
ATOM     21  C   UNL     1      10.208  -1.175  22.891  0.00  0.00    +0.181 C 
ENDBRANCH  12  13
ENDBRANCH   2  12
TORSDOF 3
ENDMDL
MODEL 4
REMARK VINA RESULT:      -6.2      1.687      2.555
REMARK  Name = 
REMARK  4 active torsions:
REMARK  status: ('A' for Active; 'I' for Inactive)
REMARK    1  A    between atoms: C_1  and  C_2
REMARK    2  A    between atoms: C_2  and  C_4
REMARK    3  A    between atoms: C_2  and  N_13
REMARK    4  A    between atoms: C_4  and  N_5
REMARK                            x       y       z     vdW  Elec       q    Type
REMARK                         _______ _______ _______ _____ _____    ______ ____
ROOT
ATOM      1  C   UNL     1       5.865  -0.384  24.973  0.00  0.00    +0.025 C 
ATOM      2  C   UNL     1       7.041  -1.259  24.486  0.00  0.00    +0.069 C 
ENDROOT
BRANCH   2   3
ATOM      3  N   UNL     1       7.257  -1.131  23.015  0.00  0.00    -0.282 NA
ATOM      4  C   UNL     1       8.258  -2.076  22.464  0.00  0.00    +0.181 C 
ATOM      5  C   UNL     1       9.673  -1.755  22.930  0.00  0.00    +0.233 C 
ATOM      6  O   UNL     1      10.497  -2.629  23.200  0.00  0.00    -0.274 OA
ATOM      7  N   UNL     1       9.991  -0.428  23.031  0.00  0.00    -0.254 N 
ATOM      8  H   UNL     1      10.919  -0.209  23.363  0.00  0.00    +0.158 HD
ATOM      9  C   UNL     1       9.075   0.596  23.043  0.00  0.00    +0.233 C 
ATOM     10  O   UNL     1       9.400   1.730  23.383  0.00  0.00    -0.274 OA
ATOM     11  C   UNL     1       7.662   0.234  22.585  0.00  0.00    +0.181 C 
ENDBRANCH   2   3
BRANCH   2  12
ATOM     12  C   UNL     1       6.831  -2.728  25.045  0.00  0.00    +0.104 C 
BRANCH  12  13
ATOM     13  N   UNL     1       7.391  -3.047  26.372  0.00  0.00    -0.284 NA
ATOM     14  C   UNL     1       8.835  -3.368  26.316  0.00  0.00    +0.181 C 
ATOM     15  C   UNL     1       9.133  -4.807  25.902  0.00  0.00    +0.233 C 
ATOM     16  O   UNL     1      10.155  -5.121  25.295  0.00  0.00    -0.274 OA
ATOM     17  N   UNL     1       8.229  -5.762  26.277  0.00  0.00    -0.254 N 
ATOM     18  H   UNL     1       8.417  -6.702  25.957  0.00  0.00    +0.158 HD
ATOM     19  C   UNL     1       6.937  -5.491  26.641  0.00  0.00    +0.233 C 
ATOM     20  O   UNL     1       6.069  -6.360  26.582  0.00  0.00    -0.274 OA
ATOM     21  C   UNL     1       6.667  -4.075  27.141  0.00  0.00    +0.181 C 
ENDBRANCH  12  13
ENDBRANCH   2  12
TORSDOF 3
ENDMDL
MODEL 5
REMARK VINA RESULT:      -6.2      2.775      6.284
REMARK  Name = 
REMARK  4 active torsions:
REMARK  status: ('A' for Active; 'I' for Inactive)
REMARK    1  A    between atoms: C_1  and  C_2
REMARK    2  A    between atoms: C_2  and  C_4
REMARK    3  A    between atoms: C_2  and  N_13
REMARK    4  A    between atoms: C_4  and  N_5
REMARK                            x       y       z     vdW  Elec       q    Type
REMARK                         _______ _______ _______ _____ _____    ______ ____
ROOT
ATOM      1  C   UNL     1       5.258  -2.673  24.754  0.00  0.00    +0.025 C 
ATOM      2  C   UNL     1       5.920  -3.141  23.439  0.00  0.00    +0.069 C 
ENDROOT
BRANCH   2   3
ATOM      3  N   UNL     1       6.733  -4.376  23.634  0.00  0.00    -0.282 NA
ATOM      4  C   UNL     1       7.195  -5.004  22.373  0.00  0.00    +0.181 C 
ATOM      5  C   UNL     1       6.047  -5.613  21.576  0.00  0.00    +0.233 C 
ATOM      6  O   UNL     1       5.998  -5.571  20.347  0.00  0.00    -0.274 OA
ATOM      7  N   UNL     1       5.061  -6.220  22.304  0.00  0.00    -0.254 N 
ATOM      8  H   UNL     1       4.285  -6.602  21.783  0.00  0.00    +0.158 HD
ATOM      9  C   UNL     1       4.875  -6.060  23.656  0.00  0.00    +0.233 C 
ATOM     10  O   UNL     1       3.837  -6.427  24.199  0.00  0.00    -0.274 OA
ATOM     11  C   UNL     1       6.041  -5.432  24.420  0.00  0.00    +0.181 C 
ENDBRANCH   2   3
BRANCH   2  12
ATOM     12  C   UNL     1       6.663  -1.900  22.789  0.00  0.00    +0.104 C 
BRANCH  12  13
ATOM     13  N   UNL     1       7.451  -1.025  23.678  0.00  0.00    -0.284 NA
ATOM     14  C   UNL     1       7.407   0.395  23.262  0.00  0.00    +0.181 C 
ATOM     15  C   UNL     1       8.383   0.743  22.140  0.00  0.00    +0.233 C 
ATOM     16  O   UNL     1       8.156   1.629  21.319  0.00  0.00    -0.274 OA
ATOM     17  N   UNL     1       9.563   0.051  22.107  0.00  0.00    -0.254 N 
ATOM     18  H   UNL     1      10.178   0.261  21.334  0.00  0.00    +0.158 HD
ATOM     19  C   UNL     1       9.765  -1.147  22.739  0.00  0.00    +0.233 C 
ATOM     20  O   UNL     1      10.658  -1.910  22.374  0.00  0.00    -0.274 OA
ATOM     21  C   UNL     1       8.843  -1.445  23.917  0.00  0.00    +0.181 C 
ENDBRANCH  12  13
ENDBRANCH   2  12
TORSDOF 3
ENDMDL
MODEL 6
REMARK VINA RESULT:      -6.2      1.855      5.069
REMARK  Name = 
REMARK  4 active torsions:
REMARK  status: ('A' for Active; 'I' for Inactive)
REMARK    1  A    between atoms: C_1  and  C_2
REMARK    2  A    between atoms: C_2  and  C_4
REMARK    3  A    between atoms: C_2  and  N_13
REMARK    4  A    between atoms: C_4  and  N_5
REMARK                            x       y       z     vdW  Elec       q    Type
REMARK                         _______ _______ _______ _____ _____    ______ ____
ROOT
ATOM      1  C   UNL     1       5.555  -3.217  22.246  0.00  0.00    +0.025 C 
ATOM      2  C   UNL     1       6.586  -2.874  23.345  0.00  0.00    +0.069 C 
ENDROOT
BRANCH   2   3
ATOM      3  N   UNL     1       6.289  -3.577  24.626  0.00  0.00    -0.282 NA
ATOM      4  C   UNL     1       6.671  -2.816  25.839  0.00  0.00    +0.181 C 
ATOM      5  C   UNL     1       8.183  -2.696  25.993  0.00  0.00    +0.233 C 
ATOM      6  O   UNL     1       8.728  -1.677  26.420  0.00  0.00    -0.274 OA
ATOM      7  N   UNL     1       8.917  -3.792  25.632  0.00  0.00    -0.254 N 
ATOM      8  H   UNL     1       9.921  -3.709  25.708  0.00  0.00    +0.158 HD
ATOM      9  C   UNL     1       8.441  -4.839  24.881  0.00  0.00    +0.233 C 
ATOM     10  O   UNL     1       9.207  -5.661  24.385  0.00  0.00    -0.274 OA
ATOM     11  C   UNL     1       6.921  -4.919  24.735  0.00  0.00    +0.181 C 
ENDBRANCH   2   3
BRANCH   2  12
ATOM     12  C   UNL     1       6.725  -1.296  23.419  0.00  0.00    +0.104 C 
BRANCH  12  13
ATOM     13  N   UNL     1       7.653  -0.641  22.477  0.00  0.00    -0.284 NA
ATOM     14  C   UNL     1       8.760  -1.531  22.059  0.00  0.00    +0.181 C 
ATOM     15  C   UNL     1       9.910  -1.602  23.062  0.00  0.00    +0.233 C 
ATOM     16  O   UNL     1      10.609  -2.604  23.195  0.00  0.00    -0.274 OA
ATOM     17  N   UNL     1      10.170  -0.473  23.790  0.00  0.00    -0.254 N 
ATOM     18  H   UNL     1      10.903  -0.550  24.480  0.00  0.00    +0.158 HD
ATOM     19  C   UNL     1       9.274   0.548  23.965  0.00  0.00    +0.233 C 
ATOM     20  O   UNL     1       9.378   1.323  24.913  0.00  0.00    -0.274 OA
ATOM     21  C   UNL     1       8.181   0.666  22.906  0.00  0.00    +0.181 C 
ENDBRANCH  12  13
ENDBRANCH   2  12
TORSDOF 3
ENDMDL
MODEL 7
REMARK VINA RESULT:      -6.1      2.424      3.563
REMARK  Name = 
REMARK  4 active torsions:
REMARK  status: ('A' for Active; 'I' for Inactive)
REMARK    1  A    between atoms: C_1  and  C_2
REMARK    2  A    between atoms: C_2  and  C_4
REMARK    3  A    between atoms: C_2  and  N_13
REMARK    4  A    between atoms: C_4  and  N_5
REMARK                            x       y       z     vdW  Elec       q    Type
REMARK                         _______ _______ _______ _____ _____    ______ ____
ROOT
ATOM      1  C   UNL     1       9.237   0.370  21.279  0.00  0.00    +0.025 C 
ATOM      2  C   UNL     1       8.923  -0.221  22.671  0.00  0.00    +0.069 C 
ENDROOT
BRANCH   2   3
ATOM      3  N   UNL     1      10.025   0.031  23.644  0.00  0.00    -0.282 NA
ATOM      4  C   UNL     1       9.770  -0.504  25.003  0.00  0.00    +0.181 C 
ATOM      5  C   UNL     1       8.658   0.250  25.722  0.00  0.00    +0.233 C 
ATOM      6  O   UNL     1       7.841  -0.310  26.453  0.00  0.00    -0.274 OA
ATOM      7  N   UNL     1       8.612   1.601  25.516  0.00  0.00    -0.254 N 
ATOM      8  H   UNL     1       7.862   2.103  25.969  0.00  0.00    +0.158 HD
ATOM      9  C   UNL     1       9.273   2.262  24.509  0.00  0.00    +0.233 C 
ATOM     10  O   UNL     1       8.997   3.425  24.227  0.00  0.00    -0.274 OA
ATOM     11  C   UNL     1      10.372   1.470  23.799  0.00  0.00    +0.181 C 
ENDBRANCH   2   3
BRANCH   2  12
ATOM     12  C   UNL     1       8.479  -1.731  22.480  0.00  0.00    +0.104 C 
BRANCH  12  13
ATOM     13  N   UNL     1       7.364  -2.232  23.308  0.00  0.00    -0.284 NA
ATOM     14  C   UNL     1       7.775  -3.335  24.205  0.00  0.00    +0.181 C 
ATOM     15  C   UNL     1       7.819  -4.702  23.527  0.00  0.00    +0.233 C 
ATOM     16  O   UNL     1       8.596  -5.588  23.877  0.00  0.00    -0.274 OA
ATOM     17  N   UNL     1       6.913  -4.929  22.528  0.00  0.00    -0.254 N 
ATOM     18  H   UNL     1       6.984  -5.821  22.059  0.00  0.00    +0.158 HD
ATOM     19  C   UNL     1       6.257  -3.935  21.850  0.00  0.00    +0.233 C 
ATOM     20  O   UNL     1       5.780  -4.141  20.736  0.00  0.00    -0.274 OA
ATOM     21  C   UNL     1       6.140  -2.598  22.575  0.00  0.00    +0.181 C 
ENDBRANCH  12  13
ENDBRANCH   2  12
TORSDOF 3
ENDMDL
MODEL 8
REMARK VINA RESULT:      -6.1      2.808      5.379
REMARK  Name = 
REMARK  4 active torsions:
REMARK  status: ('A' for Active; 'I' for Inactive)
REMARK    1  A    between atoms: C_1  and  C_2
REMARK    2  A    between atoms: C_2  and  C_4
REMARK    3  A    between atoms: C_2  and  N_13
REMARK    4  A    between atoms: C_4  and  N_5
REMARK                            x       y       z     vdW  Elec       q    Type
REMARK                         _______ _______ _______ _____ _____    ______ ____
ROOT
ATOM      1  C   UNL     1       6.695  -5.533  21.308  0.00  0.00    +0.025 C 
ATOM      2  C   UNL     1       6.283  -4.966  22.684  0.00  0.00    +0.069 C 
ENDROOT
BRANCH   2   3
ATOM      3  N   UNL     1       4.820  -4.683  22.754  0.00  0.00    -0.282 NA
ATOM      4  C   UNL     1       4.444  -3.678  23.777  0.00  0.00    +0.181 C 
ATOM      5  C   UNL     1       4.643  -4.197  25.197  0.00  0.00    +0.233 C 
ATOM      6  O   UNL     1       5.051  -3.483  26.113  0.00  0.00    -0.274 OA
ATOM      7  N   UNL     1       4.337  -5.513  25.409  0.00  0.00    -0.254 N 
ATOM      8  H   UNL     1       4.490  -5.869  26.341  0.00  0.00    +0.158 HD
ATOM      9  C   UNL     1       4.166  -6.446  24.414  0.00  0.00    +0.233 C 
ATOM     10  O   UNL     1       4.141  -7.647  24.671  0.00  0.00    -0.274 OA
ATOM     11  C   UNL     1       3.986  -5.891  23.001  0.00  0.00    +0.181 C 
ENDBRANCH   2   3
BRANCH   2  12
ATOM     12  C   UNL     1       7.254  -3.763  23.035  0.00  0.00    +0.104 C 
BRANCH  12  13
ATOM     13  N   UNL     1       8.556  -4.085  23.650  0.00  0.00    -0.284 NA
ATOM     14  C   UNL     1       8.508  -5.316  24.470  0.00  0.00    +0.181 C 
ATOM     15  C   UNL     1       7.954  -5.103  25.877  0.00  0.00    +0.233 C 
ATOM     16  O   UNL     1       7.347  -5.980  26.487  0.00  0.00    -0.274 OA
ATOM     17  N   UNL     1       8.202  -3.893  26.465  0.00  0.00    -0.254 N 
ATOM     18  H   UNL     1       7.791  -3.751  27.377  0.00  0.00    +0.158 HD
ATOM     19  C   UNL     1       8.556  -2.765  25.774  0.00  0.00    +0.233 C 
ATOM     20  O   UNL     1       8.382  -1.648  26.258  0.00  0.00    -0.274 OA
ATOM     21  C   UNL     1       9.192  -2.992  24.406  0.00  0.00    +0.181 C 
ENDBRANCH  12  13
ENDBRANCH   2  12
TORSDOF 3
ENDMDL
MODEL 9
REMARK VINA RESULT:      -6.1      2.228      2.845
REMARK  Name = 
REMARK  4 active torsions:
REMARK  status: ('A' for Active; 'I' for Inactive)
REMARK    1  A    between atoms: C_1  and  C_2
REMARK    2  A    between atoms: C_2  and  C_4
REMARK    3  A    between atoms: C_2  and  N_13
REMARK    4  A    between atoms: C_4  and  N_5
REMARK                            x       y       z     vdW  Elec       q    Type
REMARK                         _______ _______ _______ _____ _____    ______ ____
ROOT
ATOM      1  C   UNL     1      10.143  -1.543  22.433  0.00  0.00    +0.025 C 
ATOM      2  C   UNL     1       9.160  -1.193  23.572  0.00  0.00    +0.069 C 
ENDROOT
BRANCH   2   3
ATOM      3  N   UNL     1       9.873  -0.785  24.817  0.00  0.00    -0.282 NA
ATOM      4  C   UNL     1       8.980  -0.530  25.973  0.00  0.00    +0.181 C 
ATOM      5  C   UNL     1       8.127   0.719  25.780  0.00  0.00    +0.233 C 
ATOM      6  O   UNL     1       6.959   0.789  26.161  0.00  0.00    -0.274 OA
ATOM      7  N   UNL     1       8.734   1.775  25.159  0.00  0.00    -0.254 N 
ATOM      8  H   UNL     1       8.166   2.596  25.006  0.00  0.00    +0.158 HD
ATOM      9  C   UNL     1       9.905   1.695  24.446  0.00  0.00    +0.233 C 
ATOM     10  O   UNL     1      10.262   2.613  23.711  0.00  0.00    -0.274 OA
ATOM     11  C   UNL     1      10.727   0.422  24.651  0.00  0.00    +0.181 C 
ENDBRANCH   2   3
BRANCH   2  12
ATOM     12  C   UNL     1       8.119  -2.381  23.710  0.00  0.00    +0.104 C 
BRANCH  12  13
ATOM     13  N   UNL     1       8.634  -3.762  23.635  0.00  0.00    -0.284 NA
ATOM     14  C   UNL     1       7.644  -4.707  23.072  0.00  0.00    +0.181 C 
ATOM     15  C   UNL     1       6.614  -5.202  24.086  0.00  0.00    +0.233 C 
ATOM     16  O   UNL     1       5.470  -5.515  23.765  0.00  0.00    -0.274 OA
ATOM     17  N   UNL     1       7.031  -5.331  25.382  0.00  0.00    -0.254 N 
ATOM     18  H   UNL     1       6.327  -5.616  26.048  0.00  0.00    +0.158 HD
ATOM     19  C   UNL     1       8.138  -4.709  25.895  0.00  0.00    +0.233 C 
ATOM     20  O   UNL     1       8.253  -4.523  27.105  0.00  0.00    -0.274 OA
ATOM     21  C   UNL     1       9.204  -4.300  24.883  0.00  0.00    +0.181 C 
ENDBRANCH  12  13
ENDBRANCH   2  12
TORSDOF 3
ENDMDL
