MODEL 1
REMARK VINA RESULT:      -6.7      0.000      0.000
REMARK  Name = 
REMARK  9 active torsions:
REMARK  status: ('A' for Active; 'I' for Inactive)
REMARK    1  A    between atoms: C_4  and  C_5
REMARK    2  A    between atoms: C_10  and  C_11
REMARK    3  A    between atoms: C_10  and  C_12
REMARK    4  A    between atoms: C_16  and  O_17
REMARK    5  A    between atoms: C_19  and  C_20
REMARK    6  A    between atoms: C_20  and  C_21
REMARK    7  A    between atoms: C_21  and  C_22
REMARK    8  A    between atoms: C_22  and  C_23
REMARK    9  A    between atoms: C_23  and  C_24
REMARK                            x       y       z     vdW  Elec       q    Type
REMARK                         _______ _______ _______ _____ _____    ______ ____
ROOT
ATOM      1  C   UNL     1       7.518  -4.428  24.631  0.00  0.00    +0.056 C 
ATOM      2  C   UNL     1       8.072  -3.078  24.987  0.00  0.00    +0.043 A 
ATOM      3  C   UNL     1       9.279  -2.586  24.475  0.00  0.00    +0.124 A 
ATOM      4  C   UNL     1       9.581  -1.234  24.549  0.00  0.00    +0.049 A 
ATOM      5  C   UNL     1       8.689  -0.343  25.147  0.00  0.00    -0.040 A 
ATOM      6  C   UNL     1       7.591  -0.864  25.846  0.00  0.00    +0.049 A 
ATOM      7  C   UNL     1       7.305  -2.232  25.805  0.00  0.00    +0.129 A 
ATOM      8  O   UNL     1       6.230  -2.651  26.544  0.00  0.00    -0.486 OA
ATOM      9  C   UNL     1       5.775  -4.028  26.409  0.00  0.00    +0.109 C 
ATOM     10  C   UNL     1       6.446  -4.908  27.467  0.00  0.00    +0.055 C 
ATOM     11  C   UNL     1       4.272  -3.964  26.753  0.00  0.00    +0.055 C 
ATOM     12  C   UNL     1       5.990  -4.463  24.950  0.00  0.00    +0.044 C 
ATOM     13  C   UNL     1       5.394  -5.772  24.396  0.00  0.00    +0.012 C 
ATOM     14  C   UNL     1       5.581  -5.828  22.844  0.00  0.00    +0.030 C 
ATOM     15  C   UNL     1       6.630  -4.828  22.367  0.00  0.00    -0.076 C 
ATOM     16  C   UNL     1       6.093  -3.502  21.858  0.00  0.00    +0.039 C 
ATOM     17  C   UNL     1       7.730  -4.817  23.151  0.00  0.00    -0.019 C 
ENDROOT
BRANCH   3  18
ATOM     18  O   UNL     1      10.216  -3.363  23.857  0.00  0.00    -0.506 OA
ATOM     19  H   UNL     1      10.407  -4.133  24.416  0.00  0.00    +0.292 HD
ENDBRANCH   3  18
BRANCH   5  20
ATOM     20  C   UNL     1       8.912   1.144  25.017  0.00  0.00    +0.035 C 
BRANCH  20  21
ATOM     21  C   UNL     1      10.276   1.513  24.403  0.00  0.00    +0.005 C 
BRANCH  21  22
ATOM     22  C   UNL     1      10.165   2.333  23.112  0.00  0.00    +0.000 C 
BRANCH  22  23
ATOM     23  C   UNL     1       9.939   1.432  21.895  0.00  0.00    -0.003 C 
ATOM     24  C   UNL     1       8.498   1.493  21.412  0.00  0.00    +0.004 C 
ENDBRANCH  22  23
ENDBRANCH  21  22
ENDBRANCH  20  21
ENDBRANCH   5  20
TORSDOF 5
ENDMDL
MODEL 2
REMARK VINA RESULT:      -6.5      1.787      3.791
REMARK  Name = 
REMARK  9 active torsions:
REMARK  status: ('A' for Active; 'I' for Inactive)
REMARK    1  A    between atoms: C_4  and  C_5
REMARK    2  A    between atoms: C_10  and  C_11
REMARK    3  A    between atoms: C_10  and  C_12
REMARK    4  A    between atoms: C_16  and  O_17
REMARK    5  A    between atoms: C_19  and  C_20
REMARK    6  A    between atoms: C_20  and  C_21
REMARK    7  A    between atoms: C_21  and  C_22
REMARK    8  A    between atoms: C_22  and  C_23
REMARK    9  A    between atoms: C_23  and  C_24
REMARK                            x       y       z     vdW  Elec       q    Type
REMARK                         _______ _______ _______ _____ _____    ______ ____
ROOT
ATOM      1  C   UNL     1       6.021  -2.999  24.299  0.00  0.00    +0.056 C 
ATOM      2  C   UNL     1       6.709  -1.992  23.422  0.00  0.00    +0.043 A 
ATOM      3  C   UNL     1       6.561  -0.609  23.582  0.00  0.00    +0.124 A 
ATOM      4  C   UNL     1       7.457   0.271  22.993  0.00  0.00    +0.049 A 
ATOM      5  C   UNL     1       8.516  -0.209  22.221  0.00  0.00    -0.040 A 
ATOM      6  C   UNL     1       8.534  -1.570  21.887  0.00  0.00    +0.049 A 
ATOM      7  C   UNL     1       7.609  -2.455  22.449  0.00  0.00    +0.129 A 
ATOM      8  O   UNL     1       7.688  -3.759  22.037  0.00  0.00    -0.486 OA
ATOM      9  C   UNL     1       6.870  -4.761  22.708  0.00  0.00    +0.109 C 
ATOM     10  C   UNL     1       5.542  -4.936  21.967  0.00  0.00    +0.055 C 
ATOM     11  C   UNL     1       7.666  -6.072  22.537  0.00  0.00    +0.055 C 
ATOM     12  C   UNL     1       6.758  -4.372  24.192  0.00  0.00    +0.044 C 
ATOM     13  C   UNL     1       6.173  -5.336  25.242  0.00  0.00    +0.012 C 
ATOM     14  C   UNL     1       6.401  -4.760  26.678  0.00  0.00    +0.030 C 
ATOM     15  C   UNL     1       6.738  -3.271  26.642  0.00  0.00    -0.076 C 
ATOM     16  C   UNL     1       8.216  -2.930  26.699  0.00  0.00    +0.039 C 
ATOM     17  C   UNL     1       5.952  -2.584  25.786  0.00  0.00    -0.019 C 
ENDROOT
BRANCH   3  18
ATOM     18  O   UNL     1       5.574  -0.030  24.326  0.00  0.00    -0.506 OA
ATOM     19  H   UNL     1       4.820  -0.639  24.380  0.00  0.00    +0.292 HD
ENDBRANCH   3  18
BRANCH   5  20
ATOM     20  C   UNL     1       9.612   0.730  21.783  0.00  0.00    +0.035 C 
BRANCH  20  21
ATOM     21  C   UNL     1       9.596   2.085  22.517  0.00  0.00    +0.005 C 
BRANCH  21  22
ATOM     22  C   UNL     1      10.606   2.169  23.669  0.00  0.00    +0.000 C 
BRANCH  22  23
ATOM     23  C   UNL     1      11.042   0.777  24.132  0.00  0.00    -0.003 C 
ATOM     24  C   UNL     1      10.208   0.289  25.307  0.00  0.00    +0.004 C 
ENDBRANCH  22  23
ENDBRANCH  21  22
ENDBRANCH  20  21
ENDBRANCH   5  20
TORSDOF 5
ENDMDL
MODEL 3
REMARK VINA RESULT:      -6.5      1.586      2.178
REMARK  Name = 
REMARK  9 active torsions:
REMARK  status: ('A' for Active; 'I' for Inactive)
REMARK    1  A    between atoms: C_4  and  C_5
REMARK    2  A    between atoms: C_10  and  C_11
REMARK    3  A    between atoms: C_10  and  C_12
REMARK    4  A    between atoms: C_16  and  O_17
REMARK    5  A    between atoms: C_19  and  C_20
REMARK    6  A    between atoms: C_20  and  C_21
REMARK    7  A    between atoms: C_21  and  C_22
REMARK    8  A    between atoms: C_22  and  C_23
REMARK    9  A    between atoms: C_23  and  C_24
REMARK                            x       y       z     vdW  Elec       q    Type
REMARK                         _______ _______ _______ _____ _____    ______ ____
ROOT
ATOM      1  C   UNL     1       8.509  -3.555  23.713  0.00  0.00    +0.056 C 
ATOM      2  C   UNL     1       8.975  -2.174  24.079  0.00  0.00    +0.043 A 
ATOM      3  C   UNL     1       9.628  -1.322  23.179  0.00  0.00    +0.124 A 
ATOM      4  C   UNL     1       9.731   0.036  23.439  0.00  0.00    +0.049 A 
ATOM      5  C   UNL     1       9.196   0.575  24.610  0.00  0.00    -0.040 A 
ATOM      6  C   UNL     1       8.739  -0.305  25.601  0.00  0.00    +0.049 A 
ATOM      7  C   UNL     1       8.668  -1.680  25.357  0.00  0.00    +0.129 A 
ATOM      8  O   UNL     1       8.239  -2.461  26.397  0.00  0.00    -0.486 OA
ATOM      9  C   UNL     1       7.979  -3.875  26.157  0.00  0.00    +0.109 C 
ATOM     10  C   UNL     1       9.231  -4.698  26.468  0.00  0.00    +0.055 C 
ATOM     11  C   UNL     1       6.914  -4.245  27.210  0.00  0.00    +0.055 C 
ATOM     12  C   UNL     1       7.422  -4.023  24.731  0.00  0.00    +0.044 C 
ATOM     13  C   UNL     1       6.809  -5.347  24.233  0.00  0.00    +0.012 C 
ATOM     14  C   UNL     1       6.127  -5.127  22.843  0.00  0.00    +0.030 C 
ATOM     15  C   UNL     1       6.598  -3.834  22.182  0.00  0.00    -0.076 C 
ATOM     16  C   UNL     1       5.693  -2.630  22.373  0.00  0.00    +0.039 C 
ATOM     17  C   UNL     1       7.933  -3.658  22.283  0.00  0.00    -0.019 C 
ENDROOT
BRANCH   3  18
ATOM     18  O   UNL     1      10.174  -1.736  21.999  0.00  0.00    -0.506 OA
ATOM     19  H   UNL     1       9.715  -1.295  21.266  0.00  0.00    +0.292 HD
ENDBRANCH   3  18
BRANCH   5  20
ATOM     20  C   UNL     1       9.104   2.072  24.776  0.00  0.00    +0.035 C 
BRANCH  20  21
ATOM     21  C   UNL     1       9.228   2.849  23.451  0.00  0.00    +0.005 C 
BRANCH  21  22
ATOM     22  C   UNL     1      10.040   4.144  23.574  0.00  0.00    +0.000 C 
BRANCH  22  23
ATOM     23  C   UNL     1      11.539   3.882  23.404  0.00  0.00    -0.003 C 
ATOM     24  C   UNL     1      12.341   5.175  23.432  0.00  0.00    +0.004 C 
ENDBRANCH  22  23
ENDBRANCH  21  22
ENDBRANCH  20  21
ENDBRANCH   5  20
TORSDOF 5
ENDMDL
MODEL 4
REMARK VINA RESULT:      -6.5      2.138      6.615
REMARK  Name = 
REMARK  9 active torsions:
REMARK  status: ('A' for Active; 'I' for Inactive)
REMARK    1  A    between atoms: C_4  and  C_5
REMARK    2  A    between atoms: C_10  and  C_11
REMARK    3  A    between atoms: C_10  and  C_12
REMARK    4  A    between atoms: C_16  and  O_17
REMARK    5  A    between atoms: C_19  and  C_20
REMARK    6  A    between atoms: C_20  and  C_21
REMARK    7  A    between atoms: C_21  and  C_22
REMARK    8  A    between atoms: C_22  and  C_23
REMARK    9  A    between atoms: C_23  and  C_24
REMARK                            x       y       z     vdW  Elec       q    Type
REMARK                         _______ _______ _______ _____ _____    ______ ____
ROOT
ATOM      1  C   UNL     1       8.594   1.079  22.501  0.00  0.00    +0.056 C 
ATOM      2  C   UNL     1       7.929  -0.254  22.693  0.00  0.00    +0.043 A 
ATOM      3  C   UNL     1       8.399  -1.436  22.108  0.00  0.00    +0.124 A 
ATOM      4  C   UNL     1       7.977  -2.673  22.573  0.00  0.00    +0.049 A 
ATOM      5  C   UNL     1       7.065  -2.758  23.625  0.00  0.00    -0.040 A 
ATOM      6  C   UNL     1       6.436  -1.584  24.060  0.00  0.00    +0.049 A 
ATOM      7  C   UNL     1       6.833  -0.337  23.566  0.00  0.00    +0.129 A 
ATOM      8  O   UNL     1       6.138   0.749  24.028  0.00  0.00    -0.486 OA
ATOM      9  C   UNL     1       6.610   2.085  23.688  0.00  0.00    +0.109 C 
ATOM     10  C   UNL     1       5.917   2.578  22.415  0.00  0.00    +0.055 C 
ATOM     11  C   UNL     1       6.112   2.968  24.852  0.00  0.00    +0.055 C 
ATOM     12  C   UNL     1       8.147   2.051  23.638  0.00  0.00    +0.044 C 
ATOM     13  C   UNL     1       8.984   3.342  23.550  0.00  0.00    +0.012 C 
ATOM     14  C   UNL     1      10.500   3.007  23.749  0.00  0.00    +0.030 C 
ATOM     15  C   UNL     1      10.778   1.519  23.556  0.00  0.00    -0.076 C 
ATOM     16  C   UNL     1      10.834   0.690  24.827  0.00  0.00    +0.039 C 
ATOM     17  C   UNL     1      10.138   1.007  22.483  0.00  0.00    -0.019 C 
ENDROOT
BRANCH   3  18
ATOM     18  O   UNL     1       9.303  -1.472  21.086  0.00  0.00    -0.506 OA
ATOM     19  H   UNL     1      10.193  -1.596  21.454  0.00  0.00    +0.292 HD
ENDBRANCH   3  18
BRANCH   5  20
ATOM     20  C   UNL     1       6.791  -4.092  24.277  0.00  0.00    +0.035 C 
BRANCH  20  21
ATOM     21  C   UNL     1       5.301  -4.485  24.277  0.00  0.00    +0.005 C 
BRANCH  21  22
ATOM     22  C   UNL     1       4.854  -5.192  22.992  0.00  0.00    +0.000 C 
BRANCH  22  23
ATOM     23  C   UNL     1       5.974  -6.059  22.412  0.00  0.00    -0.003 C 
ATOM     24  C   UNL     1       6.257  -5.712  20.958  0.00  0.00    +0.004 C 
ENDBRANCH  22  23
ENDBRANCH  21  22
ENDBRANCH  20  21
ENDBRANCH   5  20
TORSDOF 5
ENDMDL
MODEL 5
REMARK VINA RESULT:      -6.5      1.345      3.369
REMARK  Name = 
REMARK  9 active torsions:
REMARK  status: ('A' for Active; 'I' for Inactive)
REMARK    1  A    between atoms: C_4  and  C_5
REMARK    2  A    between atoms: C_10  and  C_11
REMARK    3  A    between atoms: C_10  and  C_12
REMARK    4  A    between atoms: C_16  and  O_17
REMARK    5  A    between atoms: C_19  and  C_20
REMARK    6  A    between atoms: C_20  and  C_21
REMARK    7  A    between atoms: C_21  and  C_22
REMARK    8  A    between atoms: C_22  and  C_23
REMARK    9  A    between atoms: C_23  and  C_24
REMARK                            x       y       z     vdW  Elec       q    Type
REMARK                         _______ _______ _______ _____ _____    ______ ____
ROOT
ATOM      1  C   UNL     1       5.394  -3.353  24.131  0.00  0.00    +0.056 C 
ATOM      2  C   UNL     1       6.473  -2.306  24.133  0.00  0.00    +0.043 A 
ATOM      3  C   UNL     1       6.325  -1.055  24.743  0.00  0.00    +0.124 A 
ATOM      4  C   UNL     1       7.432  -0.267  25.020  0.00  0.00    +0.049 A 
ATOM      5  C   UNL     1       8.713  -0.705  24.683  0.00  0.00    -0.040 A 
ATOM      6  C   UNL     1       8.838  -1.850  23.883  0.00  0.00    +0.049 A 
ATOM      7  C   UNL     1       7.719  -2.627  23.571  0.00  0.00    +0.129 A 
ATOM      8  O   UNL     1       7.937  -3.708  22.759  0.00  0.00    -0.486 OA
ATOM      9  C   UNL     1       6.851  -4.654  22.536  0.00  0.00    +0.109 C 
ATOM     10  C   UNL     1       6.067  -4.265  21.279  0.00  0.00    +0.055 C 
ATOM     11  C   UNL     1       7.567  -5.986  22.235  0.00  0.00    +0.055 C 
ATOM     12  C   UNL     1       6.026  -4.749  23.830  0.00  0.00    +0.044 C 
ATOM     13  C   UNL     1       4.952  -5.836  24.030  0.00  0.00    +0.012 C 
ATOM     14  C   UNL     1       4.452  -5.824  25.513  0.00  0.00    +0.030 C 
ATOM     15  C   UNL     1       4.826  -4.526  26.223  0.00  0.00    -0.076 C 
ATOM     16  C   UNL     1       6.089  -4.576  27.064  0.00  0.00    +0.039 C 
ATOM     17  C   UNL     1       4.606  -3.435  25.458  0.00  0.00    -0.019 C 
ENDROOT
BRANCH   3  18
ATOM     18  O   UNL     1       5.124  -0.534  25.129  0.00  0.00    -0.506 OA
ATOM     19  H   UNL     1       4.928  -0.826  26.035  0.00  0.00    +0.292 HD
ENDBRANCH   3  18
BRANCH   5  20
ATOM     20  C   UNL     1       9.922   0.042  25.192  0.00  0.00    +0.035 C 
BRANCH  20  21
ATOM     21  C   UNL     1      10.833   0.581  24.072  0.00  0.00    +0.005 C 
BRANCH  21  22
ATOM     22  C   UNL     1      10.254   1.801  23.346  0.00  0.00    +0.000 C 
BRANCH  22  23
ATOM     23  C   UNL     1       9.819   1.449  21.921  0.00  0.00    -0.003 C 
ATOM     24  C   UNL     1       8.341   1.737  21.699  0.00  0.00    +0.004 C 
ENDBRANCH  22  23
ENDBRANCH  21  22
ENDBRANCH  20  21
ENDBRANCH   5  20
TORSDOF 5
ENDMDL
MODEL 6
REMARK VINA RESULT:      -6.4      1.646      2.062
REMARK  Name = 
REMARK  9 active torsions:
REMARK  status: ('A' for Active; 'I' for Inactive)
REMARK    1  A    between atoms: C_4  and  C_5
REMARK    2  A    between atoms: C_10  and  C_11
REMARK    3  A    between atoms: C_10  and  C_12
REMARK    4  A    between atoms: C_16  and  O_17
REMARK    5  A    between atoms: C_19  and  C_20
REMARK    6  A    between atoms: C_20  and  C_21
REMARK    7  A    between atoms: C_21  and  C_22
REMARK    8  A    between atoms: C_22  and  C_23
REMARK    9  A    between atoms: C_23  and  C_24
REMARK                            x       y       z     vdW  Elec       q    Type
REMARK                         _______ _______ _______ _____ _____    ______ ____
ROOT
ATOM      1  C   UNL     1       8.506  -3.564  23.679  0.00  0.00    +0.056 C 
ATOM      2  C   UNL     1       9.054  -2.201  23.996  0.00  0.00    +0.043 A 
ATOM      3  C   UNL     1       9.742  -1.416  23.063  0.00  0.00    +0.124 A 
ATOM      4  C   UNL     1       9.926  -0.058  23.278  0.00  0.00    +0.049 A 
ATOM      5  C   UNL     1       9.437   0.546  24.437  0.00  0.00    -0.040 A 
ATOM      6  C   UNL     1       8.944  -0.275  25.460  0.00  0.00    +0.049 A 
ATOM      7  C   UNL     1       8.792  -1.650  25.261  0.00  0.00    +0.129 A 
ATOM      8  O   UNL     1       8.332  -2.373  26.330  0.00  0.00    -0.486 OA
ATOM      9  C   UNL     1       7.989  -3.776  26.138  0.00  0.00    +0.109 C 
ATOM     10  C   UNL     1       9.197  -4.660  26.461  0.00  0.00    +0.055 C 
ATOM     11  C   UNL     1       6.918  -4.052  27.213  0.00  0.00    +0.055 C 
ATOM     12  C   UNL     1       7.407  -3.937  24.724  0.00  0.00    +0.044 C 
ATOM     13  C   UNL     1       6.713  -5.238  24.275  0.00  0.00    +0.012 C 
ATOM     14  C   UNL     1       6.027  -5.023  22.885  0.00  0.00    +0.030 C 
ATOM     15  C   UNL     1       6.562  -3.780  22.179  0.00  0.00    -0.076 C 
ATOM     16  C   UNL     1       5.730  -2.521  22.341  0.00  0.00    +0.039 C 
ATOM     17  C   UNL     1       7.906  -3.678  22.259  0.00  0.00    -0.019 C 
ENDROOT
BRANCH   3  18
ATOM     18  O   UNL     1      10.249  -1.898  21.890  0.00  0.00    -0.506 OA
ATOM     19  H   UNL     1      10.911  -1.272  21.551  0.00  0.00    +0.292 HD
ENDBRANCH   3  18
BRANCH   5  20
ATOM     20  C   UNL     1       9.433   2.050  24.556  0.00  0.00    +0.035 C 
BRANCH  20  21
ATOM     21  C   UNL     1       8.033   2.647  24.796  0.00  0.00    +0.005 C 
BRANCH  21  22
ATOM     22  C   UNL     1       7.054   2.397  23.642  0.00  0.00    +0.000 C 
BRANCH  22  23
ATOM     23  C   UNL     1       7.561   3.014  22.336  0.00  0.00    -0.003 C 
ATOM     24  C   UNL     1       7.249   4.502  22.260  0.00  0.00    +0.004 C 
ENDBRANCH  22  23
ENDBRANCH  21  22
ENDBRANCH  20  21
ENDBRANCH   5  20
TORSDOF 5
ENDMDL
MODEL 7
REMARK VINA RESULT:      -6.3      1.377      1.874
REMARK  Name = 
REMARK  9 active torsions:
REMARK  status: ('A' for Active; 'I' for Inactive)
REMARK    1  A    between atoms: C_4  and  C_5
REMARK    2  A    between atoms: C_10  and  C_11
REMARK    3  A    between atoms: C_10  and  C_12
REMARK    4  A    between atoms: C_16  and  O_17
REMARK    5  A    between atoms: C_19  and  C_20
REMARK    6  A    between atoms: C_20  and  C_21
REMARK    7  A    between atoms: C_21  and  C_22
REMARK    8  A    between atoms: C_22  and  C_23
REMARK    9  A    between atoms: C_23  and  C_24
REMARK                            x       y       z     vdW  Elec       q    Type
REMARK                         _______ _______ _______ _____ _____    ______ ____
ROOT
ATOM      1  C   UNL     1       7.337  -3.865  24.530  0.00  0.00    +0.056 C 
ATOM      2  C   UNL     1       7.808  -2.496  24.128  0.00  0.00    +0.043 A 
ATOM      3  C   UNL     1       9.086  -2.245  23.615  0.00  0.00    +0.124 A 
ATOM      4  C   UNL     1       9.362  -1.060  22.948  0.00  0.00    +0.049 A 
ATOM      5  C   UNL     1       8.370  -0.092  22.789  0.00  0.00    -0.040 A 
ATOM      6  C   UNL     1       7.164  -0.251  23.486  0.00  0.00    +0.049 A 
ATOM      7  C   UNL     1       6.897  -1.428  24.191  0.00  0.00    +0.129 A 
ATOM      8  O   UNL     1       5.706  -1.477  24.865  0.00  0.00    -0.486 OA
ATOM      9  C   UNL     1       5.291  -2.733  25.475  0.00  0.00    +0.109 C 
ATOM     10  C   UNL     1       5.758  -2.789  26.932  0.00  0.00    +0.055 C 
ATOM     11  C   UNL     1       3.751  -2.653  25.491  0.00  0.00    +0.055 C 
ATOM     12  C   UNL     1       5.776  -3.884  24.577  0.00  0.00    +0.044 C 
ATOM     13  C   UNL     1       5.301  -5.335  24.789  0.00  0.00    +0.012 C 
ATOM     14  C   UNL     1       5.774  -6.229  23.596  0.00  0.00    +0.030 C 
ATOM     15  C   UNL     1       6.889  -5.559  22.797  0.00  0.00    -0.076 C 
ATOM     16  C   UNL     1       6.448  -4.816  21.549  0.00  0.00    +0.039 C 
ATOM     17  C   UNL     1       7.823  -4.990  23.588  0.00  0.00    -0.019 C 
ENDROOT
BRANCH   3  18
ATOM     18  O   UNL     1      10.126  -3.125  23.700  0.00  0.00    -0.506 OA
ATOM     19  H   UNL     1      10.539  -3.213  22.825  0.00  0.00    +0.292 HD
ENDBRANCH   3  18
BRANCH   5  20
ATOM     20  C   UNL     1       8.605   1.080  21.868  0.00  0.00    +0.035 C 
BRANCH  20  21
ATOM     21  C   UNL     1       9.996   1.723  22.029  0.00  0.00    +0.005 C 
BRANCH  21  22
ATOM     22  C   UNL     1      10.178   2.464  23.359  0.00  0.00    +0.000 C 
BRANCH  22  23
ATOM     23  C   UNL     1       9.057   3.482  23.590  0.00  0.00    -0.003 C 
ATOM     24  C   UNL     1       8.432   3.325  24.968  0.00  0.00    +0.004 C 
ENDBRANCH  22  23
ENDBRANCH  21  22
ENDBRANCH  20  21
ENDBRANCH   5  20
TORSDOF 5
ENDMDL
MODEL 8
REMARK VINA RESULT:      -6.3      1.718      3.402
REMARK  Name = 
REMARK  9 active torsions:
REMARK  status: ('A' for Active; 'I' for Inactive)
REMARK    1  A    between atoms: C_4  and  C_5
REMARK    2  A    between atoms: C_10  and  C_11
REMARK    3  A    between atoms: C_10  and  C_12
REMARK    4  A    between atoms: C_16  and  O_17
REMARK    5  A    between atoms: C_19  and  C_20
REMARK    6  A    between atoms: C_20  and  C_21
REMARK    7  A    between atoms: C_21  and  C_22
REMARK    8  A    between atoms: C_22  and  C_23
REMARK    9  A    between atoms: C_23  and  C_24
REMARK                            x       y       z     vdW  Elec       q    Type
REMARK                         _______ _______ _______ _____ _____    ______ ____
ROOT
ATOM      1  C   UNL     1       6.328  -3.336  25.284  0.00  0.00    +0.056 C 
ATOM      2  C   UNL     1       7.028  -2.338  24.407  0.00  0.00    +0.043 A 
ATOM      3  C   UNL     1       7.494  -1.102  24.873  0.00  0.00    +0.124 A 
ATOM      4  C   UNL     1       8.418  -0.372  24.140  0.00  0.00    +0.049 A 
ATOM      5  C   UNL     1       8.889  -0.852  22.918  0.00  0.00    -0.040 A 
ATOM      6  C   UNL     1       8.264  -1.974  22.355  0.00  0.00    +0.049 A 
ATOM      7  C   UNL     1       7.305  -2.692  23.076  0.00  0.00    +0.129 A 
ATOM      8  O   UNL     1       6.728  -3.754  22.431  0.00  0.00    -0.486 OA
ATOM      9  C   UNL     1       5.851  -4.643  23.181  0.00  0.00    +0.109 C 
ATOM     10  C   UNL     1       4.398  -4.179  23.051  0.00  0.00    +0.055 C 
ATOM     11  C   UNL     1       5.968  -5.995  22.446  0.00  0.00    +0.055 C 
ATOM     12  C   UNL     1       6.391  -4.747  24.618  0.00  0.00    +0.044 C 
ATOM     13  C   UNL     1       5.853  -5.794  25.613  0.00  0.00    +0.012 C 
ATOM     14  C   UNL     1       6.742  -5.811  26.899  0.00  0.00    +0.030 C 
ATOM     15  C   UNL     1       7.602  -4.554  27.007  0.00  0.00    -0.076 C 
ATOM     16  C   UNL     1       9.027  -4.687  26.498  0.00  0.00    +0.039 C 
ATOM     17  C   UNL     1       6.916  -3.430  26.710  0.00  0.00    -0.019 C 
ENDROOT
BRANCH   3  18
ATOM     18  O   UNL     1       7.114  -0.544  26.059  0.00  0.00    -0.506 OA
ATOM     19  H   UNL     1       6.371   0.062  25.900  0.00  0.00    +0.292 HD
ENDBRANCH   3  18
BRANCH   5  20
ATOM     20  C   UNL     1      10.058  -0.175  22.244  0.00  0.00    +0.035 C 
BRANCH  20  21
ATOM     21  C   UNL     1       9.842   1.331  22.000  0.00  0.00    +0.005 C 
BRANCH  21  22
ATOM     22  C   UNL     1       8.527   1.653  21.279  0.00  0.00    +0.000 C 
BRANCH  22  23
ATOM     23  C   UNL     1       7.730   2.727  22.024  0.00  0.00    -0.003 C 
ATOM     24  C   UNL     1       6.392   2.194  22.514  0.00  0.00    +0.004 C 
ENDBRANCH  22  23
ENDBRANCH  21  22
ENDBRANCH  20  21
ENDBRANCH   5  20
TORSDOF 5
ENDMDL
MODEL 9
REMARK VINA RESULT:      -6.1      2.168      6.601
REMARK  Name = 
REMARK  9 active torsions:
REMARK  status: ('A' for Active; 'I' for Inactive)
REMARK    1  A    between atoms: C_4  and  C_5
REMARK    2  A    between atoms: C_10  and  C_11
REMARK    3  A    between atoms: C_10  and  C_12
REMARK    4  A    between atoms: C_16  and  O_17
REMARK    5  A    between atoms: C_19  and  C_20
REMARK    6  A    between atoms: C_20  and  C_21
REMARK    7  A    between atoms: C_21  and  C_22
REMARK    8  A    between atoms: C_22  and  C_23
REMARK    9  A    between atoms: C_23  and  C_24
REMARK                            x       y       z     vdW  Elec       q    Type
REMARK                         _______ _______ _______ _____ _____    ______ ____
ROOT
ATOM      1  C   UNL     1       8.508   1.350  22.451  0.00  0.00    +0.056 C 
ATOM      2  C   UNL     1       8.069  -0.077  22.612  0.00  0.00    +0.043 A 
ATOM      3  C   UNL     1       8.644  -1.140  21.903  0.00  0.00    +0.124 A 
ATOM      4  C   UNL     1       8.459  -2.450  22.318  0.00  0.00    +0.049 A 
ATOM      5  C   UNL     1       7.684  -2.732  23.444  0.00  0.00    -0.040 A 
ATOM      6  C   UNL     1       6.938  -1.693  24.019  0.00  0.00    +0.049 A 
ATOM      7  C   UNL     1       7.095  -0.375  23.578  0.00  0.00    +0.129 A 
ATOM      8  O   UNL     1       6.300   0.565  24.179  0.00  0.00    -0.486 OA
ATOM      9  C   UNL     1       6.533   1.974  23.890  0.00  0.00    +0.109 C 
ATOM     10  C   UNL     1       5.646   2.425  22.726  0.00  0.00    +0.055 C 
ATOM     11  C   UNL     1       6.036   2.705  25.154  0.00  0.00    +0.055 C 
ATOM     12  C   UNL     1       8.045   2.178  23.691  0.00  0.00    +0.044 C 
ATOM     13  C   UNL     1       8.670   3.585  23.615  0.00  0.00    +0.012 C 
ATOM     14  C   UNL     1      10.231   3.475  23.644  0.00  0.00    +0.030 C 
ATOM     15  C   UNL     1      10.702   2.060  23.322  0.00  0.00    -0.076 C 
ATOM     16  C   UNL     1      11.012   1.181  24.520  0.00  0.00    +0.039 C 
ATOM     17  C   UNL     1      10.035   1.516  22.281  0.00  0.00    -0.019 C 
ENDROOT
BRANCH   3  18
ATOM     18  O   UNL     1       9.431  -0.981  20.799  0.00  0.00    -0.506 OA
ATOM     19  H   UNL     1      10.020  -1.749  20.717  0.00  0.00    +0.292 HD
ENDBRANCH   3  18
BRANCH   5  20
ATOM     20  C   UNL     1       7.678  -4.125  24.024  0.00  0.00    +0.035 C 
BRANCH  20  21
ATOM     21  C   UNL     1       8.615  -4.294  25.236  0.00  0.00    +0.005 C 
BRANCH  21  22
ATOM     22  C   UNL     1       8.050  -5.219  26.322  0.00  0.00    +0.000 C 
BRANCH  22  23
ATOM     23  C   UNL     1       6.523  -5.137  26.387  0.00  0.00    -0.003 C 
ATOM     24  C   UNL     1       6.061  -4.031  27.324  0.00  0.00    +0.004 C 
ENDBRANCH  22  23
ENDBRANCH  21  22
ENDBRANCH  20  21
ENDBRANCH   5  20
TORSDOF 5
ENDMDL
