MODEL 1
REMARK VINA RESULT:      -7.1      0.000      0.000
REMARK  Name = 
REMARK  4 active torsions:
REMARK  status: ('A' for Active; 'I' for Inactive)
REMARK    1  A    between atoms: O_1  and  C_2
REMARK    2  A    between atoms: C_7  and  C_9
REMARK    3  A    between atoms: C_12  and  O_13
REMARK    4  A    between atoms: C_17  and  C_18
REMARK                            x       y       z     vdW  Elec       q    Type
REMARK                         _______ _______ _______ _____ _____    ______ ____
ROOT
ATOM      1  C   UNL     1       7.434  -5.431  26.869  0.00  0.00    +0.120 A 
ATOM      2  C   UNL     1       6.638  -5.753  25.769  0.00  0.00    +0.057 A 
ATOM      3  C   UNL     1       6.580  -4.922  24.634  0.00  0.00    +0.022 A 
ATOM      4  C   UNL     1       7.399  -3.788  24.677  0.00  0.00    +0.163 A 
ATOM      5  O   UNL     1       7.592  -2.814  23.723  0.00  0.00    -0.435 OA
ATOM      6  C   UNL     1       8.496  -1.956  24.304  0.00  0.00    +0.229 A 
ATOM      7  N   UNL     1       8.870  -2.296  25.523  0.00  0.00    -0.209 NA
ATOM      8  C   UNL     1       8.193  -3.456  25.766  0.00  0.00    +0.114 A 
ATOM      9  C   UNL     1       8.218  -4.280  26.897  0.00  0.00    +0.077 A 
ENDROOT
BRANCH   6  10
ATOM     10  C   UNL     1       8.972  -0.811  23.529  0.00  0.00    +0.040 A 
ATOM     11  C   UNL     1       9.784   0.135  24.178  0.00  0.00    +0.055 A 
ATOM     12  C   UNL     1      10.307   1.218  23.483  0.00  0.00    +0.165 A 
ATOM     13  F   UNL     1      11.091   2.089  24.134  0.00  0.00    -0.202 F 
ATOM     14  C   UNL     1      10.033   1.386  22.130  0.00  0.00    +0.152 A 
ATOM     15  C   UNL     1       9.214   0.473  21.469  0.00  0.00    +0.049 A 
ATOM     16  C   UNL     1       8.683  -0.623  22.169  0.00  0.00    +0.017 A 
BRANCH  14  17
ATOM     17  O   UNL     1      10.585   2.447  21.473  0.00  0.00    -0.504 OA
ATOM     18  H   UNL     1      10.079   3.251  21.675  0.00  0.00    +0.292 HD
ENDBRANCH  14  17
ENDBRANCH   6  10
BRANCH   1  19
ATOM     19  O   UNL     1       7.425  -6.294  27.928  0.00  0.00    -0.507 OA
ATOM     20  H   UNL     1       8.332  -6.604  28.090  0.00  0.00    +0.292 HD
ENDBRANCH   1  19
BRANCH   3  21
ATOM     21  C   UNL     1       5.785  -5.203  23.440  0.00  0.00    +0.004 C 
ATOM     22  C   UNL     1       6.208  -5.977  22.429  0.00  0.00    +0.009 C 
ENDBRANCH   3  21
TORSDOF 4
ENDMDL
MODEL 2
REMARK VINA RESULT:      -6.8      1.124      1.553
REMARK  Name = 
REMARK  4 active torsions:
REMARK  status: ('A' for Active; 'I' for Inactive)
REMARK    1  A    between atoms: O_1  and  C_2
REMARK    2  A    between atoms: C_7  and  C_9
REMARK    3  A    between atoms: C_12  and  O_13
REMARK    4  A    between atoms: C_17  and  C_18
REMARK                            x       y       z     vdW  Elec       q    Type
REMARK                         _______ _______ _______ _____ _____    ______ ____
ROOT
ATOM      1  C   UNL     1       6.727  -5.475  26.535  0.00  0.00    +0.120 A 
ATOM      2  C   UNL     1       6.265  -5.817  25.263  0.00  0.00    +0.057 A 
ATOM      3  C   UNL     1       6.491  -4.986  24.149  0.00  0.00    +0.022 A 
ATOM      4  C   UNL     1       7.237  -3.830  24.404  0.00  0.00    +0.163 A 
ATOM      5  O   UNL     1       7.653  -2.848  23.532  0.00  0.00    -0.435 OA
ATOM      6  C   UNL     1       8.343  -1.966  24.330  0.00  0.00    +0.229 A 
ATOM      7  N   UNL     1       8.385  -2.298  25.606  0.00  0.00    -0.209 NA
ATOM      8  C   UNL     1       7.700  -3.477  25.665  0.00  0.00    +0.114 A 
ATOM      9  C   UNL     1       7.443  -4.303  26.766  0.00  0.00    +0.077 A 
ENDROOT
BRANCH   6  10
ATOM     10  C   UNL     1       8.978  -0.806  23.705  0.00  0.00    +0.040 A 
ATOM     11  C   UNL     1       8.594  -0.468  22.396  0.00  0.00    +0.055 A 
ATOM     12  C   UNL     1       9.124   0.652  21.768  0.00  0.00    +0.165 A 
ATOM     13  F   UNL     1       8.720   0.950  20.525  0.00  0.00    -0.202 F 
ATOM     14  C   UNL     1      10.048   1.457  22.424  0.00  0.00    +0.152 A 
ATOM     15  C   UNL     1      10.460   1.131  23.714  0.00  0.00    +0.049 A 
ATOM     16  C   UNL     1       9.926  -0.000  24.353  0.00  0.00    +0.017 A 
BRANCH  14  17
ATOM     17  O   UNL     1      10.529   2.563  21.785  0.00  0.00    -0.504 OA
ATOM     18  H   UNL     1      11.094   3.067  22.392  0.00  0.00    +0.292 HD
ENDBRANCH  14  17
ENDBRANCH   6  10
BRANCH   1  19
ATOM     19  O   UNL     1       6.458  -6.340  27.558  0.00  0.00    -0.507 OA
ATOM     20  H   UNL     1       6.859  -7.202  27.355  0.00  0.00    +0.292 HD
ENDBRANCH   1  19
BRANCH   3  21
ATOM     21  C   UNL     1       6.055  -5.286  22.787  0.00  0.00    +0.004 C 
ATOM     22  C   UNL     1       6.777  -6.006  21.915  0.00  0.00    +0.009 C 
ENDBRANCH   3  21
TORSDOF 4
ENDMDL
MODEL 3
REMARK VINA RESULT:      -6.8      1.790      3.119
REMARK  Name = 
REMARK  4 active torsions:
REMARK  status: ('A' for Active; 'I' for Inactive)
REMARK    1  A    between atoms: O_1  and  C_2
REMARK    2  A    between atoms: C_7  and  C_9
REMARK    3  A    between atoms: C_12  and  O_13
REMARK    4  A    between atoms: C_17  and  C_18
REMARK                            x       y       z     vdW  Elec       q    Type
REMARK                         _______ _______ _______ _____ _____    ______ ____
ROOT
ATOM      1  C   UNL     1       5.917  -5.526  22.496  0.00  0.00    +0.120 A 
ATOM      2  C   UNL     1       5.953  -5.639  23.887  0.00  0.00    +0.057 A 
ATOM      3  C   UNL     1       6.686  -4.735  24.680  0.00  0.00    +0.022 A 
ATOM      4  C   UNL     1       7.331  -3.709  23.981  0.00  0.00    +0.163 A 
ATOM      5  O   UNL     1       8.084  -2.662  24.465  0.00  0.00    -0.435 OA
ATOM      6  C   UNL     1       8.462  -1.976  23.334  0.00  0.00    +0.229 A 
ATOM      7  N   UNL     1       8.029  -2.500  22.204  0.00  0.00    -0.209 NA
ATOM      8  C   UNL     1       7.305  -3.587  22.598  0.00  0.00    +0.114 A 
ATOM      9  C   UNL     1       6.593  -4.510  21.823  0.00  0.00    +0.077 A 
ENDROOT
BRANCH   6  10
ATOM     10  C   UNL     1       9.247  -0.752  23.488  0.00  0.00    +0.040 A 
ATOM     11  C   UNL     1       9.371   0.099  22.376  0.00  0.00    +0.055 A 
ATOM     12  C   UNL     1      10.063   1.300  22.475  0.00  0.00    +0.165 A 
ATOM     13  F   UNL     1      10.144   2.091  21.396  0.00  0.00    -0.202 F 
ATOM     14  C   UNL     1      10.646   1.681  23.678  0.00  0.00    +0.152 A 
ATOM     15  C   UNL     1      10.555   0.845  24.789  0.00  0.00    +0.049 A 
ATOM     16  C   UNL     1       9.857  -0.370  24.693  0.00  0.00    +0.017 A 
BRANCH  14  17
ATOM     17  O   UNL     1      11.296   2.879  23.744  0.00  0.00    -0.504 OA
ATOM     18  H   UNL     1      11.720   3.065  22.891  0.00  0.00    +0.292 HD
ENDBRANCH  14  17
ENDBRANCH   6  10
BRANCH   1  19
ATOM     19  O   UNL     1       5.184  -6.450  21.807  0.00  0.00    -0.507 OA
ATOM     20  H   UNL     1       4.491  -5.991  21.302  0.00  0.00    +0.292 HD
ENDBRANCH   1  19
BRANCH   3  21
ATOM     21  C   UNL     1       6.755  -4.779  26.139  0.00  0.00    +0.004 C 
ATOM     22  C   UNL     1       7.813  -5.246  26.820  0.00  0.00    +0.009 C 
ENDBRANCH   3  21
TORSDOF 4
ENDMDL
MODEL 4
REMARK VINA RESULT:      -6.8      2.138      3.112
REMARK  Name = 
REMARK  4 active torsions:
REMARK  status: ('A' for Active; 'I' for Inactive)
REMARK    1  A    between atoms: O_1  and  C_2
REMARK    2  A    between atoms: C_7  and  C_9
REMARK    3  A    between atoms: C_12  and  O_13
REMARK    4  A    between atoms: C_17  and  C_18
REMARK                            x       y       z     vdW  Elec       q    Type
REMARK                         _______ _______ _______ _____ _____    ______ ____
ROOT
ATOM      1  C   UNL     1       4.959  -6.423  23.902  0.00  0.00    +0.120 A 
ATOM      2  C   UNL     1       5.449  -6.154  25.181  0.00  0.00    +0.057 A 
ATOM      3  C   UNL     1       6.305  -5.063  25.427  0.00  0.00    +0.022 A 
ATOM      4  C   UNL     1       6.589  -4.260  24.317  0.00  0.00    +0.163 A 
ATOM      5  O   UNL     1       7.351  -3.115  24.238  0.00  0.00    -0.435 OA
ATOM      6  C   UNL     1       7.279  -2.759  22.912  0.00  0.00    +0.229 A 
ATOM      7  N   UNL     1       6.559  -3.573  22.164  0.00  0.00    -0.209 NA
ATOM      8  C   UNL     1       6.110  -4.519  23.039  0.00  0.00    +0.114 A 
ATOM      9  C   UNL     1       5.281  -5.623  22.808  0.00  0.00    +0.077 A 
ENDROOT
BRANCH   6  10
ATOM     10  C   UNL     1       7.948  -1.533  22.479  0.00  0.00    +0.040 A 
ATOM     11  C   UNL     1       7.305  -0.308  22.724  0.00  0.00    +0.055 A 
ATOM     12  C   UNL     1       7.913   0.894  22.380  0.00  0.00    +0.165 A 
ATOM     13  F   UNL     1       7.274   2.042  22.646  0.00  0.00    -0.202 F 
ATOM     14  C   UNL     1       9.170   0.904  21.786  0.00  0.00    +0.152 A 
ATOM     15  C   UNL     1       9.818  -0.299  21.514  0.00  0.00    +0.049 A 
ATOM     16  C   UNL     1       9.207  -1.516  21.859  0.00  0.00    +0.017 A 
BRANCH  14  17
ATOM     17  O   UNL     1       9.747   2.103  21.486  0.00  0.00    -0.504 OA
ATOM     18  H   UNL     1       9.918   2.150  20.532  0.00  0.00    +0.292 HD
ENDBRANCH  14  17
ENDBRANCH   6  10
BRANCH   1  19
ATOM     19  O   UNL     1       4.138  -7.505  23.757  0.00  0.00    -0.507 OA
ATOM     20  H   UNL     1       4.620  -8.304  24.029  0.00  0.00    +0.292 HD
ENDBRANCH   1  19
BRANCH   3  21
ATOM     21  C   UNL     1       6.842  -4.708  26.739  0.00  0.00    +0.004 C 
ATOM     22  C   UNL     1       6.432  -5.268  27.888  0.00  0.00    +0.009 C 
ENDBRANCH   3  21
TORSDOF 4
ENDMDL
MODEL 5
REMARK VINA RESULT:      -6.7      3.310      7.302
REMARK  Name = 
REMARK  4 active torsions:
REMARK  status: ('A' for Active; 'I' for Inactive)
REMARK    1  A    between atoms: O_1  and  C_2
REMARK    2  A    between atoms: C_7  and  C_9
REMARK    3  A    between atoms: C_12  and  O_13
REMARK    4  A    between atoms: C_17  and  C_18
REMARK                            x       y       z     vdW  Elec       q    Type
REMARK                         _______ _______ _______ _____ _____    ______ ____
ROOT
ATOM      1  C   UNL     1       9.515   1.458  21.895  0.00  0.00    +0.120 A 
ATOM      2  C   UNL     1       8.383   2.085  22.420  0.00  0.00    +0.057 A 
ATOM      3  C   UNL     1       7.255   1.347  22.829  0.00  0.00    +0.022 A 
ATOM      4  C   UNL     1       7.370  -0.043  22.707  0.00  0.00    +0.163 A 
ATOM      5  O   UNL     1       6.471  -1.027  23.050  0.00  0.00    -0.435 OA
ATOM      6  C   UNL     1       7.112  -2.195  22.710  0.00  0.00    +0.229 A 
ATOM      7  N   UNL     1       8.310  -2.030  22.182  0.00  0.00    -0.209 NA
ATOM      8  C   UNL     1       8.489  -0.678  22.183  0.00  0.00    +0.114 A 
ATOM      9  C   UNL     1       9.591   0.074  21.758  0.00  0.00    +0.077 A 
ENDROOT
BRANCH   6  10
ATOM     10  C   UNL     1       6.447  -3.467  22.993  0.00  0.00    +0.040 A 
ATOM     11  C   UNL     1       6.888  -4.611  22.307  0.00  0.00    +0.055 A 
ATOM     12  C   UNL     1       6.329  -5.856  22.569  0.00  0.00    +0.165 A 
ATOM     13  F   UNL     1       6.789  -6.926  21.905  0.00  0.00    -0.202 F 
ATOM     14  C   UNL     1       5.319  -5.990  23.516  0.00  0.00    +0.152 A 
ATOM     15  C   UNL     1       4.851  -4.867  24.195  0.00  0.00    +0.049 A 
ATOM     16  C   UNL     1       5.413  -3.607  23.933  0.00  0.00    +0.017 A 
BRANCH  14  17
ATOM     17  O   UNL     1       4.812  -7.231  23.765  0.00  0.00    -0.504 OA
ATOM     18  H   UNL     1       5.269  -7.885  23.212  0.00  0.00    +0.292 HD
ENDBRANCH  14  17
ENDBRANCH   6  10
BRANCH   1  19
ATOM     19  O   UNL     1      10.559   2.254  21.521  0.00  0.00    -0.507 OA
ATOM     20  H   UNL     1      10.219   3.138  21.300  0.00  0.00    +0.292 HD
ENDBRANCH   1  19
BRANCH   3  21
ATOM     21  C   UNL     1       6.045   1.930  23.403  0.00  0.00    +0.004 C 
ATOM     22  C   UNL     1       5.411   2.991  22.883  0.00  0.00    +0.009 C 
ENDBRANCH   3  21
TORSDOF 4
ENDMDL
MODEL 6
REMARK VINA RESULT:      -6.7      3.115      7.156
REMARK  Name = 
REMARK  4 active torsions:
REMARK  status: ('A' for Active; 'I' for Inactive)
REMARK    1  A    between atoms: O_1  and  C_2
REMARK    2  A    between atoms: C_7  and  C_9
REMARK    3  A    between atoms: C_12  and  O_13
REMARK    4  A    between atoms: C_17  and  C_18
REMARK                            x       y       z     vdW  Elec       q    Type
REMARK                         _______ _______ _______ _____ _____    ______ ____
ROOT
ATOM      1  C   UNL     1       9.521   1.530  21.977  0.00  0.00    +0.120 A 
ATOM      2  C   UNL     1       8.387   2.066  22.590  0.00  0.00    +0.057 A 
ATOM      3  C   UNL     1       7.311   1.251  22.990  0.00  0.00    +0.022 A 
ATOM      4  C   UNL     1       7.480  -0.120  22.765  0.00  0.00    +0.163 A 
ATOM      5  O   UNL     1       6.639  -1.166  23.073  0.00  0.00    -0.435 OA
ATOM      6  C   UNL     1       7.314  -2.277  22.625  0.00  0.00    +0.229 A 
ATOM      7  N   UNL     1       8.480  -2.021  22.063  0.00  0.00    -0.209 NA
ATOM      8  C   UNL     1       8.601  -0.665  22.153  0.00  0.00    +0.114 A 
ATOM      9  C   UNL     1       9.651   0.164  21.739  0.00  0.00    +0.077 A 
ENDROOT
BRANCH   6  10
ATOM     10  C   UNL     1       6.717  -3.594  22.844  0.00  0.00    +0.040 A 
ATOM     11  C   UNL     1       6.695  -4.101  24.154  0.00  0.00    +0.055 A 
ATOM     12  C   UNL     1       6.097  -5.324  24.433  0.00  0.00    +0.165 A 
ATOM     13  F   UNL     1       6.081  -5.764  25.699  0.00  0.00    -0.202 F 
ATOM     14  C   UNL     1       5.511  -6.070  23.416  0.00  0.00    +0.152 A 
ATOM     15  C   UNL     1       5.539  -5.599  22.105  0.00  0.00    +0.049 A 
ATOM     16  C   UNL     1       6.142  -4.363  21.820  0.00  0.00    +0.017 A 
BRANCH  14  17
ATOM     17  O   UNL     1       4.911  -7.254  23.731  0.00  0.00    -0.504 OA
ATOM     18  H   UNL     1       5.236  -7.949  23.137  0.00  0.00    +0.292 HD
ENDBRANCH  14  17
ENDBRANCH   6  10
BRANCH   1  19
ATOM     19  O   UNL     1      10.513   2.397  21.619  0.00  0.00    -0.507 OA
ATOM     20  H   UNL     1      11.184   1.915  21.105  0.00  0.00    +0.292 HD
ENDBRANCH   1  19
BRANCH   3  21
ATOM     21  C   UNL     1       6.102   1.737  23.652  0.00  0.00    +0.004 C 
ATOM     22  C   UNL     1       5.469   2.869  23.308  0.00  0.00    +0.009 C 
ENDBRANCH   3  21
TORSDOF 4
ENDMDL
MODEL 7
REMARK VINA RESULT:      -6.5      1.987      2.134
REMARK  Name = 
REMARK  4 active torsions:
REMARK  status: ('A' for Active; 'I' for Inactive)
REMARK    1  A    between atoms: O_1  and  C_2
REMARK    2  A    between atoms: C_7  and  C_9
REMARK    3  A    between atoms: C_12  and  O_13
REMARK    4  A    between atoms: C_17  and  C_18
REMARK                            x       y       z     vdW  Elec       q    Type
REMARK                         _______ _______ _______ _____ _____    ______ ____
ROOT
ATOM      1  C   UNL     1       9.042  -5.174  24.860  0.00  0.00    +0.120 A 
ATOM      2  C   UNL     1       8.151  -5.381  23.806  0.00  0.00    +0.057 A 
ATOM      3  C   UNL     1       7.601  -4.304  23.084  0.00  0.00    +0.022 A 
ATOM      4  C   UNL     1       8.040  -3.034  23.473  0.00  0.00    +0.163 A 
ATOM      5  O   UNL     1       7.723  -1.801  22.948  0.00  0.00    -0.435 OA
ATOM      6  C   UNL     1       8.441  -0.917  23.719  0.00  0.00    +0.229 A 
ATOM      7  N   UNL     1       9.160  -1.479  24.672  0.00  0.00    -0.209 NA
ATOM      8  C   UNL     1       8.924  -2.815  24.522  0.00  0.00    +0.114 A 
ATOM      9  C   UNL     1       9.441  -3.896  25.245  0.00  0.00    +0.077 A 
ENDROOT
BRANCH   6  10
ATOM     10  C   UNL     1       8.376   0.507  23.395  0.00  0.00    +0.040 A 
ATOM     11  C   UNL     1       8.620   1.431  24.426  0.00  0.00    +0.055 A 
ATOM     12  C   UNL     1       8.621   2.797  24.169  0.00  0.00    +0.165 A 
ATOM     13  F   UNL     1       8.875   3.645  25.176  0.00  0.00    -0.202 F 
ATOM     14  C   UNL     1       8.377   3.273  22.886  0.00  0.00    +0.152 A 
ATOM     15  C   UNL     1       8.112   2.378  21.852  0.00  0.00    +0.049 A 
ATOM     16  C   UNL     1       8.110   0.997  22.107  0.00  0.00    +0.017 A 
BRANCH  14  17
ATOM     17  O   UNL     1       8.411   4.619  22.666  0.00  0.00    -0.504 OA
ATOM     18  H   UNL     1       8.927   4.803  21.864  0.00  0.00    +0.292 HD
ENDBRANCH  14  17
ENDBRANCH   6  10
BRANCH   1  19
ATOM     19  O   UNL     1       9.521  -6.278  25.506  0.00  0.00    -0.507 OA
ATOM     20  H   UNL     1      10.206  -6.693  24.955  0.00  0.00    +0.292 HD
ENDBRANCH   1  19
BRANCH   3  21
ATOM     21  C   UNL     1       6.678  -4.444  21.959  0.00  0.00    +0.004 C 
ATOM     22  C   UNL     1       6.465  -5.598  21.310  0.00  0.00    +0.009 C 
ENDBRANCH   3  21
TORSDOF 4
ENDMDL
MODEL 8
REMARK VINA RESULT:      -6.3      2.760      7.080
REMARK  Name = 
REMARK  4 active torsions:
REMARK  status: ('A' for Active; 'I' for Inactive)
REMARK    1  A    between atoms: O_1  and  C_2
REMARK    2  A    between atoms: C_7  and  C_9
REMARK    3  A    between atoms: C_12  and  O_13
REMARK    4  A    between atoms: C_17  and  C_18
REMARK                            x       y       z     vdW  Elec       q    Type
REMARK                         _______ _______ _______ _____ _____    ______ ____
ROOT
ATOM      1  C   UNL     1      10.363   2.904  23.423  0.00  0.00    +0.120 A 
ATOM      2  C   UNL     1       9.000   3.134  23.227  0.00  0.00    +0.057 A 
ATOM      3  C   UNL     1       8.038   2.146  23.514  0.00  0.00    +0.022 A 
ATOM      4  C   UNL     1       8.543   0.950  24.038  0.00  0.00    +0.163 A 
ATOM      5  O   UNL     1       7.867  -0.177  24.448  0.00  0.00    -0.435 OA
ATOM      6  C   UNL     1       8.865  -1.026  24.868  0.00  0.00    +0.229 A 
ATOM      7  N   UNL     1      10.086  -0.541  24.747  0.00  0.00    -0.209 NA
ATOM      8  C   UNL     1       9.896   0.709  24.234  0.00  0.00    +0.114 A 
ATOM      9  C   UNL     1      10.841   1.694  23.920  0.00  0.00    +0.077 A 
ENDROOT
BRANCH   6  10
ATOM     10  C   UNL     1       8.489  -2.325  25.427  0.00  0.00    +0.040 A 
ATOM     11  C   UNL     1       9.205  -3.458  25.005  0.00  0.00    +0.055 A 
ATOM     12  C   UNL     1       8.927  -4.712  25.537  0.00  0.00    +0.165 A 
ATOM     13  F   UNL     1       9.644  -5.765  25.120  0.00  0.00    -0.202 F 
ATOM     14  C   UNL     1       7.933  -4.866  26.496  0.00  0.00    +0.152 A 
ATOM     15  C   UNL     1       7.195  -3.761  26.915  0.00  0.00    +0.049 A 
ATOM     16  C   UNL     1       7.473  -2.492  26.380  0.00  0.00    +0.017 A 
BRANCH  14  17
ATOM     17  O   UNL     1       7.705  -6.107  27.014  0.00  0.00    -0.504 OA
ATOM     18  H   UNL     1       8.057  -6.150  27.918  0.00  0.00    +0.292 HD
ENDBRANCH  14  17
ENDBRANCH   6  10
BRANCH   1  19
ATOM     19  O   UNL     1      11.224   3.919  23.115  0.00  0.00    -0.507 OA
ATOM     20  H   UNL     1      11.051   4.213  22.204  0.00  0.00    +0.292 HD
ENDBRANCH   1  19
BRANCH   3  21
ATOM     21  C   UNL     1       6.597   2.319  23.352  0.00  0.00    +0.004 C 
ATOM     22  C   UNL     1       6.040   3.058  22.380  0.00  0.00    +0.009 C 
ENDBRANCH   3  21
TORSDOF 4
ENDMDL
MODEL 9
REMARK VINA RESULT:      -6.2      2.115      2.817
REMARK  Name = 
REMARK  4 active torsions:
REMARK  status: ('A' for Active; 'I' for Inactive)
REMARK    1  A    between atoms: O_1  and  C_2
REMARK    2  A    between atoms: C_7  and  C_9
REMARK    3  A    between atoms: C_12  and  O_13
REMARK    4  A    between atoms: C_17  and  C_18
REMARK                            x       y       z     vdW  Elec       q    Type
REMARK                         _______ _______ _______ _____ _____    ______ ____
ROOT
ATOM      1  C   UNL     1       5.268  -6.765  27.688  0.00  0.00    +0.120 A 
ATOM      2  C   UNL     1       4.820  -6.911  26.374  0.00  0.00    +0.057 A 
ATOM      3  C   UNL     1       5.264  -6.058  25.346  0.00  0.00    +0.022 A 
ATOM      4  C   UNL     1       6.202  -5.093  25.729  0.00  0.00    +0.163 A 
ATOM      5  O   UNL     1       6.847  -4.149  24.961  0.00  0.00    -0.435 OA
ATOM      6  C   UNL     1       7.648  -3.483  25.859  0.00  0.00    +0.229 A 
ATOM      7  N   UNL     1       7.554  -3.913  27.102  0.00  0.00    -0.209 NA
ATOM      8  C   UNL     1       6.653  -4.936  27.033  0.00  0.00    +0.114 A 
ATOM      9  C   UNL     1       6.182  -5.777  28.047  0.00  0.00    +0.077 A 
ENDROOT
BRANCH   6  10
ATOM     10  C   UNL     1       8.528  -2.426  25.362  0.00  0.00    +0.040 A 
ATOM     11  C   UNL     1       9.207  -2.645  24.151  0.00  0.00    +0.055 A 
ATOM     12  C   UNL     1      10.017  -1.659  23.603  0.00  0.00    +0.165 A 
ATOM     13  F   UNL     1      10.634  -1.902  22.437  0.00  0.00    -0.202 F 
ATOM     14  C   UNL     1      10.173  -0.436  24.245  0.00  0.00    +0.152 A 
ATOM     15  C   UNL     1       9.527  -0.202  25.457  0.00  0.00    +0.049 A 
ATOM     16  C   UNL     1       8.707  -1.196  26.015  0.00  0.00    +0.017 A 
BRANCH  14  17
ATOM     17  O   UNL     1      10.957   0.518  23.665  0.00  0.00    -0.504 OA
ATOM     18  H   UNL     1      10.545   0.814  22.837  0.00  0.00    +0.292 HD
ENDBRANCH  14  17
ENDBRANCH   6  10
BRANCH   1  19
ATOM     19  O   UNL     1       4.780  -7.635  28.621  0.00  0.00    -0.507 OA
ATOM     20  H   UNL     1       3.857  -7.849  28.401  0.00  0.00    +0.292 HD
ENDBRANCH   1  19
BRANCH   3  21
ATOM     21  C   UNL     1       4.854  -6.162  23.947  0.00  0.00    +0.004 C 
ATOM     22  C   UNL     1       3.637  -5.819  23.499  0.00  0.00    +0.009 C 
ENDBRANCH   3  21
TORSDOF 4
ENDMDL
