MODEL 1
REMARK VINA RESULT:      -4.8      0.000      0.000
REMARK  Name = 
REMARK  5 active torsions:
REMARK  status: ('A' for Active; 'I' for Inactive)
REMARK    1  A    between atoms: C_2  and  O_3
REMARK    2  A    between atoms: C_5  and  C_7
REMARK    3  A    between atoms: C_7  and  O_8
REMARK    4  A    between atoms: C_9  and  O_11
REMARK    5  A    between atoms: C_12  and  O_14
REMARK                            x       y       z     vdW  Elec       q    Type
REMARK                         _______ _______ _______ _____ _____    ______ ____
ROOT
ATOM      1  C   UNL     1       9.342   0.209  25.000  0.00  0.00    +0.284 C 
ATOM      2  C   UNL     1       9.390  -0.640  23.724  0.00  0.00    +0.252 C 
ATOM      3  F   UNL     1      10.136  -1.755  23.993  0.00  0.00    -0.237 F 
ATOM      4  C   UNL     1      10.053   0.135  22.587  0.00  0.00    +0.184 C 
ATOM      5  C   UNL     1       9.438   1.533  22.441  0.00  0.00    +0.177 C 
ATOM      6  C   UNL     1       9.401   2.261  23.788  0.00  0.00    +0.178 C 
ATOM      7  O   UNL     1       8.707   1.466  24.765  0.00  0.00    -0.340 OA
ENDROOT
BRANCH   1   8
ATOM      8  O   UNL     1      10.654   0.420  25.517  0.00  0.00    -0.365 OA
ATOM      9  H   UNL     1      11.128  -0.428  25.425  0.00  0.00    +0.213 HD
ENDBRANCH   1   8
BRANCH   4  10
ATOM     10  O   UNL     1       9.890  -0.573  21.346  0.00  0.00    -0.386 OA
ATOM     11  H   UNL     1       9.744  -1.511  21.588  0.00  0.00    +0.210 HD
ENDBRANCH   4  10
BRANCH   5  12
ATOM     12  O   UNL     1      10.177   2.258  21.449  0.00  0.00    -0.386 OA
ATOM     13  H   UNL     1      10.371   3.150  21.792  0.00  0.00    +0.210 HD
ENDBRANCH   5  12
BRANCH   6  14
ATOM     14  C   UNL     1       8.676   3.606  23.672  0.00  0.00    +0.190 C 
BRANCH  14  15
ATOM     15  O   UNL     1       9.569   4.595  23.160  0.00  0.00    -0.392 OA
ATOM     16  H   UNL     1       9.870   5.108  23.934  0.00  0.00    +0.210 HD
ENDBRANCH  14  15
ENDBRANCH   6  14
TORSDOF 5
ENDMDL
MODEL 2
REMARK VINA RESULT:      -4.7      1.786      2.621
REMARK  Name = 
REMARK  5 active torsions:
REMARK  status: ('A' for Active; 'I' for Inactive)
REMARK    1  A    between atoms: C_2  and  O_3
REMARK    2  A    between atoms: C_5  and  C_7
REMARK    3  A    between atoms: C_7  and  O_8
REMARK    4  A    between atoms: C_9  and  O_11
REMARK    5  A    between atoms: C_12  and  O_14
REMARK                            x       y       z     vdW  Elec       q    Type
REMARK                         _______ _______ _______ _____ _____    ______ ____
ROOT
ATOM      1  C   UNL     1       8.864   0.057  25.166  0.00  0.00    +0.284 C 
ATOM      2  C   UNL     1       8.725  -1.468  25.084  0.00  0.00    +0.252 C 
ATOM      3  F   UNL     1       9.040  -1.983  26.311  0.00  0.00    -0.237 F 
ATOM      4  C   UNL     1       9.688  -2.040  24.046  0.00  0.00    +0.184 C 
ATOM      5  C   UNL     1       9.581  -1.283  22.716  0.00  0.00    +0.177 C 
ATOM      6  C   UNL     1       9.685   0.230  22.935  0.00  0.00    +0.178 C 
ATOM      7  O   UNL     1       8.698   0.665  23.886  0.00  0.00    -0.340 OA
ENDROOT
BRANCH   1   8
ATOM      8  O   UNL     1      10.130   0.420  25.713  0.00  0.00    -0.365 OA
ATOM      9  H   UNL     1      10.806   0.070  25.102  0.00  0.00    +0.213 HD
ENDBRANCH   1   8
BRANCH   4  10
ATOM     10  O   UNL     1       9.395  -3.428  23.811  0.00  0.00    -0.386 OA
ATOM     11  H   UNL     1       8.720  -3.677  24.477  0.00  0.00    +0.210 HD
ENDBRANCH   4  10
BRANCH   5  12
ATOM     12  O   UNL     1      10.589  -1.775  21.824  0.00  0.00    -0.386 OA
ATOM     13  H   UNL     1      11.452  -1.414  22.096  0.00  0.00    +0.210 HD
ENDBRANCH   5  12
BRANCH   6  14
ATOM     14  C   UNL     1       9.454   0.996  21.629  0.00  0.00    +0.190 C 
BRANCH  14  15
ATOM     15  O   UNL     1      10.174   2.228  21.657  0.00  0.00    -0.392 OA
ATOM     16  H   UNL     1       9.525   2.922  21.430  0.00  0.00    +0.210 HD
ENDBRANCH  14  15
ENDBRANCH   6  14
TORSDOF 5
ENDMDL
MODEL 3
REMARK VINA RESULT:      -4.6      4.713      6.642
REMARK  Name = 
REMARK  5 active torsions:
REMARK  status: ('A' for Active; 'I' for Inactive)
REMARK    1  A    between atoms: C_2  and  O_3
REMARK    2  A    between atoms: C_5  and  C_7
REMARK    3  A    between atoms: C_7  and  O_8
REMARK    4  A    between atoms: C_9  and  O_11
REMARK    5  A    between atoms: C_12  and  O_14
REMARK                            x       y       z     vdW  Elec       q    Type
REMARK                         _______ _______ _______ _____ _____    ______ ____
ROOT
ATOM      1  C   UNL     1       6.412  -5.039  22.841  0.00  0.00    +0.284 C 
ATOM      2  C   UNL     1       6.469  -3.547  22.494  0.00  0.00    +0.252 C 
ATOM      3  F   UNL     1       6.000  -3.397  21.218  0.00  0.00    -0.237 F 
ATOM      4  C   UNL     1       7.906  -3.035  22.557  0.00  0.00    +0.184 C 
ATOM      5  C   UNL     1       8.581  -3.445  23.871  0.00  0.00    +0.177 C 
ATOM      6  C   UNL     1       8.414  -4.945  24.130  0.00  0.00    +0.178 C 
ATOM      7  O   UNL     1       7.022  -5.305  24.103  0.00  0.00    -0.340 OA
ENDROOT
BRANCH   1   8
ATOM      8  O   UNL     1       7.043  -5.818  21.826  0.00  0.00    -0.365 OA
ATOM      9  H   UNL     1       6.963  -6.750  22.102  0.00  0.00    +0.213 HD
ENDBRANCH   1   8
BRANCH   4  10
ATOM     10  O   UNL     1       7.924  -1.600  22.457  0.00  0.00    -0.386 OA
ATOM     11  H   UNL     1       7.090  -1.291  22.866  0.00  0.00    +0.210 HD
ENDBRANCH   4  10
BRANCH   5  12
ATOM     12  O   UNL     1       9.958  -3.050  23.824  0.00  0.00    -0.386 OA
ATOM     13  H   UNL     1      10.489  -3.801  23.502  0.00  0.00    +0.210 HD
ENDBRANCH   5  12
BRANCH   6  14
ATOM     14  C   UNL     1       8.978  -5.338  25.499  0.00  0.00    +0.190 C 
BRANCH  14  15
ATOM     15  O   UNL     1      10.380  -5.582  25.395  0.00  0.00    -0.392 OA
ATOM     16  H   UNL     1      10.574  -5.620  24.438  0.00  0.00    +0.210 HD
ENDBRANCH  14  15
ENDBRANCH   6  14
TORSDOF 5
ENDMDL
MODEL 4
REMARK VINA RESULT:      -4.6      2.060      4.358
REMARK  Name = 
REMARK  5 active torsions:
REMARK  status: ('A' for Active; 'I' for Inactive)
REMARK    1  A    between atoms: C_2  and  O_3
REMARK    2  A    between atoms: C_5  and  C_7
REMARK    3  A    between atoms: C_7  and  O_8
REMARK    4  A    between atoms: C_9  and  O_11
REMARK    5  A    between atoms: C_12  and  O_14
REMARK                            x       y       z     vdW  Elec       q    Type
REMARK                         _______ _______ _______ _____ _____    ______ ____
ROOT
ATOM      1  C   UNL     1       9.108   1.849  21.857  0.00  0.00    +0.284 C 
ATOM      2  C   UNL     1       8.437   2.450  23.097  0.00  0.00    +0.252 C 
ATOM      3  F   UNL     1       8.457   3.811  22.965  0.00  0.00    -0.237 F 
ATOM      4  C   UNL     1       9.201   2.065  24.362  0.00  0.00    +0.184 C 
ATOM      5  C   UNL     1       9.469   0.556  24.408  0.00  0.00    +0.177 C 
ATOM      6  C   UNL     1      10.093   0.068  23.097  0.00  0.00    +0.178 C 
ATOM      7  O   UNL     1       9.263   0.435  21.982  0.00  0.00    -0.340 OA
ENDROOT
BRANCH   1   8
ATOM      8  O   UNL     1      10.377   2.456  21.625  0.00  0.00    -0.365 OA
ATOM      9  H   UNL     1      10.219   3.417  21.567  0.00  0.00    +0.213 HD
ENDBRANCH   1   8
BRANCH   4  10
ATOM     10  O   UNL     1       8.446   2.436  25.528  0.00  0.00    -0.386 OA
ATOM     11  H   UNL     1       9.086   2.451  26.270  0.00  0.00    +0.210 HD
ENDBRANCH   4  10
BRANCH   5  12
ATOM     12  O   UNL     1      10.293   0.269  25.545  0.00  0.00    -0.386 OA
ATOM     13  H   UNL     1      11.160   0.697  25.419  0.00  0.00    +0.210 HD
ENDBRANCH   5  12
BRANCH   6  14
ATOM     14  C   UNL     1      10.247  -1.456  23.090  0.00  0.00    +0.190 C 
BRANCH  14  15
ATOM     15  O   UNL     1      10.159  -1.946  21.752  0.00  0.00    -0.392 OA
ATOM     16  H   UNL     1      10.991  -1.679  21.316  0.00  0.00    +0.210 HD
ENDBRANCH  14  15
ENDBRANCH   6  14
TORSDOF 5
ENDMDL
MODEL 5
REMARK VINA RESULT:      -4.5      4.060      6.046
REMARK  Name = 
REMARK  5 active torsions:
REMARK  status: ('A' for Active; 'I' for Inactive)
REMARK    1  A    between atoms: C_2  and  O_3
REMARK    2  A    between atoms: C_5  and  C_7
REMARK    3  A    between atoms: C_7  and  O_8
REMARK    4  A    between atoms: C_9  and  O_11
REMARK    5  A    between atoms: C_12  and  O_14
REMARK                            x       y       z     vdW  Elec       q    Type
REMARK                         _______ _______ _______ _____ _____    ______ ____
ROOT
ATOM      1  C   UNL     1       9.806  -2.151  23.564  0.00  0.00    +0.284 C 
ATOM      2  C   UNL     1       8.752  -2.249  22.454  0.00  0.00    +0.252 C 
ATOM      3  F   UNL     1       8.412  -0.976  22.088  0.00  0.00    -0.237 F 
ATOM      4  C   UNL     1       7.504  -2.968  22.960  0.00  0.00    +0.184 C 
ATOM      5  C   UNL     1       7.870  -4.285  23.658  0.00  0.00    +0.177 C 
ATOM      6  C   UNL     1       8.963  -4.065  24.707  0.00  0.00    +0.178 C 
ATOM      7  O   UNL     1      10.109  -3.435  24.109  0.00  0.00    -0.340 OA
ENDROOT
BRANCH   1   8
ATOM      8  O   UNL     1       9.366  -1.277  24.601  0.00  0.00    -0.365 OA
ATOM      9  H   UNL     1       9.331  -0.382  24.214  0.00  0.00    +0.213 HD
ENDBRANCH   1   8
BRANCH   4  10
ATOM     10  O   UNL     1       6.621  -3.258  21.862  0.00  0.00    -0.386 OA
ATOM     11  H   UNL     1       5.921  -3.840  22.225  0.00  0.00    +0.210 HD
ENDBRANCH   4  10
BRANCH   5  12
ATOM     12  O   UNL     1       6.680  -4.853  24.220  0.00  0.00    -0.386 OA
ATOM     13  H   UNL     1       6.906  -5.704  24.637  0.00  0.00    +0.210 HD
ENDBRANCH   5  12
BRANCH   6  14
ATOM     14  C   UNL     1       9.420  -5.394  25.318  0.00  0.00    +0.190 C 
BRANCH  14  15
ATOM     15  O   UNL     1       8.504  -5.800  26.334  0.00  0.00    -0.392 OA
ATOM     16  H   UNL     1       8.333  -5.004  26.874  0.00  0.00    +0.210 HD
ENDBRANCH  14  15
ENDBRANCH   6  14
TORSDOF 5
ENDMDL
MODEL 6
REMARK VINA RESULT:      -4.4      1.933      3.818
REMARK  Name = 
REMARK  5 active torsions:
REMARK  status: ('A' for Active; 'I' for Inactive)
REMARK    1  A    between atoms: C_2  and  O_3
REMARK    2  A    between atoms: C_5  and  C_7
REMARK    3  A    between atoms: C_7  and  O_8
REMARK    4  A    between atoms: C_9  and  O_11
REMARK    5  A    between atoms: C_12  and  O_14
REMARK                            x       y       z     vdW  Elec       q    Type
REMARK                         _______ _______ _______ _____ _____    ______ ____
ROOT
ATOM      1  C   UNL     1       9.734   0.961  25.006  0.00  0.00    +0.284 C 
ATOM      2  C   UNL     1      10.127   1.926  23.882  0.00  0.00    +0.252 C 
ATOM      3  F   UNL     1       9.511   3.123  24.124  0.00  0.00    -0.237 F 
ATOM      4  C   UNL     1       9.659   1.394  22.529  0.00  0.00    +0.184 C 
ATOM      5  C   UNL     1      10.077  -0.069  22.335  0.00  0.00    +0.177 C 
ATOM      6  C   UNL     1       9.674  -0.920  23.543  0.00  0.00    +0.178 C 
ATOM      7  O   UNL     1      10.214  -0.359  24.752  0.00  0.00    -0.340 OA
ENDROOT
BRANCH   1   8
ATOM      8  O   UNL     1       8.318   0.935  25.178  0.00  0.00    -0.365 OA
ATOM      9  H   UNL     1       8.000   1.839  24.996  0.00  0.00    +0.213 HD
ENDBRANCH   1   8
BRANCH   4  10
ATOM     10  O   UNL     1      10.225   2.180  21.466  0.00  0.00    -0.386 OA
ATOM     11  H   UNL     1      11.186   1.991  21.472  0.00  0.00    +0.210 HD
ENDBRANCH   4  10
BRANCH   5  12
ATOM     12  O   UNL     1       9.507  -0.552  21.113  0.00  0.00    -0.386 OA
ATOM     13  H   UNL     1       8.541  -0.621  21.222  0.00  0.00    +0.210 HD
ENDBRANCH   5  12
BRANCH   6  14
ATOM     14  C   UNL     1      10.199  -2.353  23.411  0.00  0.00    +0.190 C 
BRANCH  14  15
ATOM     15  O   UNL     1       9.130  -3.280  23.606  0.00  0.00    -0.392 OA
ATOM     16  H   UNL     1       9.256  -3.977  22.933  0.00  0.00    +0.210 HD
ENDBRANCH  14  15
ENDBRANCH   6  14
TORSDOF 5
ENDMDL
MODEL 7
REMARK VINA RESULT:      -4.4      2.483      4.076
REMARK  Name = 
REMARK  5 active torsions:
REMARK  status: ('A' for Active; 'I' for Inactive)
REMARK    1  A    between atoms: C_2  and  O_3
REMARK    2  A    between atoms: C_5  and  C_7
REMARK    3  A    between atoms: C_7  and  O_8
REMARK    4  A    between atoms: C_9  and  O_11
REMARK    5  A    between atoms: C_12  and  O_14
REMARK                            x       y       z     vdW  Elec       q    Type
REMARK                         _______ _______ _______ _____ _____    ______ ____
ROOT
ATOM      1  C   UNL     1       7.117   1.308  23.495  0.00  0.00    +0.284 C 
ATOM      2  C   UNL     1       8.277   2.144  22.940  0.00  0.00    +0.252 C 
ATOM      3  F   UNL     1       7.752   3.296  22.423  0.00  0.00    -0.237 F 
ATOM      4  C   UNL     1       9.000   1.387  21.828  0.00  0.00    +0.184 C 
ATOM      5  C   UNL     1       9.351  -0.040  22.268  0.00  0.00    +0.177 C 
ATOM      6  C   UNL     1       8.126  -0.752  22.848  0.00  0.00    +0.178 C 
ATOM      7  O   UNL     1       7.560   0.020  23.921  0.00  0.00    -0.340 OA
ENDROOT
BRANCH   1   8
ATOM      8  O   UNL     1       6.086   1.166  22.521  0.00  0.00    -0.365 OA
ATOM      9  H   UNL     1       5.857   0.218  22.495  0.00  0.00    +0.213 HD
ENDBRANCH   1   8
BRANCH   4  10
ATOM     10  O   UNL     1      10.214   2.072  21.473  0.00  0.00    -0.386 OA
ATOM     11  H   UNL     1      10.046   2.484  20.600  0.00  0.00    +0.210 HD
ENDBRANCH   4  10
BRANCH   5  12
ATOM     12  O   UNL     1       9.911  -0.741  21.150  0.00  0.00    -0.386 OA
ATOM     13  H   UNL     1       9.277  -0.711  20.411  0.00  0.00    +0.210 HD
ENDBRANCH   5  12
BRANCH   6  14
ATOM     14  C   UNL     1       8.497  -2.131  23.402  0.00  0.00    +0.190 C 
BRANCH  14  15
ATOM     15  O   UNL     1       9.905  -2.201  23.625  0.00  0.00    -0.392 OA
ATOM     16  H   UNL     1      10.308  -2.340  22.746  0.00  0.00    +0.210 HD
ENDBRANCH  14  15
ENDBRANCH   6  14
TORSDOF 5
ENDMDL
MODEL 8
REMARK VINA RESULT:      -4.2      4.727      5.991
REMARK  Name = 
REMARK  5 active torsions:
REMARK  status: ('A' for Active; 'I' for Inactive)
REMARK    1  A    between atoms: C_2  and  O_3
REMARK    2  A    between atoms: C_5  and  C_7
REMARK    3  A    between atoms: C_7  and  O_8
REMARK    4  A    between atoms: C_9  and  O_11
REMARK    5  A    between atoms: C_12  and  O_14
REMARK                            x       y       z     vdW  Elec       q    Type
REMARK                         _______ _______ _______ _____ _____    ______ ____
ROOT
ATOM      1  C   UNL     1       6.586  -4.488  25.899  0.00  0.00    +0.284 C 
ATOM      2  C   UNL     1       7.819  -5.359  26.163  0.00  0.00    +0.252 C 
ATOM      3  F   UNL     1       7.873  -5.611  27.506  0.00  0.00    -0.237 F 
ATOM      4  C   UNL     1       9.093  -4.628  25.746  0.00  0.00    +0.184 C 
ATOM      5  C   UNL     1       8.964  -4.058  24.327  0.00  0.00    +0.177 C 
ATOM      6  C   UNL     1       7.671  -3.251  24.175  0.00  0.00    +0.178 C 
ATOM      7  O   UNL     1       6.535  -4.054  24.540  0.00  0.00    -0.340 OA
ENDROOT
BRANCH   1   8
ATOM      8  O   UNL     1       6.570  -3.358  26.768  0.00  0.00    -0.365 OA
ATOM      9  H   UNL     1       6.960  -3.652  27.613  0.00  0.00    +0.213 HD
ENDBRANCH   1   8
BRANCH   4  10
ATOM     10  O   UNL     1      10.214  -5.528  25.781  0.00  0.00    -0.386 OA
ATOM     11  H   UNL     1      10.539  -5.517  26.706  0.00  0.00    +0.210 HD
ENDBRANCH   4  10
BRANCH   5  12
ATOM     12  O   UNL     1      10.131  -3.279  24.036  0.00  0.00    -0.386 OA
ATOM     13  H   UNL     1      10.817  -3.867  23.671  0.00  0.00    +0.210 HD
ENDBRANCH   5  12
BRANCH   6  14
ATOM     14  C   UNL     1       7.476  -2.786  22.728  0.00  0.00    +0.190 C 
BRANCH  14  15
ATOM     15  O   UNL     1       8.438  -1.782  22.408  0.00  0.00    -0.392 OA
ATOM     16  H   UNL     1       9.311  -2.188  22.570  0.00  0.00    +0.210 HD
ENDBRANCH  14  15
ENDBRANCH   6  14
TORSDOF 5
ENDMDL
MODEL 9
REMARK VINA RESULT:      -4.2      2.139      4.408
REMARK  Name = 
REMARK  5 active torsions:
REMARK  status: ('A' for Active; 'I' for Inactive)
REMARK    1  A    between atoms: C_2  and  O_3
REMARK    2  A    between atoms: C_5  and  C_7
REMARK    3  A    between atoms: C_7  and  O_8
REMARK    4  A    between atoms: C_9  and  O_11
REMARK    5  A    between atoms: C_12  and  O_14
REMARK                            x       y       z     vdW  Elec       q    Type
REMARK                         _______ _______ _______ _____ _____    ______ ____
ROOT
ATOM      1  C   UNL     1       9.180  -1.006  22.013  0.00  0.00    +0.284 C 
ATOM      2  C   UNL     1       9.336   0.474  22.382  0.00  0.00    +0.252 C 
ATOM      3  F   UNL     1      10.248   1.024  21.525  0.00  0.00    -0.237 F 
ATOM      4  C   UNL     1       9.851   0.619  23.812  0.00  0.00    +0.184 C 
ATOM      5  C   UNL     1       9.027  -0.232  24.786  0.00  0.00    +0.177 C 
ATOM      6  C   UNL     1       8.902  -1.674  24.284  0.00  0.00    +0.178 C 
ATOM      7  O   UNL     1       8.356  -1.694  22.953  0.00  0.00    -0.340 OA
ENDROOT
BRANCH   1   8
ATOM      8  O   UNL     1      10.453  -1.643  21.930  0.00  0.00    -0.365 OA
ATOM      9  H   UNL     1      10.306  -2.499  21.485  0.00  0.00    +0.213 HD
ENDBRANCH   1   8
BRANCH   4  10
ATOM     10  O   UNL     1       9.778   1.995  24.226  0.00  0.00    -0.386 OA
ATOM     11  H   UNL     1       9.504   2.501  23.433  0.00  0.00    +0.210 HD
ENDBRANCH   4  10
BRANCH   5  12
ATOM     12  O   UNL     1       9.628  -0.157  26.085  0.00  0.00    -0.386 OA
ATOM     13  H   UNL     1       8.925  -0.042  26.749  0.00  0.00    +0.210 HD
ENDBRANCH   5  12
BRANCH   6  14
ATOM     14  C   UNL     1       7.977  -2.497  25.186  0.00  0.00    +0.190 C 
BRANCH  14  15
ATOM     15  O   UNL     1       8.644  -2.808  26.409  0.00  0.00    -0.392 OA
ATOM     16  H   UNL     1       9.574  -2.539  26.281  0.00  0.00    +0.210 HD
ENDBRANCH  14  15
ENDBRANCH   6  14
TORSDOF 5
ENDMDL
