MODEL 1
REMARK VINA RESULT:      -6.7      0.000      0.000
REMARK  Name = 
REMARK  8 active torsions:
REMARK  status: ('A' for Active; 'I' for Inactive)
REMARK    1  A    between atoms: C_2  and  C_3
REMARK    2  A    between atoms: C_2  and  O_10
REMARK    3  A    between atoms: C_2  and  C_19
REMARK    4  A    between atoms: C_3  and  C_4
REMARK    5  A    between atoms: O_10  and  C_11
REMARK    6  A    between atoms: C_14  and  C_15
REMARK    7  A    between atoms: C_15  and  C_16
REMARK    8  A    between atoms: C_19  and  O_20
REMARK                            x       y       z     vdW  Elec       q    Type
REMARK                         _______ _______ _______ _____ _____    ______ ____
ROOT
ATOM      1  C   UNL     1       8.693  -3.929  24.700  0.00  0.00    +0.285 C 
ENDROOT
BRANCH   1   2
ATOM      2  C   UNL     1       9.155  -4.704  25.931  0.00  0.00    +0.346 C 
ATOM      3  O   UNL     1       8.609  -4.670  27.024  0.00  0.00    -0.247 OA
BRANCH   2   4
ATOM      4  O   UNL     1      10.251  -5.477  25.705  0.00  0.00    -0.478 OA
ATOM      5  H   UNL     1      10.071  -6.392  26.012  0.00  0.00    +0.295 HD
ENDBRANCH   2   4
ENDBRANCH   1   2
BRANCH   1   6
ATOM      6  O   UNL     1       9.904  -3.379  24.130  0.00  0.00    -0.477 OA
BRANCH   6   7
ATOM      7  C   UNL     1       9.873  -2.118  23.604  0.00  0.00    +0.122 A 
ATOM      8  C   UNL     1       9.906  -1.082  24.542  0.00  0.00    +0.046 A 
ATOM      9  C   UNL     1       9.922   0.257  24.133  0.00  0.00    +0.007 A 
ATOM     10  C   UNL     1       9.902   0.578  22.772  0.00  0.00    -0.047 A 
ATOM     11  C   UNL     1       9.800  -0.460  21.840  0.00  0.00    +0.007 A 
ATOM     12  C   UNL     1       9.783  -1.798  22.251  0.00  0.00    +0.046 A 
BRANCH  10  13
ATOM     13  C   UNL     1      10.003   2.007  22.302  0.00  0.00    +0.032 C 
ATOM     14  C   UNL     1      10.659   2.922  23.323  0.00  0.00    +0.009 C 
ENDBRANCH  10  13
ENDBRANCH   6   7
ENDBRANCH   1   6
BRANCH   1  15
ATOM     15  C   UNL     1       8.040  -4.863  23.672  0.00  0.00    +0.091 C 
BRANCH  15  16
ATOM     16  C   UNL     1       6.532  -4.797  23.617  0.00  0.00    -0.043 A 
ATOM     17  C   UNL     1       5.801  -5.820  22.997  0.00  0.00    +0.004 A 
ATOM     18  C   UNL     1       4.407  -5.775  22.951  0.00  0.00    +0.000 A 
ATOM     19  C   UNL     1       3.727  -4.703  23.521  0.00  0.00    +0.000 A 
ATOM     20  C   UNL     1       4.441  -3.675  24.136  0.00  0.00    +0.000 A 
ATOM     21  C   UNL     1       5.836  -3.723  24.188  0.00  0.00    +0.004 A 
ENDBRANCH  15  16
ENDBRANCH   1  15
TORSDOF 7
ENDMDL
MODEL 2
REMARK VINA RESULT:      -6.7      1.209      2.104
REMARK  Name = 
REMARK  8 active torsions:
REMARK  status: ('A' for Active; 'I' for Inactive)
REMARK    1  A    between atoms: C_2  and  C_3
REMARK    2  A    between atoms: C_2  and  O_10
REMARK    3  A    between atoms: C_2  and  C_19
REMARK    4  A    between atoms: C_3  and  C_4
REMARK    5  A    between atoms: O_10  and  C_11
REMARK    6  A    between atoms: C_14  and  C_15
REMARK    7  A    between atoms: C_15  and  C_16
REMARK    8  A    between atoms: C_19  and  O_20
REMARK                            x       y       z     vdW  Elec       q    Type
REMARK                         _______ _______ _______ _____ _____    ______ ____
ROOT
ATOM      1  C   UNL     1       8.728  -3.465  25.235  0.00  0.00    +0.285 C 
ENDROOT
BRANCH   1   2
ATOM      2  C   UNL     1       9.509  -4.650  25.798  0.00  0.00    +0.346 C 
ATOM      3  O   UNL     1      10.356  -5.284  25.185  0.00  0.00    -0.247 OA
BRANCH   2   4
ATOM      4  O   UNL     1       9.192  -4.945  27.087  0.00  0.00    -0.478 OA
ATOM      5  H   UNL     1       8.464  -4.357  27.385  0.00  0.00    +0.295 HD
ENDBRANCH   2   4
ENDBRANCH   1   2
BRANCH   1   6
ATOM      6  O   UNL     1       9.335  -3.196  23.950  0.00  0.00    -0.477 OA
BRANCH   6   7
ATOM      7  C   UNL     1       9.608  -1.902  23.608  0.00  0.00    +0.122 A 
ATOM      8  C   UNL     1       9.521  -1.617  22.242  0.00  0.00    +0.046 A 
ATOM      9  C   UNL     1       9.735  -0.318  21.764  0.00  0.00    +0.007 A 
ATOM     10  C   UNL     1      10.043   0.718  22.652  0.00  0.00    -0.047 A 
ATOM     11  C   UNL     1      10.196   0.414  24.009  0.00  0.00    +0.007 A 
ATOM     12  C   UNL     1       9.982  -0.885  24.484  0.00  0.00    +0.046 A 
BRANCH  10  13
ATOM     13  C   UNL     1      10.195   2.140  22.174  0.00  0.00    +0.032 C 
ATOM     14  C   UNL     1      10.698   3.079  23.258  0.00  0.00    +0.009 C 
ENDBRANCH  10  13
ENDBRANCH   6   7
ENDBRANCH   1   6
BRANCH   1  15
ATOM     15  C   UNL     1       7.252  -3.829  25.021  0.00  0.00    +0.091 C 
BRANCH  15  16
ATOM     16  C   UNL     1       6.908  -4.312  23.632  0.00  0.00    -0.043 A 
ATOM     17  C   UNL     1       6.231  -3.471  22.738  0.00  0.00    +0.004 A 
ATOM     18  C   UNL     1       5.920  -3.903  21.448  0.00  0.00    +0.000 A 
ATOM     19  C   UNL     1       6.278  -5.183  21.039  0.00  0.00    +0.000 A 
ATOM     20  C   UNL     1       6.947  -6.033  21.918  0.00  0.00    +0.000 A 
ATOM     21  C   UNL     1       7.265  -5.599  23.208  0.00  0.00    +0.004 A 
ENDBRANCH  15  16
ENDBRANCH   1  15
TORSDOF 7
ENDMDL
MODEL 3
REMARK VINA RESULT:      -6.2      2.454      5.945
REMARK  Name = 
REMARK  8 active torsions:
REMARK  status: ('A' for Active; 'I' for Inactive)
REMARK    1  A    between atoms: C_2  and  C_3
REMARK    2  A    between atoms: C_2  and  O_10
REMARK    3  A    between atoms: C_2  and  C_19
REMARK    4  A    between atoms: C_3  and  C_4
REMARK    5  A    between atoms: O_10  and  C_11
REMARK    6  A    between atoms: C_14  and  C_15
REMARK    7  A    between atoms: C_15  and  C_16
REMARK    8  A    between atoms: C_19  and  O_20
REMARK                            x       y       z     vdW  Elec       q    Type
REMARK                         _______ _______ _______ _____ _____    ______ ____
ROOT
ATOM      1  C   UNL     1       8.514  -1.917  22.816  0.00  0.00    +0.285 C 
ENDROOT
BRANCH   1   2
ATOM      2  C   UNL     1       9.336  -0.973  21.943  0.00  0.00    +0.346 C 
ATOM      3  O   UNL     1       9.014   0.171  21.655  0.00  0.00    -0.247 OA
BRANCH   2   4
ATOM      4  O   UNL     1      10.504  -1.515  21.509  0.00  0.00    -0.478 OA
ATOM      5  H   UNL     1      10.862  -0.969  20.775  0.00  0.00    +0.295 HD
ENDBRANCH   2   4
ENDBRANCH   1   2
BRANCH   1   6
ATOM      6  O   UNL     1       7.987  -2.906  21.901  0.00  0.00    -0.477 OA
BRANCH   6   7
ATOM      7  C   UNL     1       6.906  -3.649  22.284  0.00  0.00    +0.122 A 
ATOM      8  C   UNL     1       7.052  -5.032  22.135  0.00  0.00    +0.046 A 
ATOM      9  C   UNL     1       6.035  -5.908  22.531  0.00  0.00    +0.007 A 
ATOM     10  C   UNL     1       4.849  -5.410  23.081  0.00  0.00    -0.047 A 
ATOM     11  C   UNL     1       4.680  -4.023  23.164  0.00  0.00    +0.007 A 
ATOM     12  C   UNL     1       5.699  -3.149  22.767  0.00  0.00    +0.046 A 
BRANCH  10  13
ATOM     13  C   UNL     1       3.773  -6.334  23.592  0.00  0.00    +0.032 C 
ATOM     14  C   UNL     1       4.185  -7.090  24.844  0.00  0.00    +0.009 C 
ENDBRANCH  10  13
ENDBRANCH   6   7
ENDBRANCH   1   6
BRANCH   1  15
ATOM     15  C   UNL     1       9.400  -2.621  23.853  0.00  0.00    +0.091 C 
BRANCH  15  16
ATOM     16  C   UNL     1       8.650  -3.351  24.943  0.00  0.00    -0.043 A 
ATOM     17  C   UNL     1       8.893  -4.711  25.180  0.00  0.00    +0.004 A 
ATOM     18  C   UNL     1       8.216  -5.392  26.193  0.00  0.00    +0.000 A 
ATOM     19  C   UNL     1       7.284  -4.721  26.978  0.00  0.00    +0.000 A 
ATOM     20  C   UNL     1       7.028  -3.369  26.751  0.00  0.00    +0.000 A 
ATOM     21  C   UNL     1       7.711  -2.686  25.742  0.00  0.00    +0.004 A 
ENDBRANCH  15  16
ENDBRANCH   1  15
TORSDOF 7
ENDMDL
MODEL 4
REMARK VINA RESULT:      -6.1      1.961      2.711
REMARK  Name = 
REMARK  8 active torsions:
REMARK  status: ('A' for Active; 'I' for Inactive)
REMARK    1  A    between atoms: C_2  and  C_3
REMARK    2  A    between atoms: C_2  and  O_10
REMARK    3  A    between atoms: C_2  and  C_19
REMARK    4  A    between atoms: C_3  and  C_4
REMARK    5  A    between atoms: O_10  and  C_11
REMARK    6  A    between atoms: C_14  and  C_15
REMARK    7  A    between atoms: C_15  and  C_16
REMARK    8  A    between atoms: C_19  and  O_20
REMARK                            x       y       z     vdW  Elec       q    Type
REMARK                         _______ _______ _______ _____ _____    ______ ____
ROOT
ATOM      1  C   UNL     1       8.789  -3.690  25.279  0.00  0.00    +0.285 C 
ENDROOT
BRANCH   1   2
ATOM      2  C   UNL     1       9.037  -5.141  25.680  0.00  0.00    +0.346 C 
ATOM      3  O   UNL     1       8.230  -5.853  26.262  0.00  0.00    -0.247 OA
BRANCH   2   4
ATOM      4  O   UNL     1      10.261  -5.604  25.313  0.00  0.00    -0.478 OA
ATOM      5  H   UNL     1      10.170  -6.511  24.948  0.00  0.00    +0.295 HD
ENDBRANCH   2   4
ENDBRANCH   1   2
BRANCH   1   6
ATOM      6  O   UNL     1       9.695  -3.448  24.177  0.00  0.00    -0.477 OA
BRANCH   6   7
ATOM      7  C   UNL     1       9.692  -2.221  23.577  0.00  0.00    +0.122 A 
ATOM      8  C   UNL     1       9.969  -1.144  24.424  0.00  0.00    +0.046 A 
ATOM      9  C   UNL     1      10.039   0.163  23.925  0.00  0.00    +0.007 A 
ATOM     10  C   UNL     1       9.828   0.410  22.565  0.00  0.00    -0.047 A 
ATOM     11  C   UNL     1       9.483  -0.662  21.735  0.00  0.00    +0.007 A 
ATOM     12  C   UNL     1       9.414  -1.967  22.235  0.00  0.00    +0.046 A 
BRANCH  10  13
ATOM     13  C   UNL     1       9.979   1.794  21.988  0.00  0.00    +0.032 C 
ATOM     14  C   UNL     1       8.804   2.703  22.309  0.00  0.00    +0.009 C 
ENDBRANCH  10  13
ENDBRANCH   6   7
ENDBRANCH   1   6
BRANCH   1  15
ATOM     15  C   UNL     1       7.348  -3.491  24.790  0.00  0.00    +0.091 C 
BRANCH  15  16
ATOM     16  C   UNL     1       6.668  -2.241  25.298  0.00  0.00    -0.043 A 
ATOM     17  C   UNL     1       6.404  -2.086  26.666  0.00  0.00    +0.004 A 
ATOM     18  C   UNL     1       5.789  -0.930  27.148  0.00  0.00    +0.000 A 
ATOM     19  C   UNL     1       5.424   0.082  26.266  0.00  0.00    +0.000 A 
ATOM     20  C   UNL     1       5.674  -0.061  24.902  0.00  0.00    +0.000 A 
ATOM     21  C   UNL     1       6.297  -1.215  24.420  0.00  0.00    +0.004 A 
ENDBRANCH  15  16
ENDBRANCH   1  15
TORSDOF 7
ENDMDL
MODEL 5
REMARK VINA RESULT:      -6.0      1.174      2.030
REMARK  Name = 
REMARK  8 active torsions:
REMARK  status: ('A' for Active; 'I' for Inactive)
REMARK    1  A    between atoms: C_2  and  C_3
REMARK    2  A    between atoms: C_2  and  O_10
REMARK    3  A    between atoms: C_2  and  C_19
REMARK    4  A    between atoms: C_3  and  C_4
REMARK    5  A    between atoms: O_10  and  C_11
REMARK    6  A    between atoms: C_14  and  C_15
REMARK    7  A    between atoms: C_15  and  C_16
REMARK    8  A    between atoms: C_19  and  O_20
REMARK                            x       y       z     vdW  Elec       q    Type
REMARK                         _______ _______ _______ _____ _____    ______ ____
ROOT
ATOM      1  C   UNL     1       8.634  -2.531  23.509  0.00  0.00    +0.285 C 
ENDROOT
BRANCH   1   2
ATOM      2  C   UNL     1       9.102  -3.437  24.645  0.00  0.00    +0.346 C 
ATOM      3  O   UNL     1       9.817  -4.419  24.507  0.00  0.00    -0.247 OA
BRANCH   2   4
ATOM      4  O   UNL     1       8.660  -3.043  25.869  0.00  0.00    -0.478 OA
ATOM      5  H   UNL     1       8.393  -3.833  26.387  0.00  0.00    +0.295 HD
ENDBRANCH   2   4
ENDBRANCH   1   2
BRANCH   1   6
ATOM      6  O   UNL     1       9.846  -1.950  22.973  0.00  0.00    -0.477 OA
BRANCH   6   7
ATOM      7  C   UNL     1       9.987  -0.591  22.984  0.00  0.00    +0.122 A 
ATOM      8  C   UNL     1      10.331  -0.037  24.221  0.00  0.00    +0.046 A 
ATOM      9  C   UNL     1      10.547   1.339  24.357  0.00  0.00    +0.007 A 
ATOM     10  C   UNL     1      10.418   2.186  23.251  0.00  0.00    -0.047 A 
ATOM     11  C   UNL     1      10.007   1.637  22.032  0.00  0.00    +0.007 A 
ATOM     12  C   UNL     1       9.791   0.261  21.898  0.00  0.00    +0.046 A 
BRANCH  10  13
ATOM     13  C   UNL     1      10.726   3.658  23.351  0.00  0.00    +0.032 C 
ATOM     14  C   UNL     1       9.608   4.456  24.002  0.00  0.00    +0.009 C 
ENDBRANCH  10  13
ENDBRANCH   6   7
ENDBRANCH   1   6
BRANCH   1  15
ATOM     15  C   UNL     1       7.942  -3.342  22.405  0.00  0.00    +0.091 C 
BRANCH  15  16
ATOM     16  C   UNL     1       6.609  -3.939  22.792  0.00  0.00    -0.043 A 
ATOM     17  C   UNL     1       5.665  -3.170  23.487  0.00  0.00    +0.004 A 
ATOM     18  C   UNL     1       4.426  -3.707  23.837  0.00  0.00    +0.000 A 
ATOM     19  C   UNL     1       4.118  -5.021  23.501  0.00  0.00    +0.000 A 
ATOM     20  C   UNL     1       5.048  -5.800  22.815  0.00  0.00    +0.000 A 
ATOM     21  C   UNL     1       6.287  -5.260  22.457  0.00  0.00    +0.004 A 
ENDBRANCH  15  16
ENDBRANCH   1  15
TORSDOF 7
ENDMDL
MODEL 6
REMARK VINA RESULT:      -6.0      2.341      3.555
REMARK  Name = 
REMARK  8 active torsions:
REMARK  status: ('A' for Active; 'I' for Inactive)
REMARK    1  A    between atoms: C_2  and  C_3
REMARK    2  A    between atoms: C_2  and  O_10
REMARK    3  A    between atoms: C_2  and  C_19
REMARK    4  A    between atoms: C_3  and  C_4
REMARK    5  A    between atoms: O_10  and  C_11
REMARK    6  A    between atoms: C_14  and  C_15
REMARK    7  A    between atoms: C_15  and  C_16
REMARK    8  A    between atoms: C_19  and  O_20
REMARK                            x       y       z     vdW  Elec       q    Type
REMARK                         _______ _______ _______ _____ _____    ______ ____
ROOT
ATOM      1  C   UNL     1       7.409  -4.016  22.314  0.00  0.00    +0.285 C 
ENDROOT
BRANCH   1   2
ATOM      2  C   UNL     1       6.067  -4.249  21.624  0.00  0.00    +0.346 C 
ATOM      3  O   UNL     1       5.896  -4.976  20.655  0.00  0.00    -0.247 OA
BRANCH   2   4
ATOM      4  O   UNL     1       5.037  -3.575  22.199  0.00  0.00    -0.478 OA
ATOM      5  H   UNL     1       5.387  -2.785  22.667  0.00  0.00    +0.295 HD
ENDBRANCH   2   4
ENDBRANCH   1   2
BRANCH   1   6
ATOM      6  O   UNL     1       7.174  -2.915  23.222  0.00  0.00    -0.477 OA
BRANCH   6   7
ATOM      7  C   UNL     1       7.894  -1.765  23.064  0.00  0.00    +0.122 A 
ATOM      8  C   UNL     1       8.770  -1.756  21.975  0.00  0.00    +0.046 A 
ATOM      9  C   UNL     1       9.535  -0.622  21.676  0.00  0.00    +0.007 A 
ATOM     10  C   UNL     1       9.434   0.525  22.471  0.00  0.00    -0.047 A 
ATOM     11  C   UNL     1       8.608   0.488  23.599  0.00  0.00    +0.007 A 
ATOM     12  C   UNL     1       7.845  -0.647  23.895  0.00  0.00    +0.046 A 
BRANCH  10  13
ATOM     13  C   UNL     1      10.182   1.787  22.124  0.00  0.00    +0.032 C 
ATOM     14  C   UNL     1      10.491   2.647  23.338  0.00  0.00    +0.009 C 
ENDBRANCH  10  13
ENDBRANCH   6   7
ENDBRANCH   1   6
BRANCH   1  15
ATOM     15  C   UNL     1       7.833  -5.248  23.125  0.00  0.00    +0.091 C 
BRANCH  15  16
ATOM     16  C   UNL     1       7.452  -5.213  24.587  0.00  0.00    -0.043 A 
ATOM     17  C   UNL     1       8.408  -4.886  25.559  0.00  0.00    +0.004 A 
ATOM     18  C   UNL     1       8.064  -4.837  26.910  0.00  0.00    +0.000 A 
ATOM     19  C   UNL     1       6.760  -5.120  27.306  0.00  0.00    +0.000 A 
ATOM     20  C   UNL     1       5.800  -5.452  26.351  0.00  0.00    +0.000 A 
ATOM     21  C   UNL     1       6.142  -5.494  24.997  0.00  0.00    +0.004 A 
ENDBRANCH  15  16
ENDBRANCH   1  15
TORSDOF 7
ENDMDL
MODEL 7
REMARK VINA RESULT:      -6.0      2.219      5.181
REMARK  Name = 
REMARK  8 active torsions:
REMARK  status: ('A' for Active; 'I' for Inactive)
REMARK    1  A    between atoms: C_2  and  C_3
REMARK    2  A    between atoms: C_2  and  O_10
REMARK    3  A    between atoms: C_2  and  C_19
REMARK    4  A    between atoms: C_3  and  C_4
REMARK    5  A    between atoms: O_10  and  C_11
REMARK    6  A    between atoms: C_14  and  C_15
REMARK    7  A    between atoms: C_15  and  C_16
REMARK    8  A    between atoms: C_19  and  O_20
REMARK                            x       y       z     vdW  Elec       q    Type
REMARK                         _______ _______ _______ _____ _____    ______ ____
ROOT
ATOM      1  C   UNL     1       8.542  -2.360  22.686  0.00  0.00    +0.285 C 
ENDROOT
BRANCH   1   2
ATOM      2  C   UNL     1       9.338  -1.257  21.993  0.00  0.00    +0.346 C 
ATOM      3  O   UNL     1       8.916  -0.134  21.755  0.00  0.00    -0.247 OA
BRANCH   2   4
ATOM      4  O   UNL     1      10.604  -1.627  21.664  0.00  0.00    -0.478 OA
ATOM      5  H   UNL     1      10.940  -1.039  20.953  0.00  0.00    +0.295 HD
ENDBRANCH   2   4
ENDBRANCH   1   2
BRANCH   1   6
ATOM      6  O   UNL     1       8.808  -2.181  24.097  0.00  0.00    -0.477 OA
BRANCH   6   7
ATOM      7  C   UNL     1       8.309  -3.093  24.983  0.00  0.00    +0.122 A 
ATOM      8  C   UNL     1       7.427  -2.577  25.936  0.00  0.00    +0.046 A 
ATOM      9  C   UNL     1       6.812  -3.414  26.875  0.00  0.00    +0.007 A 
ATOM     10  C   UNL     1       7.077  -4.787  26.875  0.00  0.00    -0.047 A 
ATOM     11  C   UNL     1       8.014  -5.288  25.964  0.00  0.00    +0.007 A 
ATOM     12  C   UNL     1       8.626  -4.450  25.026  0.00  0.00    +0.046 A 
BRANCH  10  13
ATOM     13  C   UNL     1       6.367  -5.722  27.819  0.00  0.00    +0.032 C 
ATOM     14  C   UNL     1       5.207  -6.457  27.167  0.00  0.00    +0.009 C 
ENDBRANCH  10  13
ENDBRANCH   6   7
ENDBRANCH   1   6
BRANCH   1  15
ATOM     15  C   UNL     1       7.037  -2.193  22.438  0.00  0.00    +0.091 C 
BRANCH  15  16
ATOM     16  C   UNL     1       6.226  -3.463  22.548  0.00  0.00    -0.043 A 
ATOM     17  C   UNL     1       6.659  -4.636  21.913  0.00  0.00    +0.004 A 
ATOM     18  C   UNL     1       5.925  -5.818  22.020  0.00  0.00    +0.000 A 
ATOM     19  C   UNL     1       4.746  -5.839  22.758  0.00  0.00    +0.000 A 
ATOM     20  C   UNL     1       4.300  -4.680  23.390  0.00  0.00    +0.000 A 
ATOM     21  C   UNL     1       5.039  -3.498  23.290  0.00  0.00    +0.004 A 
ENDBRANCH  15  16
ENDBRANCH   1  15
TORSDOF 7
ENDMDL
MODEL 8
REMARK VINA RESULT:      -5.9      2.358      3.883
REMARK  Name = 
REMARK  8 active torsions:
REMARK  status: ('A' for Active; 'I' for Inactive)
REMARK    1  A    between atoms: C_2  and  C_3
REMARK    2  A    between atoms: C_2  and  O_10
REMARK    3  A    between atoms: C_2  and  C_19
REMARK    4  A    between atoms: C_3  and  C_4
REMARK    5  A    between atoms: O_10  and  C_11
REMARK    6  A    between atoms: C_14  and  C_15
REMARK    7  A    between atoms: C_15  and  C_16
REMARK    8  A    between atoms: C_19  and  O_20
REMARK                            x       y       z     vdW  Elec       q    Type
REMARK                         _______ _______ _______ _____ _____    ______ ____
ROOT
ATOM      1  C   UNL     1       6.129  -5.659  27.603  0.00  0.00    +0.285 C 
ENDROOT
BRANCH   1   2
ATOM      2  C   UNL     1       5.903  -6.461  28.882  0.00  0.00    +0.346 C 
ATOM      3  O   UNL     1       6.419  -6.213  29.963  0.00  0.00    -0.247 OA
BRANCH   2   4
ATOM      4  O   UNL     1       5.041  -7.501  28.726  0.00  0.00    -0.478 OA
ATOM      5  H   UNL     1       4.811  -7.867  29.607  0.00  0.00    +0.295 HD
ENDBRANCH   2   4
ENDBRANCH   1   2
BRANCH   1   6
ATOM      6  O   UNL     1       7.565  -5.629  27.431  0.00  0.00    -0.477 OA
BRANCH   6   7
ATOM      7  C   UNL     1       8.104  -4.743  26.541  0.00  0.00    +0.122 A 
ATOM      8  C   UNL     1       7.759  -3.405  26.752  0.00  0.00    +0.046 A 
ATOM      9  C   UNL     1       8.280  -2.392  25.937  0.00  0.00    +0.007 A 
ATOM     10  C   UNL     1       9.155  -2.708  24.892  0.00  0.00    -0.047 A 
ATOM     11  C   UNL     1       9.442  -4.054  24.643  0.00  0.00    +0.007 A 
ATOM     12  C   UNL     1       8.920  -5.064  25.459  0.00  0.00    +0.046 A 
BRANCH  10  13
ATOM     13  C   UNL     1       9.794  -1.631  24.054  0.00  0.00    +0.032 C 
ATOM     14  C   UNL     1       9.902  -0.299  24.779  0.00  0.00    +0.009 C 
ENDBRANCH  10  13
ENDBRANCH   6   7
ENDBRANCH   1   6
BRANCH   1  15
ATOM     15  C   UNL     1       5.496  -6.361  26.393  0.00  0.00    +0.091 C 
BRANCH  15  16
ATOM     16  C   UNL     1       5.265  -5.476  25.191  0.00  0.00    -0.043 A 
ATOM     17  C   UNL     1       4.648  -4.226  25.341  0.00  0.00    +0.004 A 
ATOM     18  C   UNL     1       4.441  -3.395  24.239  0.00  0.00    +0.000 A 
ATOM     19  C   UNL     1       4.844  -3.807  22.973  0.00  0.00    +0.000 A 
ATOM     20  C   UNL     1       5.453  -5.050  22.807  0.00  0.00    +0.000 A 
ATOM     21  C   UNL     1       5.667  -5.879  23.911  0.00  0.00    +0.004 A 
ENDBRANCH  15  16
ENDBRANCH   1  15
TORSDOF 7
ENDMDL
MODEL 9
REMARK VINA RESULT:      -5.8      2.443      6.101
REMARK  Name = 
REMARK  8 active torsions:
REMARK  status: ('A' for Active; 'I' for Inactive)
REMARK    1  A    between atoms: C_2  and  C_3
REMARK    2  A    between atoms: C_2  and  O_10
REMARK    3  A    between atoms: C_2  and  C_19
REMARK    4  A    between atoms: C_3  and  C_4
REMARK    5  A    between atoms: O_10  and  C_11
REMARK    6  A    between atoms: C_14  and  C_15
REMARK    7  A    between atoms: C_15  and  C_16
REMARK    8  A    between atoms: C_19  and  O_20
REMARK                            x       y       z     vdW  Elec       q    Type
REMARK                         _______ _______ _______ _____ _____    ______ ____
ROOT
ATOM      1  C   UNL     1       8.930  -1.107  25.644  0.00  0.00    +0.285 C 
ENDROOT
BRANCH   1   2
ATOM      2  C   UNL     1       8.361  -0.618  26.973  0.00  0.00    +0.346 C 
ATOM      3  O   UNL     1       7.172  -0.447  27.204  0.00  0.00    -0.247 OA
BRANCH   2   4
ATOM      4  O   UNL     1       9.310  -0.396  27.920  0.00  0.00    -0.478 OA
ATOM      5  H   UNL     1       9.138   0.467  28.356  0.00  0.00    +0.295 HD
ENDBRANCH   2   4
ENDBRANCH   1   2
BRANCH   1   6
ATOM      6  O   UNL     1       7.793  -1.161  24.750  0.00  0.00    -0.477 OA
BRANCH   6   7
ATOM      7  C   UNL     1       7.604  -2.282  23.992  0.00  0.00    +0.122 A 
ATOM      8  C   UNL     1       8.173  -3.451  24.505  0.00  0.00    +0.046 A 
ATOM      9  C   UNL     1       8.015  -4.677  23.846  0.00  0.00    +0.007 A 
ATOM     10  C   UNL     1       7.284  -4.748  22.656  0.00  0.00    -0.047 A 
ATOM     11  C   UNL     1       6.775  -3.564  22.111  0.00  0.00    +0.007 A 
ATOM     12  C   UNL     1       6.935  -2.341  22.771  0.00  0.00    +0.046 A 
BRANCH  10  13
ATOM     13  C   UNL     1       7.028  -6.066  21.971  0.00  0.00    +0.032 C 
ATOM     14  C   UNL     1       6.147  -5.934  20.740  0.00  0.00    +0.009 C 
ENDBRANCH  10  13
ENDBRANCH   6   7
ENDBRANCH   1   6
BRANCH   1  15
ATOM     15  C   UNL     1       9.956  -0.112  25.084  0.00  0.00    +0.091 C 
BRANCH  15  16
ATOM     16  C   UNL     1       9.434   0.801  23.998  0.00  0.00    -0.043 A 
ATOM     17  C   UNL     1       9.648   0.489  22.648  0.00  0.00    +0.004 A 
ATOM     18  C   UNL     1       9.159   1.317  21.638  0.00  0.00    +0.000 A 
ATOM     19  C   UNL     1       8.455   2.472  21.966  0.00  0.00    +0.000 A 
ATOM     20  C   UNL     1       8.240   2.798  23.304  0.00  0.00    +0.000 A 
ATOM     21  C   UNL     1       8.722   1.965  24.316  0.00  0.00    +0.004 A 
ENDBRANCH  15  16
ENDBRANCH   1  15
TORSDOF 7
ENDMDL
