MODEL 1
REMARK VINA RESULT:      -8.0      0.000      0.000
REMARK  Name = 
REMARK  18 active torsions:
REMARK  status: ('A' for Active; 'I' for Inactive)
REMARK    1  A    between atoms: C_1  and  C_2
REMARK    2  A    between atoms: N_4  and  C_5
REMARK    3  A    between atoms: C_7  and  O_9
REMARK    4  A    between atoms: C_10  and  O_12
REMARK    5  A    between atoms: C_13  and  C_15
REMARK    6  A    between atoms: C_15  and  O_16
REMARK    7  A    between atoms: C_18  and  O_20
REMARK    8  A    between atoms: O_20  and  P_21
REMARK    9  A    between atoms: P_21  and  O_22
REMARK   10  A    between atoms: P_21  and  O_24
REMARK   11  A    between atoms: O_24  and  P_25
REMARK   12  A    between atoms: P_25  and  O_26
REMARK   13  A    between atoms: P_25  and  O_28
REMARK   14  A    between atoms: O_28  and  C_29
REMARK   15  A    between atoms: C_29  and  C_30
REMARK   16  A    between atoms: C_33  and  N_41
REMARK   17  A    between atoms: C_35  and  O_37
REMARK   18  A    between atoms: C_38  and  O_40
REMARK                            x       y       z     vdW  Elec       q    Type
REMARK                         _______ _______ _______ _____ _____    ______ ____
ROOT
ATOM      1  O   UNL     1       8.619  -0.565  22.912  0.00  0.00    -0.186 OA
ENDROOT
BRANCH   1   2
ATOM      2  P   UNL     1       9.816  -1.468  23.776  0.00  0.00    +0.483 P 
ATOM      3  O   UNL     1      10.729  -2.032  22.682  0.00  0.00    -0.227 OA
BRANCH   2   4
ATOM      4  O   UNL     1      10.859  -0.087  23.772  0.00  0.00    -0.302 OA
ATOM      5  H   UNL     1      11.445  -0.263  23.005  0.00  0.00    +0.222 HD
ENDBRANCH   2   4
BRANCH   2   6
ATOM      6  O   UNL     1       8.773  -2.846  23.780  0.00  0.00    -0.284 OA
BRANCH   6   7
ATOM      7  C   UNL     1       8.019  -3.101  22.593  0.00  0.00    +0.206 C 
BRANCH   7   8
ATOM      8  C   UNL     1       7.248  -4.423  22.616  0.00  0.00    +0.178 C 
ATOM      9  C   UNL     1       5.806  -4.202  22.180  0.00  0.00    +0.178 C 
ATOM     10  C   UNL     1       4.996  -5.135  23.071  0.00  0.00    +0.195 C 
ATOM     11  C   UNL     1       6.043  -5.827  23.980  0.00  0.00    +0.255 C 
ATOM     12  O   UNL     1       7.198  -4.959  23.946  0.00  0.00    -0.346 OA
BRANCH  11  13
ATOM     13  N   UNL     1       5.631  -6.053  25.377  0.00  0.00    -0.271 N 
ATOM     14  C   UNL     1       4.645  -7.000  25.643  0.00  0.00    +0.331 A 
ATOM     15  O   UNL     1       4.066  -7.655  24.777  0.00  0.00    -0.246 OA
ATOM     16  N   UNL     1       4.327  -7.185  26.962  0.00  0.00    -0.275 N 
ATOM     17  H   UNL     1       3.601  -7.852  27.167  0.00  0.00    +0.173 HD
ATOM     18  C   UNL     1       5.010  -6.680  28.028  0.00  0.00    +0.254 A 
ATOM     19  O   UNL     1       4.752  -6.966  29.191  0.00  0.00    -0.268 OA
ATOM     20  C   UNL     1       6.117  -5.774  27.696  0.00  0.00    +0.088 A 
ATOM     21  C   UNL     1       6.371  -5.503  26.413  0.00  0.00    +0.098 A 
ENDBRANCH  11  13
BRANCH  10  22
ATOM     22  O   UNL     1       4.200  -6.040  22.307  0.00  0.00    -0.385 OA
ATOM     23  H   UNL     1       3.274  -5.890  22.608  0.00  0.00    +0.210 HD
ENDBRANCH  10  22
BRANCH   9  24
ATOM     24  O   UNL     1       5.669  -4.431  20.784  0.00  0.00    -0.386 OA
ATOM     25  H   UNL     1       5.637  -3.554  20.355  0.00  0.00    +0.210 HD
ENDBRANCH   9  24
ENDBRANCH   7   8
ENDBRANCH   6   7
ENDBRANCH   2   6
ENDBRANCH   1   2
BRANCH   1  26
ATOM     26  P   UNL     1       9.346   0.842  22.216  0.00  0.00    +0.486 P 
ATOM     27  O   UNL     1       9.313   0.241  20.797  0.00  0.00    -0.227 OA
BRANCH  26  28
ATOM     28  O   UNL     1      10.073   2.249  21.519  0.00  0.00    -0.302 OA
ATOM     29  H   UNL     1       9.585   2.998  21.912  0.00  0.00    +0.222 HD
ENDBRANCH  26  28
BRANCH  26  30
ATOM     30  O   UNL     1       7.940   1.682  22.295  0.00  0.00    -0.254 OA
BRANCH  30  32
ATOM     31  C   UNL     1       6.194   2.111  23.896  0.00  0.00    +0.160 C 
ATOM     32  C   UNL     1       7.646   2.450  23.445  0.00  0.00    +0.285 C 
ATOM     33  O   UNL     1       7.829   3.860  23.234  0.00  0.00    -0.341 OA
ATOM     34  C   UNL     1       6.894   4.442  22.298  0.00  0.00    +0.178 C 
ATOM     35  C   UNL     1       5.474   4.310  22.855  0.00  0.00    +0.176 C 
ATOM     36  C   UNL     1       5.158   2.821  23.002  0.00  0.00    +0.171 C 
BRANCH  31  39
ATOM     37  C   UNL     1       5.563  -1.535  24.794  0.00  0.00    +0.109 C 
ATOM     38  C   UNL     1       5.897  -0.087  25.033  0.00  0.00    +0.210 C 
ATOM     39  N   UNL     1       5.915   0.669  23.894  0.00  0.00    -0.305 N 
ATOM     40  H   UNL     1       5.925   0.193  23.001  0.00  0.00    +0.149 HD
ATOM     41  O   UNL     1       6.078   0.381  26.148  0.00  0.00    -0.276 OA
ENDBRANCH  31  39
BRANCH  36  42
ATOM     42  O   UNL     1       3.835   2.651  23.532  0.00  0.00    -0.387 OA
ATOM     43  H   UNL     1       3.362   2.056  22.919  0.00  0.00    +0.210 HD
ENDBRANCH  36  42
BRANCH  35  44
ATOM     44  O   UNL     1       5.350   4.957  24.131  0.00  0.00    -0.387 OA
ATOM     45  H   UNL     1       6.239   5.249  24.411  0.00  0.00    +0.210 HD
ENDBRANCH  35  44
BRANCH  34  46
ATOM     46  C   UNL     1       7.255   5.914  22.037  0.00  0.00    +0.190 C 
BRANCH  46  47
ATOM     47  O   UNL     1       8.579   6.216  22.484  0.00  0.00    -0.392 OA
ATOM     48  H   UNL     1       8.584   7.150  22.764  0.00  0.00    +0.210 HD
ENDBRANCH  46  47
ENDBRANCH  34  46
ENDBRANCH  30  32
ENDBRANCH  26  30
ENDBRANCH   1  26
TORSDOF 17
ENDMDL
MODEL 2
REMARK VINA RESULT:      -7.6      1.749      3.270
REMARK  Name = 
REMARK  18 active torsions:
REMARK  status: ('A' for Active; 'I' for Inactive)
REMARK    1  A    between atoms: C_1  and  C_2
REMARK    2  A    between atoms: N_4  and  C_5
REMARK    3  A    between atoms: C_7  and  O_9
REMARK    4  A    between atoms: C_10  and  O_12
REMARK    5  A    between atoms: C_13  and  C_15
REMARK    6  A    between atoms: C_15  and  O_16
REMARK    7  A    between atoms: C_18  and  O_20
REMARK    8  A    between atoms: O_20  and  P_21
REMARK    9  A    between atoms: P_21  and  O_22
REMARK   10  A    between atoms: P_21  and  O_24
REMARK   11  A    between atoms: O_24  and  P_25
REMARK   12  A    between atoms: P_25  and  O_26
REMARK   13  A    between atoms: P_25  and  O_28
REMARK   14  A    between atoms: O_28  and  C_29
REMARK   15  A    between atoms: C_29  and  C_30
REMARK   16  A    between atoms: C_33  and  N_41
REMARK   17  A    between atoms: C_35  and  O_37
REMARK   18  A    between atoms: C_38  and  O_40
REMARK                            x       y       z     vdW  Elec       q    Type
REMARK                         _______ _______ _______ _____ _____    ______ ____
ROOT
ATOM      1  O   UNL     1       8.679  -0.453  22.864  0.00  0.00    -0.186 OA
ENDROOT
BRANCH   1   2
ATOM      2  P   UNL     1       9.858  -1.389  23.717  0.00  0.00    +0.483 P 
ATOM      3  O   UNL     1      10.737  -1.989  22.614  0.00  0.00    -0.227 OA
BRANCH   2   4
ATOM      4  O   UNL     1      10.945  -0.043  23.690  0.00  0.00    -0.302 OA
ATOM      5  H   UNL     1      11.806  -0.466  23.485  0.00  0.00    +0.222 HD
ENDBRANCH   2   4
BRANCH   2   6
ATOM      6  O   UNL     1       8.771  -2.733  23.745  0.00  0.00    -0.284 OA
BRANCH   6   7
ATOM      7  C   UNL     1       7.960  -2.944  22.586  0.00  0.00    +0.206 C 
BRANCH   7   8
ATOM      8  C   UNL     1       7.230  -4.289  22.574  0.00  0.00    +0.178 C 
ATOM      9  C   UNL     1       5.789  -4.104  22.119  0.00  0.00    +0.178 C 
ATOM     10  C   UNL     1       4.994  -5.077  22.980  0.00  0.00    +0.195 C 
ATOM     11  C   UNL     1       6.048  -5.753  23.892  0.00  0.00    +0.255 C 
ATOM     12  O   UNL     1       7.176  -4.851  23.893  0.00  0.00    -0.346 OA
BRANCH  11  13
ATOM     13  N   UNL     1       5.622  -6.018  25.278  0.00  0.00    -0.271 N 
ATOM     14  C   UNL     1       4.646  -6.985  25.510  0.00  0.00    +0.331 A 
ATOM     15  O   UNL     1       4.087  -7.626  24.622  0.00  0.00    -0.246 OA
ATOM     16  N   UNL     1       4.314  -7.204  26.820  0.00  0.00    -0.275 N 
ATOM     17  H   UNL     1       3.595  -7.885  27.001  0.00  0.00    +0.173 HD
ATOM     18  C   UNL     1       4.977  -6.716  27.906  0.00  0.00    +0.254 A 
ATOM     19  O   UNL     1       4.710  -7.032  29.059  0.00  0.00    -0.268 OA
ATOM     20  C   UNL     1       6.076  -5.787  27.609  0.00  0.00    +0.088 A 
ATOM     21  C   UNL     1       6.342  -5.483  26.337  0.00  0.00    +0.098 A 
ENDBRANCH  11  13
BRANCH  10  22
ATOM     22  O   UNL     1       4.237  -5.991  22.188  0.00  0.00    -0.385 OA
ATOM     23  H   UNL     1       4.811  -6.204  21.417  0.00  0.00    +0.210 HD
ENDBRANCH  10  22
BRANCH   9  24
ATOM     24  O   UNL     1       5.679  -4.310  20.718  0.00  0.00    -0.386 OA
ATOM     25  H   UNL     1       4.752  -4.123  20.475  0.00  0.00    +0.210 HD
ENDBRANCH   9  24
ENDBRANCH   7   8
ENDBRANCH   6   7
ENDBRANCH   2   6
ENDBRANCH   1   2
BRANCH   1  26
ATOM     26  P   UNL     1       9.430   0.956  22.198  0.00  0.00    +0.486 P 
ATOM     27  O   UNL     1       8.327   1.126  21.136  0.00  0.00    -0.227 OA
BRANCH  26  28
ATOM     28  O   UNL     1      10.180   2.366  21.533  0.00  0.00    -0.302 OA
ATOM     29  H   UNL     1       9.931   2.354  20.588  0.00  0.00    +0.222 HD
ENDBRANCH  26  28
BRANCH  26  30
ATOM     30  O   UNL     1       8.902   1.896  23.435  0.00  0.00    -0.254 OA
BRANCH  30  32
ATOM     31  C   UNL     1       8.567   4.221  23.963  0.00  0.00    +0.160 C 
ATOM     32  C   UNL     1       8.043   2.987  23.168  0.00  0.00    +0.285 C 
ATOM     33  O   UNL     1       6.668   2.699  23.469  0.00  0.00    -0.341 OA
ATOM     34  C   UNL     1       6.399   2.505  24.876  0.00  0.00    +0.178 C 
ATOM     35  C   UNL     1       6.701   3.802  25.630  0.00  0.00    +0.176 C 
ATOM     36  C   UNL     1       8.186   4.120  25.453  0.00  0.00    +0.171 C 
BRANCH  31  39
ATOM     37  C   UNL     1      12.119   5.562  23.683  0.00  0.00    +0.109 C 
ATOM     38  C   UNL     1      10.617   5.622  23.756  0.00  0.00    +0.210 C 
ATOM     39  N   UNL     1      10.021   4.396  23.855  0.00  0.00    -0.305 N 
ATOM     40  H   UNL     1      10.578   3.574  23.657  0.00  0.00    +0.149 HD
ATOM     41  O   UNL     1       9.992   6.673  23.784  0.00  0.00    -0.276 OA
ENDBRANCH  31  39
BRANCH  36  42
ATOM     42  O   UNL     1       8.512   5.338  26.140  0.00  0.00    -0.387 OA
ATOM     43  H   UNL     1       8.591   6.032  25.458  0.00  0.00    +0.210 HD
ENDBRANCH  36  42
BRANCH  35  44
ATOM     44  O   UNL     1       5.913   4.894  25.131  0.00  0.00    -0.387 OA
ATOM     45  H   UNL     1       6.406   5.316  24.401  0.00  0.00    +0.210 HD
ENDBRANCH  35  44
BRANCH  34  46
ATOM     46  C   UNL     1       4.938   2.068  25.079  0.00  0.00    +0.190 C 
BRANCH  46  47
ATOM     47  O   UNL     1       4.848   0.686  25.431  0.00  0.00    -0.392 OA
ATOM     48  H   UNL     1       4.716   0.641  26.396  0.00  0.00    +0.210 HD
ENDBRANCH  46  47
ENDBRANCH  34  46
ENDBRANCH  30  32
ENDBRANCH  26  30
ENDBRANCH   1  26
TORSDOF 17
ENDMDL
MODEL 3
REMARK VINA RESULT:      -7.5      2.224      4.173
REMARK  Name = 
REMARK  18 active torsions:
REMARK  status: ('A' for Active; 'I' for Inactive)
REMARK    1  A    between atoms: C_1  and  C_2
REMARK    2  A    between atoms: N_4  and  C_5
REMARK    3  A    between atoms: C_7  and  O_9
REMARK    4  A    between atoms: C_10  and  O_12
REMARK    5  A    between atoms: C_13  and  C_15
REMARK    6  A    between atoms: C_15  and  O_16
REMARK    7  A    between atoms: C_18  and  O_20
REMARK    8  A    between atoms: O_20  and  P_21
REMARK    9  A    between atoms: P_21  and  O_22
REMARK   10  A    between atoms: P_21  and  O_24
REMARK   11  A    between atoms: O_24  and  P_25
REMARK   12  A    between atoms: P_25  and  O_26
REMARK   13  A    between atoms: P_25  and  O_28
REMARK   14  A    between atoms: O_28  and  C_29
REMARK   15  A    between atoms: C_29  and  C_30
REMARK   16  A    between atoms: C_33  and  N_41
REMARK   17  A    between atoms: C_35  and  O_37
REMARK   18  A    between atoms: C_38  and  O_40
REMARK                            x       y       z     vdW  Elec       q    Type
REMARK                         _______ _______ _______ _____ _____    ______ ____
ROOT
ATOM      1  O   UNL     1       8.588  -0.347  22.898  0.00  0.00    -0.186 OA
ENDROOT
BRANCH   1   2
ATOM      2  P   UNL     1       9.636  -1.720  23.000  0.00  0.00    +0.483 P 
ATOM      3  O   UNL     1       8.778  -2.889  22.505  0.00  0.00    -0.227 OA
BRANCH   2   4
ATOM      4  O   UNL     1      10.085  -1.500  21.344  0.00  0.00    -0.302 OA
ATOM      5  H   UNL     1      11.049  -1.330  21.403  0.00  0.00    +0.222 HD
ENDBRANCH   2   4
BRANCH   2   6
ATOM      6  O   UNL     1       9.188  -1.938  24.656  0.00  0.00    -0.284 OA
BRANCH   6   7
ATOM      7  C   UNL     1       7.793  -1.899  24.968  0.00  0.00    +0.206 C 
BRANCH   7   8
ATOM      8  C   UNL     1       7.358  -2.935  26.006  0.00  0.00    +0.178 C 
ATOM      9  C   UNL     1       8.392  -4.047  26.110  0.00  0.00    +0.178 C 
ATOM     10  C   UNL     1       7.567  -5.312  26.311  0.00  0.00    +0.195 C 
ATOM     11  C   UNL     1       6.094  -4.833  26.294  0.00  0.00    +0.255 C 
ATOM     12  O   UNL     1       6.124  -3.556  25.618  0.00  0.00    -0.346 OA
BRANCH  11  13
ATOM     13  N   UNL     1       5.136  -5.729  25.623  0.00  0.00    -0.271 N 
ATOM     14  C   UNL     1       4.682  -6.858  26.300  0.00  0.00    +0.331 A 
ATOM     15  O   UNL     1       5.051  -7.180  27.429  0.00  0.00    -0.246 OA
ATOM     16  N   UNL     1       3.771  -7.636  25.635  0.00  0.00    -0.275 N 
ATOM     17  H   UNL     1       3.451  -8.466  26.104  0.00  0.00    +0.173 HD
ATOM     18  C   UNL     1       3.134  -7.306  24.476  0.00  0.00    +0.254 A 
ATOM     19  O   UNL     1       2.244  -7.985  23.979  0.00  0.00    -0.268 OA
ATOM     20  C   UNL     1       3.565  -6.047  23.856  0.00  0.00    +0.088 A 
ATOM     21  C   UNL     1       4.528  -5.331  24.441  0.00  0.00    +0.098 A 
ENDBRANCH  11  13
BRANCH  10  22
ATOM     22  O   UNL     1       7.941  -6.005  27.500  0.00  0.00    -0.385 OA
ATOM     23  H   UNL     1       7.680  -5.411  28.241  0.00  0.00    +0.210 HD
ENDBRANCH  10  22
BRANCH   9  24
ATOM     24  O   UNL     1       9.324  -3.763  27.145  0.00  0.00    -0.386 OA
ATOM     25  H   UNL     1      10.122  -4.296  26.962  0.00  0.00    +0.210 HD
ENDBRANCH   9  24
ENDBRANCH   7   8
ENDBRANCH   6   7
ENDBRANCH   2   6
ENDBRANCH   1   2
BRANCH   1  26
ATOM     26  P   UNL     1       9.472   1.013  22.297  0.00  0.00    +0.486 P 
ATOM     27  O   UNL     1       8.425   1.298  21.203  0.00  0.00    -0.227 OA
BRANCH  26  28
ATOM     28  O   UNL     1      10.357   2.373  21.696  0.00  0.00    -0.302 OA
ATOM     29  H   UNL     1       9.904   2.613  20.864  0.00  0.00    +0.222 HD
ENDBRANCH  26  28
BRANCH  26  30
ATOM     30  O   UNL     1       8.977   1.962  23.540  0.00  0.00    -0.254 OA
BRANCH  30  32
ATOM     31  C   UNL     1       8.436   4.223  24.165  0.00  0.00    +0.160 C 
ATOM     32  C   UNL     1       8.033   2.987  23.306  0.00  0.00    +0.285 C 
ATOM     33  O   UNL     1       6.683   2.570  23.566  0.00  0.00    -0.341 OA
ATOM     34  C   UNL     1       6.409   2.289  24.957  0.00  0.00    +0.178 C 
ATOM     35  C   UNL     1       6.587   3.571  25.774  0.00  0.00    +0.176 C 
ATOM     36  C   UNL     1       8.042   4.022  25.641  0.00  0.00    +0.171 C 
BRANCH  31  39
ATOM     37  C   UNL     1      11.858   5.849  23.784  0.00  0.00    +0.109 C 
ATOM     38  C   UNL     1      10.356   5.763  23.770  0.00  0.00    +0.210 C 
ATOM     39  N   UNL     1       9.872   4.526  24.093  0.00  0.00    -0.305 N 
ATOM     40  H   UNL     1      10.515   3.744  24.098  0.00  0.00    +0.149 HD
ATOM     41  O   UNL     1       9.635   6.725  23.547  0.00  0.00    -0.276 OA
ENDBRANCH  31  39
BRANCH  36  42
ATOM     42  O   UNL     1       8.251   5.230  26.387  0.00  0.00    -0.387 OA
ATOM     43  H   UNL     1       7.426   5.402  26.880  0.00  0.00    +0.210 HD
ENDBRANCH  36  42
BRANCH  35  44
ATOM     44  O   UNL     1       5.716   4.614  25.309  0.00  0.00    -0.387 OA
ATOM     45  H   UNL     1       4.968   4.687  25.934  0.00  0.00    +0.210 HD
ENDBRANCH  35  44
BRANCH  34  46
ATOM     46  C   UNL     1       4.988   1.722  25.112  0.00  0.00    +0.190 C 
BRANCH  46  47
ATOM     47  O   UNL     1       4.114   2.212  24.094  0.00  0.00    -0.392 OA
ATOM     48  H   UNL     1       3.464   1.510  23.908  0.00  0.00    +0.210 HD
ENDBRANCH  46  47
ENDBRANCH  34  46
ENDBRANCH  30  32
ENDBRANCH  26  30
ENDBRANCH   1  26
TORSDOF 17
ENDMDL
MODEL 4
REMARK VINA RESULT:      -7.4      1.797      3.174
REMARK  Name = 
REMARK  18 active torsions:
REMARK  status: ('A' for Active; 'I' for Inactive)
REMARK    1  A    between atoms: C_1  and  C_2
REMARK    2  A    between atoms: N_4  and  C_5
REMARK    3  A    between atoms: C_7  and  O_9
REMARK    4  A    between atoms: C_10  and  O_12
REMARK    5  A    between atoms: C_13  and  C_15
REMARK    6  A    between atoms: C_15  and  O_16
REMARK    7  A    between atoms: C_18  and  O_20
REMARK    8  A    between atoms: O_20  and  P_21
REMARK    9  A    between atoms: P_21  and  O_22
REMARK   10  A    between atoms: P_21  and  O_24
REMARK   11  A    between atoms: O_24  and  P_25
REMARK   12  A    between atoms: P_25  and  O_26
REMARK   13  A    between atoms: P_25  and  O_28
REMARK   14  A    between atoms: O_28  and  C_29
REMARK   15  A    between atoms: C_29  and  C_30
REMARK   16  A    between atoms: C_33  and  N_41
REMARK   17  A    between atoms: C_35  and  O_37
REMARK   18  A    between atoms: C_38  and  O_40
REMARK                            x       y       z     vdW  Elec       q    Type
REMARK                         _______ _______ _______ _____ _____    ______ ____
ROOT
ATOM      1  O   UNL     1       7.585   0.581  25.117  0.00  0.00    -0.186 OA
ENDROOT
BRANCH   1   2
ATOM      2  P   UNL     1       7.446  -1.129  25.343  0.00  0.00    +0.483 P 
ATOM      3  O   UNL     1       8.896  -1.618  25.441  0.00  0.00    -0.227 OA
BRANCH   2   4
ATOM      4  O   UNL     1       7.527  -0.908  27.057  0.00  0.00    -0.302 OA
ATOM      5  H   UNL     1       6.785  -1.461  27.381  0.00  0.00    +0.222 HD
ENDBRANCH   2   4
BRANCH   2   6
ATOM      6  O   UNL     1       7.364  -1.349  23.630  0.00  0.00    -0.284 OA
BRANCH   6   7
ATOM      7  C   UNL     1       8.067  -2.465  23.079  0.00  0.00    +0.206 C 
BRANCH   7   8
ATOM      8  C   UNL     1       7.218  -3.731  22.943  0.00  0.00    +0.178 C 
ATOM      9  C   UNL     1       5.762  -3.366  22.685  0.00  0.00    +0.178 C 
ATOM     10  C   UNL     1       4.969  -4.402  23.471  0.00  0.00    +0.195 C 
ATOM     11  C   UNL     1       6.040  -5.294  24.146  0.00  0.00    +0.255 C 
ATOM     12  O   UNL     1       7.242  -4.492  24.159  0.00  0.00    -0.346 OA
BRANCH  11  13
ATOM     13  N   UNL     1       5.729  -5.745  25.515  0.00  0.00    -0.271 N 
ATOM     14  C   UNL     1       4.877  -6.834  25.687  0.00  0.00    +0.331 A 
ATOM     15  O   UNL     1       4.336  -7.439  24.763  0.00  0.00    -0.246 OA
ATOM     16  N   UNL     1       4.650  -7.222  26.981  0.00  0.00    -0.275 N 
ATOM     17  H   UNL     1       4.019  -7.994  27.121  0.00  0.00    +0.173 HD
ATOM     18  C   UNL     1       5.322  -6.777  28.079  0.00  0.00    +0.254 A 
ATOM     19  O   UNL     1       5.159  -7.238  29.203  0.00  0.00    -0.268 OA
ATOM     20  C   UNL     1       6.296  -5.706  27.832  0.00  0.00    +0.088 A 
ATOM     21  C   UNL     1       6.451  -5.245  26.588  0.00  0.00    +0.098 A 
ENDBRANCH  11  13
BRANCH  10  22
ATOM     22  O   UNL     1       4.057  -5.116  22.637  0.00  0.00    -0.385 OA
ATOM     23  H   UNL     1       3.656  -4.437  22.049  0.00  0.00    +0.210 HD
ENDBRANCH  10  22
BRANCH   9  24
ATOM     24  O   UNL     1       5.498  -3.335  21.289  0.00  0.00    -0.386 OA
ATOM     25  H   UNL     1       5.305  -2.406  21.057  0.00  0.00    +0.210 HD
ENDBRANCH   9  24
ENDBRANCH   7   8
ENDBRANCH   6   7
ENDBRANCH   2   6
ENDBRANCH   1   2
BRANCH   1  26
ATOM     26  P   UNL     1       6.050   1.229  24.651  0.00  0.00    +0.486 P 
ATOM     27  O   UNL     1       5.569   1.322  26.112  0.00  0.00    -0.227 OA
BRANCH  26  28
ATOM     28  O   UNL     1       4.516   1.878  24.185  0.00  0.00    -0.302 OA
ATOM     29  H   UNL     1       3.932   1.703  24.949  0.00  0.00    +0.222 HD
ENDBRANCH  26  28
BRANCH  26  30
ATOM     30  O   UNL     1       6.693   2.714  24.377  0.00  0.00    -0.254 OA
BRANCH  30  32
ATOM     31  C   UNL     1       8.436   3.579  22.959  0.00  0.00    +0.160 C 
ATOM     32  C   UNL     1       6.945   3.134  23.051  0.00  0.00    +0.285 C 
ATOM     33  O   UNL     1       6.048   4.169  22.616  0.00  0.00    -0.341 OA
ATOM     34  C   UNL     1       6.212   5.424  23.313  0.00  0.00    +0.178 C 
ATOM     35  C   UNL     1       7.611   5.977  23.035  0.00  0.00    +0.176 C 
ATOM     36  C   UNL     1       8.634   4.977  23.576  0.00  0.00    +0.171 C 
BRANCH  31  39
ATOM     37  C   UNL     1      10.902   0.803  23.803  0.00  0.00    +0.109 C 
ATOM     38  C   UNL     1       9.985   1.627  22.939  0.00  0.00    +0.210 C 
ATOM     39  N   UNL     1       9.355   2.637  23.611  0.00  0.00    -0.305 N 
ATOM     40  H   UNL     1       9.372   2.625  24.623  0.00  0.00    +0.149 HD
ATOM     41  O   UNL     1       9.860   1.445  21.736  0.00  0.00    -0.276 OA
ENDBRANCH  31  39
BRANCH  36  42
ATOM     42  O   UNL     1       9.965   5.454  23.327  0.00  0.00    -0.387 OA
ATOM     43  H   UNL     1      10.306   5.791  24.177  0.00  0.00    +0.210 HD
ENDBRANCH  36  42
BRANCH  35  44
ATOM     44  O   UNL     1       7.827   6.172  21.628  0.00  0.00    -0.387 OA
ATOM     45  H   UNL     1       7.196   6.848  21.315  0.00  0.00    +0.210 HD
ENDBRANCH  35  44
BRANCH  34  46
ATOM     46  C   UNL     1       5.122   6.418  22.876  0.00  0.00    +0.190 C 
BRANCH  46  47
ATOM     47  O   UNL     1       5.171   6.663  21.468  0.00  0.00    -0.392 OA
ATOM     48  H   UNL     1       4.307   7.032  21.209  0.00  0.00    +0.210 HD
ENDBRANCH  46  47
ENDBRANCH  34  46
ENDBRANCH  30  32
ENDBRANCH  26  30
ENDBRANCH   1  26
TORSDOF 17
ENDMDL
MODEL 5
REMARK VINA RESULT:      -7.4      3.049      7.207
REMARK  Name = 
REMARK  18 active torsions:
REMARK  status: ('A' for Active; 'I' for Inactive)
REMARK    1  A    between atoms: C_1  and  C_2
REMARK    2  A    between atoms: N_4  and  C_5
REMARK    3  A    between atoms: C_7  and  O_9
REMARK    4  A    between atoms: C_10  and  O_12
REMARK    5  A    between atoms: C_13  and  C_15
REMARK    6  A    between atoms: C_15  and  O_16
REMARK    7  A    between atoms: C_18  and  O_20
REMARK    8  A    between atoms: O_20  and  P_21
REMARK    9  A    between atoms: P_21  and  O_22
REMARK   10  A    between atoms: P_21  and  O_24
REMARK   11  A    between atoms: O_24  and  P_25
REMARK   12  A    between atoms: P_25  and  O_26
REMARK   13  A    between atoms: P_25  and  O_28
REMARK   14  A    between atoms: O_28  and  C_29
REMARK   15  A    between atoms: C_29  and  C_30
REMARK   16  A    between atoms: C_33  and  N_41
REMARK   17  A    between atoms: C_35  and  O_37
REMARK   18  A    between atoms: C_38  and  O_40
REMARK                            x       y       z     vdW  Elec       q    Type
REMARK                         _______ _______ _______ _____ _____    ______ ____
ROOT
ATOM      1  O   UNL     1       7.406  -3.980  25.245  0.00  0.00    -0.186 OA
ENDROOT
BRANCH   1   2
ATOM      2  P   UNL     1       6.648  -4.423  26.736  0.00  0.00    +0.483 P 
ATOM      3  O   UNL     1       5.997  -5.779  26.443  0.00  0.00    -0.227 OA
BRANCH   2   4
ATOM      4  O   UNL     1       8.054  -5.325  27.184  0.00  0.00    -0.302 OA
ATOM      5  H   UNL     1       8.549  -5.385  26.339  0.00  0.00    +0.222 HD
ENDBRANCH   2   4
BRANCH   2   6
ATOM      6  O   UNL     1       5.242  -3.520  26.288  0.00  0.00    -0.284 OA
BRANCH   6   7
ATOM      7  C   UNL     1       5.159  -2.168  26.746  0.00  0.00    +0.206 C 
BRANCH   7   8
ATOM      8  C   UNL     1       6.089  -1.202  26.010  0.00  0.00    +0.178 C 
ATOM      9  C   UNL     1       6.759  -0.256  26.997  0.00  0.00    +0.178 C 
ATOM     10  C   UNL     1       6.812   1.078  26.264  0.00  0.00    +0.195 C 
ATOM     11  C   UNL     1       6.146   0.805  24.893  0.00  0.00    +0.255 C 
ATOM     12  O   UNL     1       5.349  -0.383  25.093  0.00  0.00    -0.346 OA
BRANCH  11  13
ATOM     13  N   UNL     1       5.299   1.889  24.363  0.00  0.00    -0.271 N 
ATOM     14  C   UNL     1       5.524   2.347  23.067  0.00  0.00    +0.331 A 
ATOM     15  O   UNL     1       6.412   1.921  22.330  0.00  0.00    -0.246 OA
ATOM     16  N   UNL     1       4.686   3.336  22.623  0.00  0.00    -0.275 N 
ATOM     17  H   UNL     1       4.851   3.691  21.695  0.00  0.00    +0.173 HD
ATOM     18  C   UNL     1       3.553   3.764  23.248  0.00  0.00    +0.254 A 
ATOM     19  O   UNL     1       2.776   4.572  22.755  0.00  0.00    -0.268 OA
ATOM     20  C   UNL     1       3.295   3.168  24.565  0.00  0.00    +0.088 A 
ATOM     21  C   UNL     1       4.162   2.278  25.055  0.00  0.00    +0.098 A 
ENDBRANCH  11  13
BRANCH  10  22
ATOM     22  O   UNL     1       8.144   1.582  26.176  0.00  0.00    -0.385 OA
ATOM     23  H   UNL     1       8.714   0.790  26.049  0.00  0.00    +0.210 HD
ENDBRANCH  10  22
BRANCH   9  24
ATOM     24  O   UNL     1       8.019  -0.773  27.402  0.00  0.00    -0.386 OA
ATOM     25  H   UNL     1       7.884  -1.206  28.267  0.00  0.00    +0.210 HD
ENDBRANCH   9  24
ENDBRANCH   7   8
ENDBRANCH   6   7
ENDBRANCH   2   6
ENDBRANCH   1   2
BRANCH   1  26
ATOM     26  P   UNL     1       9.021  -4.600  25.212  0.00  0.00    +0.486 P 
ATOM     27  O   UNL     1       8.696  -5.578  24.066  0.00  0.00    -0.227 OA
BRANCH  26  28
ATOM     28  O   UNL     1      10.636  -5.219  25.178  0.00  0.00    -0.302 OA
ATOM     29  H   UNL     1      11.104  -4.726  25.880  0.00  0.00    +0.222 HD
ENDBRANCH  26  28
BRANCH  26  30
ATOM     30  O   UNL     1       9.578  -3.275  24.421  0.00  0.00    -0.254 OA
BRANCH  30  32
ATOM     31  C   UNL     1       8.327  -1.991  22.813  0.00  0.00    +0.160 C 
ATOM     32  C   UNL     1       8.755  -2.131  24.305  0.00  0.00    +0.285 C 
ATOM     33  O   UNL     1       9.389  -0.939  24.796  0.00  0.00    -0.341 OA
ATOM     34  C   UNL     1      10.527  -0.510  24.015  0.00  0.00    +0.178 C 
ATOM     35  C   UNL     1      10.062  -0.152  22.601  0.00  0.00    +0.176 C 
ATOM     36  C   UNL     1       9.473  -1.410  21.962  0.00  0.00    +0.171 C 
BRANCH  31  39
ATOM     37  C   UNL     1       6.370  -4.913  21.354  0.00  0.00    +0.109 C 
ATOM     38  C   UNL     1       6.579  -3.567  21.994  0.00  0.00    +0.210 C 
ATOM     39  N   UNL     1       7.892  -3.262  22.221  0.00  0.00    -0.305 N 
ATOM     40  H   UNL     1       8.576  -4.006  22.156  0.00  0.00    +0.149 HD
ATOM     41  O   UNL     1       5.663  -2.793  22.236  0.00  0.00    -0.276 OA
ENDBRANCH  31  39
BRANCH  36  42
ATOM     42  O   UNL     1       9.015  -1.116  20.633  0.00  0.00    -0.387 OA
ATOM     43  H   UNL     1       8.091  -0.813  20.716  0.00  0.00    +0.210 HD
ENDBRANCH  36  42
BRANCH  35  44
ATOM     44  O   UNL     1       9.070   0.886  22.623  0.00  0.00    -0.387 OA
ATOM     45  H   UNL     1       8.486   0.764  21.849  0.00  0.00    +0.210 HD
ENDBRANCH  35  44
BRANCH  34  46
ATOM     46  C   UNL     1      11.215   0.686  24.695  0.00  0.00    +0.190 C 
BRANCH  46  47
ATOM     47  O   UNL     1      10.381   1.846  24.684  0.00  0.00    -0.392 OA
ATOM     48  H   UNL     1      10.303   2.155  25.605  0.00  0.00    +0.210 HD
ENDBRANCH  46  47
ENDBRANCH  34  46
ENDBRANCH  30  32
ENDBRANCH  26  30
ENDBRANCH   1  26
TORSDOF 17
ENDMDL
MODEL 6
REMARK VINA RESULT:      -7.4      2.450      5.411
REMARK  Name = 
REMARK  18 active torsions:
REMARK  status: ('A' for Active; 'I' for Inactive)
REMARK    1  A    between atoms: C_1  and  C_2
REMARK    2  A    between atoms: N_4  and  C_5
REMARK    3  A    between atoms: C_7  and  O_9
REMARK    4  A    between atoms: C_10  and  O_12
REMARK    5  A    between atoms: C_13  and  C_15
REMARK    6  A    between atoms: C_15  and  O_16
REMARK    7  A    between atoms: C_18  and  O_20
REMARK    8  A    between atoms: O_20  and  P_21
REMARK    9  A    between atoms: P_21  and  O_22
REMARK   10  A    between atoms: P_21  and  O_24
REMARK   11  A    between atoms: O_24  and  P_25
REMARK   12  A    between atoms: P_25  and  O_26
REMARK   13  A    between atoms: P_25  and  O_28
REMARK   14  A    between atoms: O_28  and  C_29
REMARK   15  A    between atoms: C_29  and  C_30
REMARK   16  A    between atoms: C_33  and  N_41
REMARK   17  A    between atoms: C_35  and  O_37
REMARK   18  A    between atoms: C_38  and  O_40
REMARK                            x       y       z     vdW  Elec       q    Type
REMARK                         _______ _______ _______ _____ _____    ______ ____
ROOT
ATOM      1  O   UNL     1       5.958   0.120  27.034  0.00  0.00    -0.186 OA
ENDROOT
BRANCH   1   2
ATOM      2  P   UNL     1       5.061  -1.178  26.323  0.00  0.00    +0.483 P 
ATOM      3  O   UNL     1       3.633  -0.635  26.211  0.00  0.00    -0.227 OA
BRANCH   2   4
ATOM      4  O   UNL     1       5.319  -0.496  24.754  0.00  0.00    -0.302 OA
ATOM      5  H   UNL     1       5.687  -1.252  24.248  0.00  0.00    +0.222 HD
ENDBRANCH   2   4
BRANCH   2   6
ATOM      6  O   UNL     1       4.805  -1.860  27.891  0.00  0.00    -0.284 OA
BRANCH   6   7
ATOM      7  C   UNL     1       3.827  -2.896  28.003  0.00  0.00    +0.206 C 
BRANCH   7   8
ATOM      8  C   UNL     1       4.388  -4.305  27.801  0.00  0.00    +0.178 C 
ATOM      9  C   UNL     1       5.838  -4.369  28.261  0.00  0.00    +0.178 C 
ATOM     10  C   UNL     1       6.514  -5.288  27.252  0.00  0.00    +0.195 C 
ATOM     11  C   UNL     1       5.392  -5.683  26.260  0.00  0.00    +0.255 C 
ATOM     12  O   UNL     1       4.382  -4.661  26.411  0.00  0.00    -0.346 OA
BRANCH  11  13
ATOM     13  N   UNL     1       5.791  -5.782  24.844  0.00  0.00    -0.271 N 
ATOM     14  C   UNL     1       5.099  -6.655  24.009  0.00  0.00    +0.331 A 
ATOM     15  O   UNL     1       4.178  -7.381  24.381  0.00  0.00    -0.246 OA
ATOM     16  N   UNL     1       5.498  -6.680  22.699  0.00  0.00    -0.275 N 
ATOM     17  H   UNL     1       5.020  -7.322  22.088  0.00  0.00    +0.173 HD
ATOM     18  C   UNL     1       6.361  -5.805  22.109  0.00  0.00    +0.254 A 
ATOM     19  O   UNL     1       6.600  -5.800  20.908  0.00  0.00    -0.268 OA
ATOM     20  C   UNL     1       6.981  -4.826  23.011  0.00  0.00    +0.088 A 
ATOM     21  C   UNL     1       6.679  -4.859  24.311  0.00  0.00    +0.098 A 
ENDBRANCH  11  13
BRANCH  10  22
ATOM     22  O   UNL     1       7.148  -6.398  27.886  0.00  0.00    -0.385 OA
ATOM     23  H   UNL     1       6.461  -7.101  27.928  0.00  0.00    +0.210 HD
ENDBRANCH  10  22
BRANCH   9  24
ATOM     24  O   UNL     1       5.912  -4.800  29.613  0.00  0.00    -0.386 OA
ATOM     25  H   UNL     1       5.151  -4.404  30.079  0.00  0.00    +0.210 HD
ENDBRANCH   9  24
ENDBRANCH   7   8
ENDBRANCH   6   7
ENDBRANCH   2   6
ENDBRANCH   1   2
BRANCH   1  26
ATOM     26  P   UNL     1       7.652  -0.178  26.849  0.00  0.00    +0.486 P 
ATOM     27  O   UNL     1       7.414  -1.608  26.327  0.00  0.00    -0.227 OA
BRANCH  26  28
ATOM     28  O   UNL     1       9.346  -0.475  26.664  0.00  0.00    -0.302 OA
ATOM     29  H   UNL     1       9.435  -0.843  25.763  0.00  0.00    +0.222 HD
ENDBRANCH  26  28
BRANCH  26  30
ATOM     30  O   UNL     1       7.720   0.712  25.472  0.00  0.00    -0.254 OA
BRANCH  30  32
ATOM     31  C   UNL     1       8.914   2.333  24.152  0.00  0.00    +0.160 C 
ATOM     32  C   UNL     1       8.967   0.939  24.845  0.00  0.00    +0.285 C 
ATOM     33  O   UNL     1       9.324  -0.105  23.925  0.00  0.00    -0.341 OA
ATOM     34  C   UNL     1       8.469  -0.186  22.763  0.00  0.00    +0.178 C 
ATOM     35  C   UNL     1       8.594   1.107  21.954  0.00  0.00    +0.176 C 
ATOM     36  C   UNL     1       8.119   2.265  22.833  0.00  0.00    +0.171 C 
BRANCH  31  39
ATOM     37  C   UNL     1       8.019   5.565  25.956  0.00  0.00    +0.109 C 
ATOM     38  C   UNL     1       8.785   4.664  25.025  0.00  0.00    +0.210 C 
ATOM     39  N   UNL     1       8.330   3.376  25.006  0.00  0.00    -0.305 N 
ATOM     40  H   UNL     1       7.696   3.079  25.738  0.00  0.00    +0.149 HD
ATOM     41  O   UNL     1       9.694   5.062  24.310  0.00  0.00    -0.276 OA
ENDBRANCH  31  39
BRANCH  36  42
ATOM     42  O   UNL     1       8.228   3.503  22.115  0.00  0.00    -0.387 OA
ATOM     43  H   UNL     1       7.489   4.066  22.414  0.00  0.00    +0.210 HD
ENDBRANCH  36  42
BRANCH  35  44
ATOM     44  O   UNL     1       9.950   1.340  21.544  0.00  0.00    -0.387 OA
ATOM     45  H   UNL     1      10.257   2.166  21.966  0.00  0.00    +0.210 HD
ENDBRANCH  35  44
BRANCH  34  46
ATOM     46  C   UNL     1       8.846  -1.413  21.914  0.00  0.00    +0.190 C 
BRANCH  46  47
ATOM     47  O   UNL     1      10.262  -1.541  21.778  0.00  0.00    -0.392 OA
ATOM     48  H   UNL     1      10.449  -1.704  20.836  0.00  0.00    +0.210 HD
ENDBRANCH  46  47
ENDBRANCH  34  46
ENDBRANCH  30  32
ENDBRANCH  26  30
ENDBRANCH   1  26
TORSDOF 17
ENDMDL
MODEL 7
REMARK VINA RESULT:      -7.4      2.532      3.428
REMARK  Name = 
REMARK  18 active torsions:
REMARK  status: ('A' for Active; 'I' for Inactive)
REMARK    1  A    between atoms: C_1  and  C_2
REMARK    2  A    between atoms: N_4  and  C_5
REMARK    3  A    between atoms: C_7  and  O_9
REMARK    4  A    between atoms: C_10  and  O_12
REMARK    5  A    between atoms: C_13  and  C_15
REMARK    6  A    between atoms: C_15  and  O_16
REMARK    7  A    between atoms: C_18  and  O_20
REMARK    8  A    between atoms: O_20  and  P_21
REMARK    9  A    between atoms: P_21  and  O_22
REMARK   10  A    between atoms: P_21  and  O_24
REMARK   11  A    between atoms: O_24  and  P_25
REMARK   12  A    between atoms: P_25  and  O_26
REMARK   13  A    between atoms: P_25  and  O_28
REMARK   14  A    between atoms: O_28  and  C_29
REMARK   15  A    between atoms: C_29  and  C_30
REMARK   16  A    between atoms: C_33  and  N_41
REMARK   17  A    between atoms: C_35  and  O_37
REMARK   18  A    between atoms: C_38  and  O_40
REMARK                            x       y       z     vdW  Elec       q    Type
REMARK                         _______ _______ _______ _____ _____    ______ ____
ROOT
ATOM      1  O   UNL     1       9.735   0.903  23.981  0.00  0.00    -0.186 OA
ENDROOT
BRANCH   1   2
ATOM      2  P   UNL     1       8.612  -0.084  24.852  0.00  0.00    +0.483 P 
ATOM      3  O   UNL     1       9.461  -0.759  25.935  0.00  0.00    -0.227 OA
BRANCH   2   4
ATOM      4  O   UNL     1       8.377   1.193  25.996  0.00  0.00    -0.302 OA
ATOM      5  H   UNL     1       8.250   0.706  26.838  0.00  0.00    +0.222 HD
ENDBRANCH   2   4
BRANCH   2   6
ATOM      6  O   UNL     1       8.847  -1.360  23.708  0.00  0.00    -0.284 OA
BRANCH   6   7
ATOM      7  C   UNL     1       9.198  -2.646  24.224  0.00  0.00    +0.206 C 
BRANCH   7   8
ATOM      8  C   UNL     1       8.233  -3.763  23.821  0.00  0.00    +0.178 C 
ATOM      9  C   UNL     1       6.910  -3.175  23.351  0.00  0.00    +0.178 C 
ATOM     10  C   UNL     1       5.858  -4.140  23.883  0.00  0.00    +0.195 C 
ATOM     11  C   UNL     1       6.662  -5.223  24.645  0.00  0.00    +0.255 C 
ATOM     12  O   UNL     1       7.933  -4.606  24.943  0.00  0.00    -0.346 OA
BRANCH  11  13
ATOM     13  N   UNL     1       6.047  -5.723  25.888  0.00  0.00    -0.271 N 
ATOM     14  C   UNL     1       5.056  -6.698  25.805  0.00  0.00    +0.331 A 
ATOM     15  O   UNL     1       4.632  -7.161  24.747  0.00  0.00    -0.246 OA
ATOM     16  N   UNL     1       4.545  -7.141  26.996  0.00  0.00    -0.275 N 
ATOM     17  H   UNL     1       3.813  -7.831  26.950  0.00  0.00    +0.173 HD
ATOM     18  C   UNL     1       5.045  -6.865  28.233  0.00  0.00    +0.254 A 
ATOM     19  O   UNL     1       4.620  -7.376  29.262  0.00  0.00    -0.268 OA
ATOM     20  C   UNL     1       6.167  -5.917  28.263  0.00  0.00    +0.088 A 
ATOM     21  C   UNL     1       6.607  -5.397  27.115  0.00  0.00    +0.098 A 
ENDBRANCH  11  13
BRANCH  10  22
ATOM     22  O   UNL     1       5.033  -4.654  22.839  0.00  0.00    -0.385 OA
ATOM     23  H   UNL     1       4.545  -3.875  22.485  0.00  0.00    +0.210 HD
ENDBRANCH  10  22
BRANCH   9  24
ATOM     24  O   UNL     1       6.914  -3.006  21.940  0.00  0.00    -0.386 OA
ATOM     25  H   UNL     1       6.590  -2.102  21.761  0.00  0.00    +0.210 HD
ENDBRANCH   9  24
ENDBRANCH   7   8
ENDBRANCH   6   7
ENDBRANCH   2   6
ENDBRANCH   1   2
BRANCH   1  26
ATOM     26  P   UNL     1       9.045   1.362  22.463  0.00  0.00    +0.486 P 
ATOM     27  O   UNL     1       7.632   1.486  23.064  0.00  0.00    -0.227 OA
BRANCH  26  28
ATOM     28  O   UNL     1       8.356   1.822  20.944  0.00  0.00    -0.302 OA
ATOM     29  H   UNL     1       8.949   2.521  20.606  0.00  0.00    +0.222 HD
ENDBRANCH  26  28
BRANCH  26  30
ATOM     30  O   UNL     1       9.636   2.888  22.587  0.00  0.00    -0.254 OA
BRANCH  30  32
ATOM     31  C   UNL     1       9.547   4.341  24.505  0.00  0.00    +0.160 C 
ATOM     32  C   UNL     1      10.369   3.264  23.735  0.00  0.00    +0.285 C 
ATOM     33  O   UNL     1      11.695   3.722  23.423  0.00  0.00    -0.341 OA
ATOM     34  C   UNL     1      11.732   4.964  22.684  0.00  0.00    +0.178 C 
ATOM     35  C   UNL     1      11.124   6.078  23.539  0.00  0.00    +0.176 C 
ATOM     36  C   UNL     1       9.664   5.718  23.822  0.00  0.00    +0.171 C 
BRANCH  31  39
ATOM     37  C   UNL     1       5.957   3.813  25.660  0.00  0.00    +0.109 C 
ATOM     38  C   UNL     1       7.400   4.226  25.766  0.00  0.00    +0.210 C 
ATOM     39  N   UNL     1       8.125   3.993  24.631  0.00  0.00    -0.305 N 
ATOM     40  H   UNL     1       7.727   3.391  23.921  0.00  0.00    +0.149 HD
ATOM     41  O   UNL     1       7.867   4.773  26.756  0.00  0.00    -0.276 OA
ENDBRANCH  31  39
BRANCH  36  42
ATOM     42  O   UNL     1       9.056   6.735  24.632  0.00  0.00    -0.387 OA
ATOM     43  H   UNL     1       8.425   6.283  25.223  0.00  0.00    +0.210 HD
ENDBRANCH  36  42
BRANCH  35  44
ATOM     44  O   UNL     1      11.830   6.231  24.780  0.00  0.00    -0.387 OA
ATOM     45  H   UNL     1      12.782   6.325  24.578  0.00  0.00    +0.210 HD
ENDBRANCH  35  44
BRANCH  34  46
ATOM     46  C   UNL     1      13.179   5.296  22.281  0.00  0.00    +0.190 C 
BRANCH  46  47
ATOM     47  O   UNL     1      14.103   4.954  23.316  0.00  0.00    -0.392 OA
ATOM     48  H   UNL     1      13.622   5.007  24.162  0.00  0.00    +0.210 HD
ENDBRANCH  46  47
ENDBRANCH  34  46
ENDBRANCH  30  32
ENDBRANCH  26  30
ENDBRANCH   1  26
TORSDOF 17
ENDMDL
MODEL 8
REMARK VINA RESULT:      -7.4      2.138      4.165
REMARK  Name = 
REMARK  18 active torsions:
REMARK  status: ('A' for Active; 'I' for Inactive)
REMARK    1  A    between atoms: C_1  and  C_2
REMARK    2  A    between atoms: N_4  and  C_5
REMARK    3  A    between atoms: C_7  and  O_9
REMARK    4  A    between atoms: C_10  and  O_12
REMARK    5  A    between atoms: C_13  and  C_15
REMARK    6  A    between atoms: C_15  and  O_16
REMARK    7  A    between atoms: C_18  and  O_20
REMARK    8  A    between atoms: O_20  and  P_21
REMARK    9  A    between atoms: P_21  and  O_22
REMARK   10  A    between atoms: P_21  and  O_24
REMARK   11  A    between atoms: O_24  and  P_25
REMARK   12  A    between atoms: P_25  and  O_26
REMARK   13  A    between atoms: P_25  and  O_28
REMARK   14  A    between atoms: O_28  and  C_29
REMARK   15  A    between atoms: C_29  and  C_30
REMARK   16  A    between atoms: C_33  and  N_41
REMARK   17  A    between atoms: C_35  and  O_37
REMARK   18  A    between atoms: C_38  and  O_40
REMARK                            x       y       z     vdW  Elec       q    Type
REMARK                         _______ _______ _______ _____ _____    ______ ____
ROOT
ATOM      1  O   UNL     1       6.533  -1.006  26.530  0.00  0.00    -0.186 OA
ENDROOT
BRANCH   1   2
ATOM      2  P   UNL     1       5.688   0.015  25.418  0.00  0.00    +0.483 P 
ATOM      3  O   UNL     1       4.272   0.117  25.997  0.00  0.00    -0.227 OA
BRANCH   2   4
ATOM      4  O   UNL     1       6.062   1.391  26.399  0.00  0.00    -0.302 OA
ATOM      5  H   UNL     1       5.243   1.508  26.926  0.00  0.00    +0.222 HD
ENDBRANCH   2   4
BRANCH   2   6
ATOM      6  O   UNL     1       5.315  -1.360  24.438  0.00  0.00    -0.284 OA
BRANCH   6   7
ATOM      7  C   UNL     1       6.212  -1.664  23.368  0.00  0.00    +0.206 C 
BRANCH   7   8
ATOM      8  C   UNL     1       6.554  -3.150  23.245  0.00  0.00    +0.178 C 
ATOM      9  C   UNL     1       5.446  -3.889  22.506  0.00  0.00    +0.178 C 
ATOM     10  C   UNL     1       5.350  -5.233  23.217  0.00  0.00    +0.195 C 
ATOM     11  C   UNL     1       6.416  -5.167  24.339  0.00  0.00    +0.255 C 
ATOM     12  O   UNL     1       6.658  -3.757  24.542  0.00  0.00    -0.346 OA
BRANCH  11  13
ATOM     13  N   UNL     1       6.040  -5.795  25.619  0.00  0.00    -0.271 N 
ATOM     14  C   UNL     1       6.922  -5.713  26.694  0.00  0.00    +0.331 A 
ATOM     15  O   UNL     1       8.022  -5.165  26.642  0.00  0.00    -0.246 OA
ATOM     16  N   UNL     1       6.504  -6.291  27.863  0.00  0.00    -0.275 N 
ATOM     17  H   UNL     1       7.140  -6.257  28.642  0.00  0.00    +0.173 HD
ATOM     18  C   UNL     1       5.249  -6.756  28.120  0.00  0.00    +0.254 A 
ATOM     19  O   UNL     1       4.893  -7.162  29.220  0.00  0.00    -0.268 OA
ATOM     20  C   UNL     1       4.317  -6.718  26.986  0.00  0.00    +0.088 A 
ATOM     21  C   UNL     1       4.744  -6.252  25.811  0.00  0.00    +0.098 A 
ENDBRANCH  11  13
BRANCH  10  22
ATOM     22  O   UNL     1       5.523  -6.324  22.314  0.00  0.00    -0.385 OA
ATOM     23  H   UNL     1       5.361  -7.134  22.850  0.00  0.00    +0.210 HD
ENDBRANCH  10  22
BRANCH   9  24
ATOM     24  O   UNL     1       5.738  -3.961  21.117  0.00  0.00    -0.386 OA
ATOM     25  H   UNL     1       6.683  -4.191  21.037  0.00  0.00    +0.210 HD
ENDBRANCH   9  24
ENDBRANCH   7   8
ENDBRANCH   6   7
ENDBRANCH   2   6
ENDBRANCH   1   2
BRANCH   1  26
ATOM     26  P   UNL     1       8.199  -0.544  26.589  0.00  0.00    +0.486 P 
ATOM     27  O   UNL     1       8.672  -1.930  26.110  0.00  0.00    -0.227 OA
BRANCH  26  28
ATOM     28  O   UNL     1       9.865  -0.082  26.648  0.00  0.00    -0.302 OA
ATOM     29  H   UNL     1       9.871   0.751  27.158  0.00  0.00    +0.222 HD
ENDBRANCH  26  28
BRANCH  26  30
ATOM     30  O   UNL     1       8.075   0.308  25.193  0.00  0.00    -0.254 OA
BRANCH  30  32
ATOM     31  C   UNL     1       8.857   2.373  24.233  0.00  0.00    +0.160 C 
ATOM     32  C   UNL     1       9.225   0.914  24.637  0.00  0.00    +0.285 C 
ATOM     33  O   UNL     1       9.767   0.171  23.533  0.00  0.00    -0.341 OA
ATOM     34  C   UNL     1       8.913   0.138  22.368  0.00  0.00    +0.178 C 
ATOM     35  C   UNL     1       8.735   1.561  21.832  0.00  0.00    +0.176 C 
ATOM     36  C   UNL     1       8.053   2.395  22.918  0.00  0.00    +0.171 C 
BRANCH  31  39
ATOM     37  C   UNL     1       7.371   4.916  26.646  0.00  0.00    +0.109 C 
ATOM     38  C   UNL     1       8.286   4.398  25.569  0.00  0.00    +0.210 C 
ATOM     39  N   UNL     1       8.092   3.079  25.269  0.00  0.00    -0.305 N 
ATOM     40  H   UNL     1       7.539   2.517  25.905  0.00  0.00    +0.149 HD
ATOM     41  O   UNL     1       9.089   5.106  24.977  0.00  0.00    -0.276 OA
ENDBRANCH  31  39
BRANCH  36  42
ATOM     42  O   UNL     1       7.875   3.744  22.459  0.00  0.00    -0.387 OA
ATOM     43  H   UNL     1       8.123   3.754  21.515  0.00  0.00    +0.210 HD
ENDBRANCH  36  42
BRANCH  35  44
ATOM     44  O   UNL     1       9.998   2.154  21.492  0.00  0.00    -0.387 OA
ATOM     45  H   UNL     1      10.677   1.451  21.507  0.00  0.00    +0.210 HD
ENDBRANCH  35  44
BRANCH  34  46
ATOM     46  C   UNL     1       9.514  -0.790  21.298  0.00  0.00    +0.190 C 
BRANCH  46  47
ATOM     47  O   UNL     1      10.471  -1.689  21.861  0.00  0.00    -0.392 OA
ATOM     48  H   UNL     1      11.341  -1.456  21.490  0.00  0.00    +0.210 HD
ENDBRANCH  46  47
ENDBRANCH  34  46
ENDBRANCH  30  32
ENDBRANCH  26  30
ENDBRANCH   1  26
TORSDOF 17
ENDMDL
MODEL 9
REMARK VINA RESULT:      -7.4      2.852      8.498
REMARK  Name = 
REMARK  18 active torsions:
REMARK  status: ('A' for Active; 'I' for Inactive)
REMARK    1  A    between atoms: C_1  and  C_2
REMARK    2  A    between atoms: N_4  and  C_5
REMARK    3  A    between atoms: C_7  and  O_9
REMARK    4  A    between atoms: C_10  and  O_12
REMARK    5  A    between atoms: C_13  and  C_15
REMARK    6  A    between atoms: C_15  and  O_16
REMARK    7  A    between atoms: C_18  and  O_20
REMARK    8  A    between atoms: O_20  and  P_21
REMARK    9  A    between atoms: P_21  and  O_22
REMARK   10  A    between atoms: P_21  and  O_24
REMARK   11  A    between atoms: O_24  and  P_25
REMARK   12  A    between atoms: P_25  and  O_26
REMARK   13  A    between atoms: P_25  and  O_28
REMARK   14  A    between atoms: O_28  and  C_29
REMARK   15  A    between atoms: C_29  and  C_30
REMARK   16  A    between atoms: C_33  and  N_41
REMARK   17  A    between atoms: C_35  and  O_37
REMARK   18  A    between atoms: C_38  and  O_40
REMARK                            x       y       z     vdW  Elec       q    Type
REMARK                         _______ _______ _______ _____ _____    ______ ____
ROOT
ATOM      1  O   UNL     1       8.241  -5.472  23.698  0.00  0.00    -0.186 OA
ENDROOT
BRANCH   1   2
ATOM      2  P   UNL     1       9.126  -4.414  24.743  0.00  0.00    +0.483 P 
ATOM      3  O   UNL     1       8.145  -4.093  25.876  0.00  0.00    -0.227 OA
BRANCH   2   4
ATOM      4  O   UNL     1       9.612  -5.768  25.703  0.00  0.00    -0.302 OA
ATOM      5  H   UNL     1       9.810  -5.356  26.571  0.00  0.00    +0.222 HD
ENDBRANCH   2   4
BRANCH   2   6
ATOM      6  O   UNL     1       8.640  -3.061  23.782  0.00  0.00    -0.284 OA
BRANCH   6   7
ATOM      7  C   UNL     1       9.337  -1.829  23.984  0.00  0.00    +0.206 C 
BRANCH   7   8
ATOM      8  C   UNL     1       8.420  -0.619  24.176  0.00  0.00    +0.178 C 
ATOM      9  C   UNL     1       7.635  -0.343  22.901  0.00  0.00    +0.178 C 
ATOM     10  C   UNL     1       7.575   1.177  22.817  0.00  0.00    +0.195 C 
ATOM     11  C   UNL     1       8.353   1.675  24.061  0.00  0.00    +0.255 C 
ATOM     12  O   UNL     1       9.188   0.562  24.450  0.00  0.00    -0.346 OA
BRANCH  11  13
ATOM     13  N   UNL     1       9.186   2.875  23.859  0.00  0.00    -0.271 N 
ATOM     14  C   UNL     1       8.707   4.108  24.296  0.00  0.00    +0.331 A 
ATOM     15  O   UNL     1       7.609   4.273  24.824  0.00  0.00    -0.246 OA
ATOM     16  N   UNL     1       9.539   5.179  24.105  0.00  0.00    -0.275 N 
ATOM     17  H   UNL     1       9.197   6.080  24.397  0.00  0.00    +0.173 HD
ATOM     18  C   UNL     1      10.843   5.119  23.716  0.00  0.00    +0.254 A 
ATOM     19  O   UNL     1      11.579   6.098  23.669  0.00  0.00    -0.268 OA
ATOM     20  C   UNL     1      11.339   3.780  23.374  0.00  0.00    +0.088 A 
ATOM     21  C   UNL     1      10.506   2.739  23.456  0.00  0.00    +0.098 A 
ENDBRANCH  11  13
BRANCH  10  22
ATOM     22  O   UNL     1       6.231   1.651  22.742  0.00  0.00    -0.385 OA
ATOM     23  H   UNL     1       6.304   2.602  22.495  0.00  0.00    +0.210 HD
ENDBRANCH  10  22
BRANCH   9  24
ATOM     24  O   UNL     1       6.373  -0.995  22.944  0.00  0.00    -0.386 OA
ATOM     25  H   UNL     1       6.278  -1.484  22.104  0.00  0.00    +0.210 HD
ENDBRANCH   9  24
ENDBRANCH   7   8
ENDBRANCH   6   7
ENDBRANCH   2   6
ENDBRANCH   1   2
BRANCH   1  26
ATOM     26  P   UNL     1       7.229  -4.539  22.651  0.00  0.00    +0.486 P 
ATOM     27  O   UNL     1       7.098  -5.693  21.638  0.00  0.00    -0.227 OA
BRANCH  26  28
ATOM     28  O   UNL     1       6.216  -3.607  21.603  0.00  0.00    -0.302 OA
ATOM     29  H   UNL     1       5.328  -3.660  22.007  0.00  0.00    +0.222 HD
ENDBRANCH  26  28
BRANCH  26  30
ATOM     30  O   UNL     1       5.925  -4.750  23.623  0.00  0.00    -0.254 OA
BRANCH  30  32
ATOM     31  C   UNL     1       4.275  -3.383  24.721  0.00  0.00    +0.160 C 
ATOM     32  C   UNL     1       4.741  -4.018  23.377  0.00  0.00    +0.285 C 
ATOM     33  O   UNL     1       3.709  -4.815  22.773  0.00  0.00    -0.341 OA
ATOM     34  C   UNL     1       3.188  -5.854  23.632  0.00  0.00    +0.178 C 
ATOM     35  C   UNL     1       2.523  -5.213  24.852  0.00  0.00    +0.176 C 
ATOM     36  C   UNL     1       3.591  -4.432  25.620  0.00  0.00    +0.171 C 
BRANCH  31  39
ATOM     37  C   UNL     1       6.488  -1.137  26.856  0.00  0.00    +0.109 C 
ATOM     38  C   UNL     1       5.240  -1.572  26.136  0.00  0.00    +0.210 C 
ATOM     39  N   UNL     1       5.373  -2.759  25.471  0.00  0.00    -0.305 N 
ATOM     40  H   UNL     1       6.305  -3.129  25.328  0.00  0.00    +0.149 HD
ATOM     41  O   UNL     1       4.189  -0.950  26.188  0.00  0.00    -0.276 OA
ENDBRANCH  31  39
BRANCH  36  42
ATOM     42  O   UNL     1       3.006  -3.805  26.771  0.00  0.00    -0.387 OA
ATOM     43  H   UNL     1       2.065  -3.654  26.560  0.00  0.00    +0.210 HD
ENDBRANCH  36  42
BRANCH  35  44
ATOM     44  O   UNL     1       1.463  -4.325  24.465  0.00  0.00    -0.387 OA
ATOM     45  H   UNL     1       1.210  -4.537  23.545  0.00  0.00    +0.210 HD
ENDBRANCH  35  44
BRANCH  34  46
ATOM     46  C   UNL     1       2.194  -6.734  22.853  0.00  0.00    +0.190 C 
BRANCH  46  47
ATOM     47  O   UNL     1       1.170  -5.950  22.238  0.00  0.00    -0.392 OA
ATOM     48  H   UNL     1       1.607  -5.203  21.791  0.00  0.00    +0.210 HD
ENDBRANCH  46  47
ENDBRANCH  34  46
ENDBRANCH  30  32
ENDBRANCH  26  30
ENDBRANCH   1  26
TORSDOF 17
ENDMDL
