MODEL 1
REMARK VINA RESULT:      -7.9      0.000      0.000
REMARK  Name = 
REMARK  9 active torsions:
REMARK  status: ('A' for Active; 'I' for Inactive)
REMARK    1  A    between atoms: C_2  and  C_3
REMARK    2  A    between atoms: C_2  and  C_7
REMARK    3  A    between atoms: C_2  and  C_12
REMARK    4  A    between atoms: C_3  and  C_4
REMARK    5  A    between atoms: C_4  and  C_5
REMARK    6  A    between atoms: C_4  and  C_6
REMARK    7  A    between atoms: C_7  and  C_8
REMARK    8  A    between atoms: N_10  and  O_11
REMARK    9  A    between atoms: N_14  and  C_15
REMARK                            x       y       z     vdW  Elec       q    Type
REMARK                         _______ _______ _______ _____ _____    ______ ____
ROOT
ATOM      1  C   UNL     1       8.661  -4.235  25.438  0.00  0.00    +0.163 C 
ATOM      2  C   UNL     1       8.753  -2.455  25.846  0.00  0.00    +0.234 C 
ATOM      3  O   UNL     1       8.099  -2.037  26.813  0.00  0.00    -0.274 OA
ATOM      4  N   UNL     1       9.598  -1.505  25.097  0.00  0.00    -0.314 N 
ATOM      5  H   UNL     1      10.536  -1.873  24.993  0.00  0.00    +0.149 HD
ATOM      6  C   UNL     1       9.642   0.073  25.329  0.00  0.00    +0.104 C 
ATOM      7  C   UNL     1      10.417   1.206  24.379  0.00  0.00    +0.019 C 
ATOM      8  C   UNL     1       9.943   1.859  23.022  0.00  0.00    +0.002 C 
ATOM      9  C   UNL     1      10.001   0.876  21.856  0.00  0.00    +0.002 C 
ATOM     10  C   UNL     1       8.715   0.130  21.994  0.00  0.00    +0.022 C 
ATOM     11  C   UNL     1       8.775  -1.339  21.881  0.00  0.00    +0.122 C 
ATOM     12  N   UNL     1       7.527  -1.913  22.381  0.00  0.00    -0.346 N 
ATOM     13  C   UNL     1       6.663  -1.482  23.410  0.00  0.00    +0.049 A 
ATOM     14  C   UNL     1       6.355  -0.249  24.033  0.00  0.00    +0.026 A 
ATOM     15  C   UNL     1       5.573  -0.235  25.201  0.00  0.00    +0.002 A 
ATOM     16  C   UNL     1       4.998  -1.395  25.689  0.00  0.00    +0.001 A 
ATOM     17  C   UNL     1       5.294  -2.617  25.089  0.00  0.00    +0.010 A 
ATOM     18  C   UNL     1       6.179  -2.656  23.992  0.00  0.00    +0.003 A 
ATOM     19  C   UNL     1       7.092  -3.605  23.518  0.00  0.00    -0.020 A 
ATOM     20  C   UNL     1       7.421  -3.278  22.229  0.00  0.00    +0.090 A 
ATOM     21  C   UNL     1       7.735  -4.650  24.266  0.00  0.00    +0.069 C 
ENDROOT
BRANCH   1  23
ATOM     22  C   UNL     1       7.051  -5.632  27.154  0.00  0.00    +0.217 C 
ATOM     23  N   UNL     1       8.261  -5.346  26.471  0.00  0.00    -0.303 N 
ATOM     24  H   UNL     1       9.025  -5.550  27.109  0.00  0.00    +0.149 HD
ATOM     25  O   UNL     1       7.156  -6.128  28.270  0.00  0.00    -0.275 OA
BRANCH  22  26
ATOM     26  C   UNL     1       5.547  -5.393  26.599  0.00  0.00    +0.084 C 
BRANCH  26  27
ATOM     27  C   UNL     1       5.007  -6.613  25.768  0.00  0.00    +0.110 C 
BRANCH  27  28
ATOM     28  C   UNL     1       4.403  -6.164  24.420  0.00  0.00    +0.236 C 
ATOM     29  N   UNL     1       5.060  -6.632  23.308  0.00  0.00    -0.197 N 
ATOM     30  H   UNL     1       5.912  -7.126  23.267  0.00  0.00    +0.182 HD
ATOM     31  O   UNL     1       3.416  -5.444  24.334  0.00  0.00    -0.274 OA
BRANCH  29  32
ATOM     32  O   UNL     1       4.493  -6.211  22.069  0.00  0.00    -0.295 OA
ATOM     33  H   UNL     1       4.170  -5.305  22.250  0.00  0.00    +0.241 HD
ENDBRANCH  29  32
ENDBRANCH  27  28
ENDBRANCH  26  27
BRANCH  26  34
ATOM     34  C   UNL     1       4.397  -4.891  27.566  0.00  0.00    +0.016 C 
BRANCH  34  35
ATOM     35  C   UNL     1       4.625  -3.877  28.742  0.00  0.00    -0.016 C 
ATOM     36  C   UNL     1       4.566  -4.605  30.103  0.00  0.00    +0.007 C 
ATOM     37  C   UNL     1       3.589  -2.752  28.778  0.00  0.00    +0.007 C 
ENDBRANCH  34  35
ENDBRANCH  26  34
ENDBRANCH  22  26
ENDBRANCH   1  23
TORSDOF 7
ENDMDL
MODEL 2
REMARK VINA RESULT:      -7.9      2.528      5.058
REMARK  Name = 
REMARK  9 active torsions:
REMARK  status: ('A' for Active; 'I' for Inactive)
REMARK    1  A    between atoms: C_2  and  C_3
REMARK    2  A    between atoms: C_2  and  C_7
REMARK    3  A    between atoms: C_2  and  C_12
REMARK    4  A    between atoms: C_3  and  C_4
REMARK    5  A    between atoms: C_4  and  C_5
REMARK    6  A    between atoms: C_4  and  C_6
REMARK    7  A    between atoms: C_7  and  C_8
REMARK    8  A    between atoms: N_10  and  O_11
REMARK    9  A    between atoms: N_14  and  C_15
REMARK                            x       y       z     vdW  Elec       q    Type
REMARK                         _______ _______ _______ _____ _____    ______ ____
ROOT
ATOM      1  C   UNL     1       6.880  -1.049  25.494  0.00  0.00    +0.163 C 
ATOM      2  C   UNL     1       6.513  -0.142  23.949  0.00  0.00    +0.234 C 
ATOM      3  O   UNL     1       6.271  -0.796  22.924  0.00  0.00    -0.274 OA
ATOM      4  N   UNL     1       6.458   1.332  23.880  0.00  0.00    -0.314 N 
ATOM      5  H   UNL     1       5.884   1.698  24.628  0.00  0.00    +0.149 HD
ATOM      6  C   UNL     1       6.252   2.186  22.549  0.00  0.00    +0.104 C 
ATOM      7  C   UNL     1       6.390   3.842  22.388  0.00  0.00    +0.019 C 
ATOM      8  C   UNL     1       7.691   4.722  22.230  0.00  0.00    +0.002 C 
ATOM      9  C   UNL     1       8.494   4.804  23.525  0.00  0.00    +0.002 C 
ATOM     10  C   UNL     1       9.294   3.544  23.494  0.00  0.00    +0.022 C 
ATOM     11  C   UNL     1       9.341   2.749  24.735  0.00  0.00    +0.122 C 
ATOM     12  N   UNL     1       9.853   1.413  24.432  0.00  0.00    -0.346 N 
ATOM     13  C   UNL     1       9.712   0.612  23.278  0.00  0.00    +0.049 A 
ATOM     14  C   UNL     1       9.471   0.841  21.902  0.00  0.00    +0.026 A 
ATOM     15  C   UNL     1       9.176  -0.243  21.058  0.00  0.00    +0.002 A 
ATOM     16  C   UNL     1       9.231  -1.546  21.522  0.00  0.00    +0.001 A 
ATOM     17  C   UNL     1       9.463  -1.787  22.874  0.00  0.00    +0.010 A 
ATOM     18  C   UNL     1       9.636  -0.699  23.754  0.00  0.00    +0.003 A 
ATOM     19  C   UNL     1       9.347  -0.493  25.108  0.00  0.00    -0.020 A 
ATOM     20  C   UNL     1      10.044   0.608  25.533  0.00  0.00    +0.090 A 
ATOM     21  C   UNL     1       8.369  -1.178  25.907  0.00  0.00    +0.069 C 
ENDROOT
BRANCH   1  23
ATOM     22  C   UNL     1       6.547  -3.723  25.019  0.00  0.00    +0.217 C 
ATOM     23  N   UNL     1       6.422  -2.525  25.767  0.00  0.00    -0.303 N 
ATOM     24  H   UNL     1       5.521  -2.551  26.234  0.00  0.00    +0.149 HD
ATOM     25  O   UNL     1       5.647  -4.547  25.150  0.00  0.00    -0.275 OA
BRANCH  22  26
ATOM     26  C   UNL     1       7.767  -4.125  24.030  0.00  0.00    +0.084 C 
BRANCH  26  27
ATOM     27  C   UNL     1       8.966  -4.797  24.791  0.00  0.00    +0.110 C 
BRANCH  27  28
ATOM     28  C   UNL     1       8.677  -4.942  26.300  0.00  0.00    +0.236 C 
ATOM     29  N   UNL     1       7.918  -6.036  26.640  0.00  0.00    -0.197 N 
ATOM     30  H   UNL     1       7.460  -6.671  26.039  0.00  0.00    +0.182 HD
ATOM     31  O   UNL     1       9.083  -4.151  27.141  0.00  0.00    -0.274 OA
BRANCH  29  32
ATOM     32  O   UNL     1       7.656  -6.161  28.036  0.00  0.00    -0.295 OA
ATOM     33  H   UNL     1       7.488  -7.117  28.163  0.00  0.00    +0.241 HD
ENDBRANCH  29  32
ENDBRANCH  27  28
ENDBRANCH  26  27
BRANCH  26  34
ATOM     34  C   UNL     1       7.496  -4.935  22.696  0.00  0.00    +0.016 C 
BRANCH  34  35
ATOM     35  C   UNL     1       6.131  -4.912  21.922  0.00  0.00    -0.016 C 
ATOM     36  C   UNL     1       6.166  -5.900  20.736  0.00  0.00    +0.007 C 
ATOM     37  C   UNL     1       5.779  -3.534  21.360  0.00  0.00    +0.007 C 
ENDBRANCH  34  35
ENDBRANCH  26  34
ENDBRANCH  22  26
ENDBRANCH   1  23
TORSDOF 7
ENDMDL
MODEL 3
REMARK VINA RESULT:      -7.8      2.392      7.197
REMARK  Name = 
REMARK  9 active torsions:
REMARK  status: ('A' for Active; 'I' for Inactive)
REMARK    1  A    between atoms: C_2  and  C_3
REMARK    2  A    between atoms: C_2  and  C_7
REMARK    3  A    between atoms: C_2  and  C_12
REMARK    4  A    between atoms: C_3  and  C_4
REMARK    5  A    between atoms: C_4  and  C_5
REMARK    6  A    between atoms: C_4  and  C_6
REMARK    7  A    between atoms: C_7  and  C_8
REMARK    8  A    between atoms: N_10  and  O_11
REMARK    9  A    between atoms: N_14  and  C_15
REMARK                            x       y       z     vdW  Elec       q    Type
REMARK                         _______ _______ _______ _____ _____    ______ ____
ROOT
ATOM      1  C   UNL     1       7.190  -2.230  22.879  0.00  0.00    +0.163 C 
ATOM      2  C   UNL     1       6.475  -2.139  24.559  0.00  0.00    +0.234 C 
ATOM      3  O   UNL     1       7.240  -1.954  25.518  0.00  0.00    -0.274 OA
ATOM      4  N   UNL     1       5.025  -2.241  24.819  0.00  0.00    -0.314 N 
ATOM      5  H   UNL     1       4.513  -1.622  24.203  0.00  0.00    +0.149 HD
ATOM      6  C   UNL     1       4.346  -2.279  26.262  0.00  0.00    +0.104 C 
ATOM      7  C   UNL     1       2.746  -2.600  26.610  0.00  0.00    +0.019 C 
ATOM      8  C   UNL     1       2.009  -3.992  26.708  0.00  0.00    +0.002 C 
ATOM      9  C   UNL     1       1.818  -4.643  25.340  0.00  0.00    +0.002 C 
ATOM     10  C   UNL     1       3.133  -5.310  25.110  0.00  0.00    +0.022 C 
ATOM     11  C   UNL     1       3.753  -5.132  23.784  0.00  0.00    +0.122 C 
ATOM     12  N   UNL     1       5.155  -5.539  23.848  0.00  0.00    -0.346 N 
ATOM     13  C   UNL     1       6.091  -5.454  24.902  0.00  0.00    +0.049 A 
ATOM     14  C   UNL     1       6.034  -5.400  26.314  0.00  0.00    +0.026 A 
ATOM     15  C   UNL     1       7.194  -5.098  27.048  0.00  0.00    +0.002 A 
ATOM     16  C   UNL     1       8.421  -4.967  26.421  0.00  0.00    +0.001 A 
ATOM     17  C   UNL     1       8.493  -5.015  25.031  0.00  0.00    +0.010 A 
ATOM     18  C   UNL     1       7.314  -5.192  24.278  0.00  0.00    +0.003 A 
ATOM     19  C   UNL     1       6.902  -4.769  23.010  0.00  0.00    -0.020 A 
ATOM     20  C   UNL     1       5.816  -5.518  22.639  0.00  0.00    +0.090 A 
ATOM     21  C   UNL     1       7.386  -3.640  22.264  0.00  0.00    +0.069 C 
ENDROOT
BRANCH   1  23
ATOM     22  C   UNL     1       8.963  -0.273  22.162  0.00  0.00    +0.217 C 
ATOM     23  N   UNL     1       8.571  -1.597  22.485  0.00  0.00    -0.303 N 
ATOM     24  H   UNL     1       9.111  -2.225  21.899  0.00  0.00    +0.149 HD
ATOM     25  O   UNL     1       9.884  -0.154  21.361  0.00  0.00    -0.275 OA
BRANCH  22  26
ATOM     26  C   UNL     1       8.333   1.096  22.759  0.00  0.00    +0.084 C 
BRANCH  26  27
ATOM     27  C   UNL     1       9.295   1.810  23.777  0.00  0.00    +0.110 C 
BRANCH  27  28
ATOM     28  C   UNL     1       9.762   0.850  24.892  0.00  0.00    +0.236 C 
ATOM     29  N   UNL     1       8.807   0.552  25.833  0.00  0.00    -0.197 N 
ATOM     30  H   UNL     1       7.909   0.947  25.938  0.00  0.00    +0.182 HD
ATOM     31  O   UNL     1      10.893   0.386  24.947  0.00  0.00    -0.274 OA
BRANCH  29  32
ATOM     32  O   UNL     1       9.249  -0.335  26.859  0.00  0.00    -0.295 OA
ATOM     33  H   UNL     1       9.535   0.260  27.582  0.00  0.00    +0.241 HD
ENDBRANCH  29  32
ENDBRANCH  27  28
ENDBRANCH  26  27
BRANCH  26  34
ATOM     34  C   UNL     1       7.713   2.191  21.796  0.00  0.00    +0.016 C 
BRANCH  34  35
ATOM     35  C   UNL     1       6.467   3.071  22.164  0.00  0.00    -0.016 C 
ATOM     36  C   UNL     1       6.902   4.519  22.478  0.00  0.00    +0.007 C 
ATOM     37  C   UNL     1       5.696   2.550  23.378  0.00  0.00    +0.007 C 
ENDBRANCH  34  35
ENDBRANCH  26  34
ENDBRANCH  22  26
ENDBRANCH   1  23
TORSDOF 7
ENDMDL
MODEL 4
REMARK VINA RESULT:      -7.8      2.579      5.128
REMARK  Name = 
REMARK  9 active torsions:
REMARK  status: ('A' for Active; 'I' for Inactive)
REMARK    1  A    between atoms: C_2  and  C_3
REMARK    2  A    between atoms: C_2  and  C_7
REMARK    3  A    between atoms: C_2  and  C_12
REMARK    4  A    between atoms: C_3  and  C_4
REMARK    5  A    between atoms: C_4  and  C_5
REMARK    6  A    between atoms: C_4  and  C_6
REMARK    7  A    between atoms: C_7  and  C_8
REMARK    8  A    between atoms: N_10  and  O_11
REMARK    9  A    between atoms: N_14  and  C_15
REMARK                            x       y       z     vdW  Elec       q    Type
REMARK                         _______ _______ _______ _____ _____    ______ ____
ROOT
ATOM      1  C   UNL     1       7.483  -1.882  24.230  0.00  0.00    +0.163 C 
ATOM      2  C   UNL     1       7.527  -0.431  23.118  0.00  0.00    +0.234 C 
ATOM      3  O   UNL     1       8.482  -0.315  22.336  0.00  0.00    -0.274 OA
ATOM      4  N   UNL     1       6.457   0.586  23.087  0.00  0.00    -0.314 N 
ATOM      5  H   UNL     1       5.550   0.142  23.022  0.00  0.00    +0.149 HD
ATOM      6  C   UNL     1       6.484   1.928  22.224  0.00  0.00    +0.104 C 
ATOM      7  C   UNL     1       5.406   3.199  22.311  0.00  0.00    +0.019 C 
ATOM      8  C   UNL     1       5.349   4.386  23.350  0.00  0.00    +0.002 C 
ATOM      9  C   UNL     1       4.883   3.926  24.728  0.00  0.00    +0.002 C 
ATOM     10  C   UNL     1       6.138   3.398  25.339  0.00  0.00    +0.022 C 
ATOM     11  C   UNL     1       6.057   2.094  26.022  0.00  0.00    +0.122 C 
ATOM     12  N   UNL     1       7.408   1.579  26.241  0.00  0.00    -0.346 N 
ATOM     13  C   UNL     1       8.582   1.716  25.469  0.00  0.00    +0.049 A 
ATOM     14  C   UNL     1       9.081   2.650  24.530  0.00  0.00    +0.026 A 
ATOM     15  C   UNL     1      10.233   2.342  23.786  0.00  0.00    +0.002 A 
ATOM     16  C   UNL     1      10.958   1.190  24.038  0.00  0.00    +0.001 A 
ATOM     17  C   UNL     1      10.478   0.259  24.956  0.00  0.00    +0.010 A 
ATOM     18  C   UNL     1       9.256   0.501  25.616  0.00  0.00    +0.003 A 
ATOM     19  C   UNL     1       8.243  -0.327  26.113  0.00  0.00    -0.020 A 
ATOM     20  C   UNL     1       7.466   0.411  26.968  0.00  0.00    +0.090 A 
ATOM     21  C   UNL     1       7.927  -1.666  25.699  0.00  0.00    +0.069 C 
ENDROOT
BRANCH   1  23
ATOM     22  C   UNL     1       8.038  -4.557  24.380  0.00  0.00    +0.217 C 
ATOM     23  N   UNL     1       8.242  -3.224  23.940  0.00  0.00    -0.303 N 
ATOM     24  H   UNL     1       9.245  -3.076  23.876  0.00  0.00    +0.149 HD
ATOM     25  O   UNL     1       9.040  -5.255  24.497  0.00  0.00    -0.275 OA
BRANCH  22  26
ATOM     26  C   UNL     1       6.616  -5.257  24.720  0.00  0.00    +0.084 C 
BRANCH  26  27
ATOM     27  C   UNL     1       6.043  -4.816  26.115  0.00  0.00    +0.110 C 
BRANCH  27  28
ATOM     28  C   UNL     1       6.367  -5.846  27.219  0.00  0.00    +0.236 C 
ATOM     29  N   UNL     1       5.362  -6.744  27.483  0.00  0.00    -0.197 N 
ATOM     30  H   UNL     1       4.440  -6.747  27.133  0.00  0.00    +0.182 HD
ATOM     31  O   UNL     1       7.432  -5.871  27.821  0.00  0.00    -0.274 OA
BRANCH  29  32
ATOM     32  O   UNL     1       5.671  -7.690  28.504  0.00  0.00    -0.295 OA
ATOM     33  H   UNL     1       4.821  -7.822  28.973  0.00  0.00    +0.241 HD
ENDBRANCH  29  32
ENDBRANCH  27  28
ENDBRANCH  26  27
BRANCH  26  34
ATOM     34  C   UNL     1       5.436  -5.251  23.663  0.00  0.00    +0.016 C 
BRANCH  34  35
ATOM     35  C   UNL     1       5.651  -5.361  22.113  0.00  0.00    -0.016 C 
ATOM     36  C   UNL     1       6.828  -6.311  21.797  0.00  0.00    +0.007 C 
ATOM     37  C   UNL     1       5.955  -4.018  21.449  0.00  0.00    +0.007 C 
ENDBRANCH  34  35
ENDBRANCH  26  34
ENDBRANCH  22  26
ENDBRANCH   1  23
TORSDOF 7
ENDMDL
MODEL 5
REMARK VINA RESULT:      -7.6      2.359      3.838
REMARK  Name = 
REMARK  9 active torsions:
REMARK  status: ('A' for Active; 'I' for Inactive)
REMARK    1  A    between atoms: C_2  and  C_3
REMARK    2  A    between atoms: C_2  and  C_7
REMARK    3  A    between atoms: C_2  and  C_12
REMARK    4  A    between atoms: C_3  and  C_4
REMARK    5  A    between atoms: C_4  and  C_5
REMARK    6  A    between atoms: C_4  and  C_6
REMARK    7  A    between atoms: C_7  and  C_8
REMARK    8  A    between atoms: N_10  and  O_11
REMARK    9  A    between atoms: N_14  and  C_15
REMARK                            x       y       z     vdW  Elec       q    Type
REMARK                         _______ _______ _______ _____ _____    ______ ____
ROOT
ATOM      1  C   UNL     1       6.475  -2.865  26.762  0.00  0.00    +0.163 C 
ATOM      2  C   UNL     1       6.071  -1.858  25.290  0.00  0.00    +0.234 C 
ATOM      3  O   UNL     1       4.968  -2.022  24.747  0.00  0.00    -0.274 OA
ATOM      4  N   UNL     1       6.985  -0.836  24.744  0.00  0.00    -0.314 N 
ATOM      5  H   UNL     1       7.318  -0.229  25.483  0.00  0.00    +0.149 HD
ATOM      6  C   UNL     1       6.744  -0.002  23.405  0.00  0.00    +0.104 C 
ATOM      7  C   UNL     1       7.833   1.005  22.640  0.00  0.00    +0.019 C 
ATOM      8  C   UNL     1       9.024   0.632  21.674  0.00  0.00    +0.002 C 
ATOM      9  C   UNL     1      10.186  -0.022  22.415  0.00  0.00    +0.002 C 
ATOM     10  C   UNL     1       9.757  -1.449  22.502  0.00  0.00    +0.022 C 
ATOM     11  C   UNL     1       9.906  -2.118  23.807  0.00  0.00    +0.122 C 
ATOM     12  N   UNL     1       9.130  -3.357  23.806  0.00  0.00    -0.346 N 
ATOM     13  C   UNL     1       7.915  -3.682  23.164  0.00  0.00    +0.049 A 
ATOM     14  C   UNL     1       7.216  -3.234  22.019  0.00  0.00    +0.026 A 
ATOM     15  C   UNL     1       5.894  -3.659  21.799  0.00  0.00    +0.002 A 
ATOM     16  C   UNL     1       5.302  -4.602  22.620  0.00  0.00    +0.001 A 
ATOM     17  C   UNL     1       5.976  -5.050  23.753  0.00  0.00    +0.010 A 
ATOM     18  C   UNL     1       7.254  -4.535  24.051  0.00  0.00    +0.003 A 
ATOM     19  C   UNL     1       7.950  -4.300  25.242  0.00  0.00    -0.020 A 
ATOM     20  C   UNL     1       9.275  -4.127  24.939  0.00  0.00    +0.090 A 
ATOM     21  C   UNL     1       7.396  -4.094  26.553  0.00  0.00    +0.069 C 
ENDROOT
BRANCH   1  23
ATOM     22  C   UNL     1       4.236  -4.295  27.417  0.00  0.00    +0.217 C 
ATOM     23  N   UNL     1       5.395  -3.524  27.690  0.00  0.00    -0.303 N 
ATOM     24  H   UNL     1       5.186  -2.935  28.490  0.00  0.00    +0.149 HD
ATOM     25  O   UNL     1       3.304  -4.180  28.205  0.00  0.00    -0.275 OA
BRANCH  22  26
ATOM     26  C   UNL     1       4.029  -5.329  26.186  0.00  0.00    +0.084 C 
BRANCH  26  27
ATOM     27  C   UNL     1       4.722  -6.717  26.438  0.00  0.00    +0.110 C 
BRANCH  27  28
ATOM     28  C   UNL     1       4.789  -7.058  27.942  0.00  0.00    +0.236 C 
ATOM     29  N   UNL     1       3.569  -7.238  28.548  0.00  0.00    -0.197 N 
ATOM     30  H   UNL     1       2.671  -7.080  28.170  0.00  0.00    +0.182 HD
ATOM     31  O   UNL     1       5.840  -7.161  28.560  0.00  0.00    -0.274 OA
BRANCH  29  32
ATOM     32  O   UNL     1       3.642  -7.552  29.937  0.00  0.00    -0.295 OA
ATOM     33  H   UNL     1       2.717  -7.476  30.248  0.00  0.00    +0.241 HD
ENDBRANCH  29  32
ENDBRANCH  27  28
ENDBRANCH  26  27
BRANCH  26  34
ATOM     34  C   UNL     1       2.589  -5.585  25.576  0.00  0.00    +0.016 C 
BRANCH  34  35
ATOM     35  C   UNL     1       2.087  -4.958  24.228  0.00  0.00    -0.016 C 
ATOM     36  C   UNL     1       0.694  -4.319  24.416  0.00  0.00    +0.007 C 
ATOM     37  C   UNL     1       1.975  -5.977  23.093  0.00  0.00    +0.007 C 
ENDBRANCH  34  35
ENDBRANCH  26  34
ENDBRANCH  22  26
ENDBRANCH   1  23
TORSDOF 7
ENDMDL
MODEL 6
REMARK VINA RESULT:      -7.5      2.575      4.336
REMARK  Name = 
REMARK  9 active torsions:
REMARK  status: ('A' for Active; 'I' for Inactive)
REMARK    1  A    between atoms: C_2  and  C_3
REMARK    2  A    between atoms: C_2  and  C_7
REMARK    3  A    between atoms: C_2  and  C_12
REMARK    4  A    between atoms: C_3  and  C_4
REMARK    5  A    between atoms: C_4  and  C_5
REMARK    6  A    between atoms: C_4  and  C_6
REMARK    7  A    between atoms: C_7  and  C_8
REMARK    8  A    between atoms: N_10  and  O_11
REMARK    9  A    between atoms: N_14  and  C_15
REMARK                            x       y       z     vdW  Elec       q    Type
REMARK                         _______ _______ _______ _____ _____    ______ ____
ROOT
ATOM      1  C   UNL     1       7.129  -1.801  23.908  0.00  0.00    +0.163 C 
ATOM      2  C   UNL     1       7.351  -0.287  22.907  0.00  0.00    +0.234 C 
ATOM      3  O   UNL     1       8.343  -0.209  22.167  0.00  0.00    -0.274 OA
ATOM      4  N   UNL     1       6.383   0.828  22.915  0.00  0.00    -0.314 N 
ATOM      5  H   UNL     1       5.441   0.478  22.788  0.00  0.00    +0.149 HD
ATOM      6  C   UNL     1       6.568   2.217  22.154  0.00  0.00    +0.104 C 
ATOM      7  C   UNL     1       5.610   3.576  22.299  0.00  0.00    +0.019 C 
ATOM      8  C   UNL     1       5.623   4.688  23.419  0.00  0.00    +0.002 C 
ATOM      9  C   UNL     1       5.062   4.180  24.745  0.00  0.00    +0.002 C 
ATOM     10  C   UNL     1       6.238   3.494  25.355  0.00  0.00    +0.022 C 
ATOM     11  C   UNL     1       6.009   2.159  25.938  0.00  0.00    +0.122 C 
ATOM     12  N   UNL     1       7.296   1.503  26.163  0.00  0.00    -0.346 N 
ATOM     13  C   UNL     1       8.508   1.580  25.441  0.00  0.00    +0.049 A 
ATOM     14  C   UNL     1       9.128   2.525  24.591  0.00  0.00    +0.026 A 
ATOM     15  C   UNL     1      10.275   2.161  23.864  0.00  0.00    +0.002 A 
ATOM     16  C   UNL     1      10.879   0.930  24.054  0.00  0.00    +0.001 A 
ATOM     17  C   UNL     1      10.278  -0.012  24.886  0.00  0.00    +0.010 A 
ATOM     18  C   UNL     1       9.059   0.299  25.522  0.00  0.00    +0.003 A 
ATOM     19  C   UNL     1       7.955  -0.461  25.924  0.00  0.00    -0.020 A 
ATOM     20  C   UNL     1       7.217   0.286  26.804  0.00  0.00    +0.090 A 
ATOM     21  C   UNL     1       7.532  -1.731  25.403  0.00  0.00    +0.069 C 
ENDROOT
BRANCH   1  23
ATOM     22  C   UNL     1       7.630  -4.484  24.101  0.00  0.00    +0.217 C 
ATOM     23  N   UNL     1       7.770  -3.186  23.545  0.00  0.00    -0.303 N 
ATOM     24  H   UNL     1       8.738  -3.082  23.259  0.00  0.00    +0.149 HD
ATOM     25  O   UNL     1       8.614  -5.213  24.043  0.00  0.00    -0.275 OA
BRANCH  22  26
ATOM     26  C   UNL     1       6.298  -5.107  24.782  0.00  0.00    +0.084 C 
BRANCH  26  27
ATOM     27  C   UNL     1       5.480  -6.014  23.792  0.00  0.00    +0.110 C 
BRANCH  27  28
ATOM     28  C   UNL     1       5.439  -5.415  22.370  0.00  0.00    +0.236 C 
ATOM     29  N   UNL     1       5.963  -6.222  21.388  0.00  0.00    -0.197 N 
ATOM     30  H   UNL     1       6.444  -7.076  21.494  0.00  0.00    +0.182 HD
ATOM     31  O   UNL     1       4.981  -4.308  22.121  0.00  0.00    -0.274 OA
BRANCH  29  32
ATOM     32  O   UNL     1       5.921  -5.659  20.079  0.00  0.00    -0.295 OA
ATOM     33  H   UNL     1       4.985  -5.756  19.807  0.00  0.00    +0.241 HD
ENDBRANCH  29  32
ENDBRANCH  27  28
ENDBRANCH  26  27
BRANCH  26  34
ATOM     34  C   UNL     1       6.369  -5.832  26.189  0.00  0.00    +0.016 C 
BRANCH  34  35
ATOM     35  C   UNL     1       5.398  -5.521  27.381  0.00  0.00    -0.016 C 
ATOM     36  C   UNL     1       5.100  -4.007  27.455  0.00  0.00    +0.007 C 
ATOM     37  C   UNL     1       5.955  -5.946  28.741  0.00  0.00    +0.007 C 
ENDBRANCH  34  35
ENDBRANCH  26  34
ENDBRANCH  22  26
ENDBRANCH   1  23
TORSDOF 7
ENDMDL
MODEL 7
REMARK VINA RESULT:      -7.4      3.117      7.698
REMARK  Name = 
REMARK  9 active torsions:
REMARK  status: ('A' for Active; 'I' for Inactive)
REMARK    1  A    between atoms: C_2  and  C_3
REMARK    2  A    between atoms: C_2  and  C_7
REMARK    3  A    between atoms: C_2  and  C_12
REMARK    4  A    between atoms: C_3  and  C_4
REMARK    5  A    between atoms: C_4  and  C_5
REMARK    6  A    between atoms: C_4  and  C_6
REMARK    7  A    between atoms: C_7  and  C_8
REMARK    8  A    between atoms: N_10  and  O_11
REMARK    9  A    between atoms: N_14  and  C_15
REMARK                            x       y       z     vdW  Elec       q    Type
REMARK                         _______ _______ _______ _____ _____    ______ ____
ROOT
ATOM      1  C   UNL     1       7.555  -1.664  23.017  0.00  0.00    +0.163 C 
ATOM      2  C   UNL     1       6.697  -1.833  24.623  0.00  0.00    +0.234 C 
ATOM      3  O   UNL     1       7.357  -1.688  25.663  0.00  0.00    -0.274 OA
ATOM      4  N   UNL     1       5.250  -2.101  24.733  0.00  0.00    -0.314 N 
ATOM      5  H   UNL     1       4.728  -1.467  24.141  0.00  0.00    +0.149 HD
ATOM      6  C   UNL     1       4.461  -2.367  26.094  0.00  0.00    +0.104 C 
ATOM      7  C   UNL     1       2.880  -2.876  26.255  0.00  0.00    +0.019 C 
ATOM      8  C   UNL     1       2.286  -4.333  26.135  0.00  0.00    +0.002 C 
ATOM      9  C   UNL     1       2.277  -4.838  24.695  0.00  0.00    +0.002 C 
ATOM     10  C   UNL     1       3.669  -5.347  24.519  0.00  0.00    +0.022 C 
ATOM     11  C   UNL     1       4.375  -4.961  23.284  0.00  0.00    +0.122 C 
ATOM     12  N   UNL     1       5.802  -5.239  23.436  0.00  0.00    -0.346 N 
ATOM     13  C   UNL     1       6.634  -5.187  24.576  0.00  0.00    +0.049 A 
ATOM     14  C   UNL     1       6.454  -5.300  25.975  0.00  0.00    +0.026 A 
ATOM     15  C   UNL     1       7.512  -4.976  26.841  0.00  0.00    +0.002 A 
ATOM     16  C   UNL     1       8.766  -4.660  26.350  0.00  0.00    +0.001 A 
ATOM     17  C   UNL     1       8.958  -4.540  24.975  0.00  0.00    +0.010 A 
ATOM     18  C   UNL     1       7.870  -4.741  24.101  0.00  0.00    +0.003 A 
ATOM     19  C   UNL     1       7.523  -4.216  22.852  0.00  0.00    -0.020 A 
ATOM     20  C   UNL     1       6.555  -5.017  22.304  0.00  0.00    +0.090 A 
ATOM     21  C   UNL     1       7.947  -2.969  22.278  0.00  0.00    +0.069 C 
ENDROOT
BRANCH   1  23
ATOM     22  C   UNL     1       9.161   0.512  22.603  0.00  0.00    +0.217 C 
ATOM     23  N   UNL     1       8.890  -0.863  22.823  0.00  0.00    -0.303 N 
ATOM     24  H   UNL     1       9.566  -1.395  22.285  0.00  0.00    +0.149 HD
ATOM     25  O   UNL     1      10.152   0.774  21.929  0.00  0.00    -0.275 OA
BRANCH  22  26
ATOM     26  C   UNL     1       8.310   1.770  23.169  0.00  0.00    +0.084 C 
BRANCH  26  27
ATOM     27  C   UNL     1       9.043   2.516  24.343  0.00  0.00    +0.110 C 
BRANCH  27  28
ATOM     28  C   UNL     1       9.842   3.736  23.835  0.00  0.00    +0.236 C 
ATOM     29  N   UNL     1      10.976   3.427  23.124  0.00  0.00    -0.197 N 
ATOM     30  H   UNL     1      11.388   2.541  22.988  0.00  0.00    +0.182 HD
ATOM     31  O   UNL     1       9.504   4.893  24.044  0.00  0.00    -0.274 OA
BRANCH  29  32
ATOM     32  O   UNL     1      11.707   4.560  22.660  0.00  0.00    -0.295 OA
ATOM     33  H   UNL     1      11.058   5.059  22.122  0.00  0.00    +0.241 HD
ENDBRANCH  29  32
ENDBRANCH  27  28
ENDBRANCH  26  27
BRANCH  26  34
ATOM     34  C   UNL     1       7.706   2.851  22.182  0.00  0.00    +0.016 C 
BRANCH  34  35
ATOM     35  C   UNL     1       6.249   3.421  22.297  0.00  0.00    -0.016 C 
ATOM     36  C   UNL     1       6.283   4.917  22.680  0.00  0.00    +0.007 C 
ATOM     37  C   UNL     1       5.399   2.699  23.343  0.00  0.00    +0.007 C 
ENDBRANCH  34  35
ENDBRANCH  26  34
ENDBRANCH  22  26
ENDBRANCH   1  23
TORSDOF 7
ENDMDL
MODEL 8
REMARK VINA RESULT:      -7.4      2.821      6.745
REMARK  Name = 
REMARK  9 active torsions:
REMARK  status: ('A' for Active; 'I' for Inactive)
REMARK    1  A    between atoms: C_2  and  C_3
REMARK    2  A    between atoms: C_2  and  C_7
REMARK    3  A    between atoms: C_2  and  C_12
REMARK    4  A    between atoms: C_3  and  C_4
REMARK    5  A    between atoms: C_4  and  C_5
REMARK    6  A    between atoms: C_4  and  C_6
REMARK    7  A    between atoms: C_7  and  C_8
REMARK    8  A    between atoms: N_10  and  O_11
REMARK    9  A    between atoms: N_14  and  C_15
REMARK                            x       y       z     vdW  Elec       q    Type
REMARK                         _______ _______ _______ _____ _____    ______ ____
ROOT
ATOM      1  C   UNL     1       8.079  -0.702  24.370  0.00  0.00    +0.163 C 
ATOM      2  C   UNL     1       7.157  -1.527  25.716  0.00  0.00    +0.234 C 
ATOM      3  O   UNL     1       7.770  -1.836  26.749  0.00  0.00    -0.274 OA
ATOM      4  N   UNL     1       5.710  -1.810  25.639  0.00  0.00    -0.314 N 
ATOM      5  H   UNL     1       5.205  -0.983  25.346  0.00  0.00    +0.149 HD
ATOM      6  C   UNL     1       4.868  -2.621  26.725  0.00  0.00    +0.104 C 
ATOM      7  C   UNL     1       3.289  -3.142  26.586  0.00  0.00    +0.019 C 
ATOM      8  C   UNL     1       2.722  -4.411  25.838  0.00  0.00    +0.002 C 
ATOM      9  C   UNL     1       2.782  -4.263  24.321  0.00  0.00    +0.002 C 
ATOM     10  C   UNL     1       4.187  -4.657  24.009  0.00  0.00    +0.022 C 
ATOM     11  C   UNL     1       4.939  -3.790  23.083  0.00  0.00    +0.122 C 
ATOM     12  N   UNL     1       6.362  -4.113  23.168  0.00  0.00    -0.346 N 
ATOM     13  C   UNL     1       7.144  -4.549  24.260  0.00  0.00    +0.049 A 
ATOM     14  C   UNL     1       6.907  -5.240  25.472  0.00  0.00    +0.026 A 
ATOM     15  C   UNL     1       7.923  -5.316  26.441  0.00  0.00    +0.002 A 
ATOM     16  C   UNL     1       9.192  -4.828  26.184  0.00  0.00    +0.001 A 
ATOM     17  C   UNL     1       9.440  -4.142  24.997  0.00  0.00    +0.010 A 
ATOM     18  C   UNL     1       8.392  -3.951  24.072  0.00  0.00    +0.003 A 
ATOM     19  C   UNL     1       8.091  -2.948  23.145  0.00  0.00    -0.020 A 
ATOM     20  C   UNL     1       7.159  -3.439  22.269  0.00  0.00    +0.090 A 
ATOM     21  C   UNL     1       8.521  -1.577  23.169  0.00  0.00    +0.069 C 
ENDROOT
BRANCH   1  23
ATOM     22  C   UNL     1       9.732   1.476  24.468  0.00  0.00    +0.217 C 
ATOM     23  N   UNL     1       9.409   0.101  24.591  0.00  0.00    -0.303 N 
ATOM     24  H   UNL     1      10.217  -0.430  24.279  0.00  0.00    +0.149 HD
ATOM     25  O   UNL     1      10.880   1.741  24.125  0.00  0.00    -0.275 OA
BRANCH  22  26
ATOM     26  C   UNL     1       8.749   2.732  24.757  0.00  0.00    +0.084 C 
BRANCH  26  27
ATOM     27  C   UNL     1       8.204   3.389  23.437  0.00  0.00    +0.110 C 
BRANCH  27  28
ATOM     28  C   UNL     1       7.917   2.333  22.348  0.00  0.00    +0.236 C 
ATOM     29  N   UNL     1       8.974   2.062  21.514  0.00  0.00    -0.197 N 
ATOM     30  H   UNL     1       9.845   2.523  21.463  0.00  0.00    +0.182 HD
ATOM     31  O   UNL     1       6.835   1.774  22.224  0.00  0.00    -0.274 OA
BRANCH  29  32
ATOM     32  O   UNL     1       8.699   1.086  20.512  0.00  0.00    -0.295 OA
ATOM     33  H   UNL     1       9.536   1.015  20.010  0.00  0.00    +0.241 HD
ENDBRANCH  29  32
ENDBRANCH  27  28
ENDBRANCH  26  27
BRANCH  26  34
ATOM     34  C   UNL     1       7.554   2.604  25.789  0.00  0.00    +0.016 C 
BRANCH  34  35
ATOM     35  C   UNL     1       6.070   2.996  25.460  0.00  0.00    -0.016 C 
ATOM     36  C   UNL     1       5.479   3.868  26.589  0.00  0.00    +0.007 C 
ATOM     37  C   UNL     1       5.151   1.786  25.286  0.00  0.00    +0.007 C 
ENDBRANCH  34  35
ENDBRANCH  26  34
ENDBRANCH  22  26
ENDBRANCH   1  23
TORSDOF 7
ENDMDL
MODEL 9
REMARK VINA RESULT:      -7.3      2.589      7.235
REMARK  Name = 
REMARK  9 active torsions:
REMARK  status: ('A' for Active; 'I' for Inactive)
REMARK    1  A    between atoms: C_2  and  C_3
REMARK    2  A    between atoms: C_2  and  C_7
REMARK    3  A    between atoms: C_2  and  C_12
REMARK    4  A    between atoms: C_3  and  C_4
REMARK    5  A    between atoms: C_4  and  C_5
REMARK    6  A    between atoms: C_4  and  C_6
REMARK    7  A    between atoms: C_7  and  C_8
REMARK    8  A    between atoms: N_10  and  O_11
REMARK    9  A    between atoms: N_14  and  C_15
REMARK                            x       y       z     vdW  Elec       q    Type
REMARK                         _______ _______ _______ _____ _____    ______ ____
ROOT
ATOM      1  C   UNL     1       7.714  -1.232  23.434  0.00  0.00    +0.163 C 
ATOM      2  C   UNL     1       6.773  -1.688  24.934  0.00  0.00    +0.234 C 
ATOM      3  O   UNL     1       7.366  -1.697  26.023  0.00  0.00    -0.274 OA
ATOM      4  N   UNL     1       5.333  -2.013  24.907  0.00  0.00    -0.314 N 
ATOM      5  H   UNL     1       4.822  -1.306  24.394  0.00  0.00    +0.149 HD
ATOM      6  C   UNL     1       4.478  -2.523  26.154  0.00  0.00    +0.104 C 
ATOM      7  C   UNL     1       2.912  -3.097  26.129  0.00  0.00    +0.019 C 
ATOM      8  C   UNL     1       2.383  -4.531  25.737  0.00  0.00    +0.002 C 
ATOM      9  C   UNL     1       2.478  -4.792  24.236  0.00  0.00    +0.002 C 
ATOM     10  C   UNL     1       3.897  -5.225  24.069  0.00  0.00    +0.022 C 
ATOM     11  C   UNL     1       4.657  -4.620  22.959  0.00  0.00    +0.122 C 
ATOM     12  N   UNL     1       6.083  -4.877  23.155  0.00  0.00    -0.346 N 
ATOM     13  C   UNL     1       6.845  -4.989  24.338  0.00  0.00    +0.049 A 
ATOM     14  C   UNL     1       6.589  -5.336  25.686  0.00  0.00    +0.026 A 
ATOM     15  C   UNL     1       7.581  -5.128  26.659  0.00  0.00    +0.002 A 
ATOM     16  C   UNL     1       8.848  -4.698  26.306  0.00  0.00    +0.001 A 
ATOM     17  C   UNL     1       9.114  -4.349  24.984  0.00  0.00    +0.010 A 
ATOM     18  C   UNL     1       8.087  -4.435  24.022  0.00  0.00    +0.003 A 
ATOM     19  C   UNL     1       7.792  -3.722  22.855  0.00  0.00    -0.020 A 
ATOM     20  C   UNL     1       6.890  -4.450  22.124  0.00  0.00    +0.090 A 
ATOM     21  C   UNL     1       8.200  -2.385  22.519  0.00  0.00    +0.069 C 
ENDROOT
BRANCH   1  23
ATOM     22  C   UNL     1       9.267   1.016  23.282  0.00  0.00    +0.217 C 
ATOM     23  N   UNL     1       9.026  -0.371  23.458  0.00  0.00    -0.303 N 
ATOM     24  H   UNL     1       9.804  -0.870  23.038  0.00  0.00    +0.149 HD
ATOM     25  O   UNL     1      10.342   1.325  22.777  0.00  0.00    -0.275 OA
BRANCH  22  26
ATOM     26  C   UNL     1       8.280   2.232  23.699  0.00  0.00    +0.084 C 
BRANCH  26  27
ATOM     27  C   UNL     1       8.295   2.519  25.245  0.00  0.00    +0.110 C 
BRANCH  27  28
ATOM     28  C   UNL     1       7.173   1.754  25.979  0.00  0.00    +0.236 C 
ATOM     29  N   UNL     1       7.557   1.157  27.155  0.00  0.00    -0.197 N 
ATOM     30  H   UNL     1       8.466   1.073  27.529  0.00  0.00    +0.182 HD
ATOM     31  O   UNL     1       6.027   1.676  25.557  0.00  0.00    -0.274 OA
BRANCH  29  32
ATOM     32  O   UNL     1       6.513   0.453  27.826  0.00  0.00    -0.295 OA
ATOM     33  H   UNL     1       5.783   0.430  27.174  0.00  0.00    +0.241 HD
ENDBRANCH  29  32
ENDBRANCH  27  28
ENDBRANCH  26  27
BRANCH  26  34
ATOM     34  C   UNL     1       8.325   3.614  22.927  0.00  0.00    +0.016 C 
BRANCH  34  35
ATOM     35  C   UNL     1       7.097   4.231  22.170  0.00  0.00    -0.016 C 
ATOM     36  C   UNL     1       7.245   5.765  22.060  0.00  0.00    +0.007 C 
ATOM     37  C   UNL     1       5.760   3.948  22.856  0.00  0.00    +0.007 C 
ENDBRANCH  34  35
ENDBRANCH  26  34
ENDBRANCH  22  26
ENDBRANCH   1  23
TORSDOF 7
ENDMDL
