MODEL 1
REMARK VINA RESULT:      -7.5      0.000      0.000
REMARK  Name = 
REMARK  5 active torsions:
REMARK  status: ('A' for Active; 'I' for Inactive)
REMARK    1  A    between atoms: C_1  and  C_2
REMARK    2  A    between atoms: C_4  and  C_17
REMARK    3  A    between atoms: N_8  and  C_9
REMARK    4  A    between atoms: C_9  and  C_10
REMARK    5  A    between atoms: C_10  and  N_11
REMARK                            x       y       z     vdW  Elec       q    Type
REMARK                         _______ _______ _______ _____ _____    ______ ____
ROOT
ATOM      1  C   UNL     1       8.998   0.007  20.657  0.00  0.00    +0.047 C 
ATOM      2  C   UNL     1       9.677   0.460  21.918  0.00  0.00    -0.007 A 
ATOM      3  C   UNL     1      10.067  -0.436  22.910  0.00  0.00    +0.144 A 
ATOM      4  N   UNL     1       9.772  -1.796  22.745  0.00  0.00    -0.326 N 
ATOM      5  H   UNL     1      10.203  -2.184  21.909  0.00  0.00    +0.148 HD
ATOM      6  N   UNL     1      10.640   0.029  24.044  0.00  0.00    -0.134 NA
ATOM      7  N   UNL     1      10.843   1.384  24.250  0.00  0.00    -0.147 NA
ATOM      8  C   UNL     1      10.450   2.277  23.317  0.00  0.00    +0.094 A 
ATOM      9  C   UNL     1       9.881   1.829  22.135  0.00  0.00    +0.037 A 
ENDROOT
BRANCH   8  10
ATOM     10  C   UNL     1      10.628   3.712  23.606  0.00  0.00    +0.002 A 
ATOM     11  C   UNL     1       9.587   4.492  24.135  0.00  0.00    +0.010 A 
ATOM     12  C   UNL     1       9.791   5.831  24.487  0.00  0.00    +0.001 A 
ATOM     13  C   UNL     1      11.039   6.423  24.304  0.00  0.00    +0.000 A 
ATOM     14  C   UNL     1      12.077   5.687  23.745  0.00  0.00    +0.001 A 
ATOM     15  C   UNL     1      11.866   4.351  23.391  0.00  0.00    +0.010 A 
ENDBRANCH   8  10
BRANCH   4  16
ATOM     16  C   UNL     1       9.975  -2.639  23.914  0.00  0.00    +0.118 C 
BRANCH  16  17
ATOM     17  C   UNL     1       8.639  -3.322  24.290  0.00  0.00    +0.103 C 
BRANCH  17  18
ATOM     18  N   UNL     1       8.637  -4.803  24.199  0.00  0.00    -0.297 NA
ATOM     19  C   UNL     1       7.259  -5.304  23.964  0.00  0.00    +0.112 C 
ATOM     20  C   UNL     1       6.330  -5.176  25.187  0.00  0.00    +0.175 C 
ATOM     21  O   UNL     1       6.887  -5.819  26.341  0.00  0.00    -0.377 OA
ATOM     22  C   UNL     1       8.194  -5.313  26.637  0.00  0.00    +0.175 C 
ATOM     23  C   UNL     1       9.136  -5.458  25.429  0.00  0.00    +0.112 C 
ENDBRANCH  17  18
ENDBRANCH  16  17
ENDBRANCH   4  16
TORSDOF 4
ENDMDL
MODEL 2
REMARK VINA RESULT:      -7.2      1.162      1.543
REMARK  Name = 
REMARK  5 active torsions:
REMARK  status: ('A' for Active; 'I' for Inactive)
REMARK    1  A    between atoms: C_1  and  C_2
REMARK    2  A    between atoms: C_4  and  C_17
REMARK    3  A    between atoms: N_8  and  C_9
REMARK    4  A    between atoms: C_9  and  C_10
REMARK    5  A    between atoms: C_10  and  N_11
REMARK                            x       y       z     vdW  Elec       q    Type
REMARK                         _______ _______ _______ _____ _____    ______ ____
ROOT
ATOM      1  C   UNL     1       9.000  -0.196  20.737  0.00  0.00    +0.047 C 
ATOM      2  C   UNL     1       9.658   0.292  21.995  0.00  0.00    -0.007 A 
ATOM      3  C   UNL     1      10.006  -0.571  23.030  0.00  0.00    +0.144 A 
ATOM      4  N   UNL     1       9.687  -1.931  22.912  0.00  0.00    -0.326 N 
ATOM      5  H   UNL     1      10.130  -2.359  22.102  0.00  0.00    +0.148 HD
ATOM      6  N   UNL     1      10.562  -0.074  24.159  0.00  0.00    -0.134 NA
ATOM      7  N   UNL     1      10.789   1.284  24.317  0.00  0.00    -0.147 NA
ATOM      8  C   UNL     1      10.436   2.147  23.341  0.00  0.00    +0.094 A 
ATOM      9  C   UNL     1       9.886   1.665  22.164  0.00  0.00    +0.037 A 
ENDROOT
BRANCH   8  10
ATOM     10  C   UNL     1      10.637   3.588  23.578  0.00  0.00    +0.002 A 
ATOM     11  C   UNL     1       9.607   4.405  24.073  0.00  0.00    +0.010 A 
ATOM     12  C   UNL     1       9.832   5.752  24.377  0.00  0.00    +0.001 A 
ATOM     13  C   UNL     1      11.090   6.317  24.178  0.00  0.00    +0.000 A 
ATOM     14  C   UNL     1      12.118   5.543  23.652  0.00  0.00    +0.001 A 
ATOM     15  C   UNL     1      11.887   4.199  23.346  0.00  0.00    +0.010 A 
ENDBRANCH   8  10
BRANCH   4  16
ATOM     16  C   UNL     1       9.846  -2.731  24.117  0.00  0.00    +0.118 C 
BRANCH  16  17
ATOM     17  C   UNL     1       8.764  -3.836  24.143  0.00  0.00    +0.103 C 
BRANCH  17  18
ATOM     18  N   UNL     1       7.480  -3.481  23.491  0.00  0.00    -0.297 NA
ATOM     19  C   UNL     1       6.342  -3.753  24.406  0.00  0.00    +0.112 C 
ATOM     20  C   UNL     1       6.054  -5.252  24.615  0.00  0.00    +0.175 C 
ATOM     21  O   UNL     1       5.841  -5.926  23.368  0.00  0.00    -0.377 OA
ATOM     22  C   UNL     1       6.950  -5.739  22.481  0.00  0.00    +0.175 C 
ATOM     23  C   UNL     1       7.232  -4.244  22.247  0.00  0.00    +0.112 C 
ENDBRANCH  17  18
ENDBRANCH  16  17
ENDBRANCH   4  16
TORSDOF 4
ENDMDL
MODEL 3
REMARK VINA RESULT:      -7.0      2.562      4.736
REMARK  Name = 
REMARK  5 active torsions:
REMARK  status: ('A' for Active; 'I' for Inactive)
REMARK    1  A    between atoms: C_1  and  C_2
REMARK    2  A    between atoms: C_4  and  C_17
REMARK    3  A    between atoms: N_8  and  C_9
REMARK    4  A    between atoms: C_9  and  C_10
REMARK    5  A    between atoms: C_10  and  N_11
REMARK                            x       y       z     vdW  Elec       q    Type
REMARK                         _______ _______ _______ _____ _____    ______ ____
ROOT
ATOM      1  C   UNL     1       9.454  -4.753  25.286  0.00  0.00    +0.047 C 
ATOM      2  C   UNL     1       8.946  -3.790  24.253  0.00  0.00    -0.007 A 
ATOM      3  C   UNL     1       8.013  -4.165  23.288  0.00  0.00    +0.144 A 
ATOM      4  N   UNL     1       7.575  -5.495  23.254  0.00  0.00    -0.326 N 
ATOM      5  H   UNL     1       7.125  -5.773  24.123  0.00  0.00    +0.148 HD
ATOM      6  N   UNL     1       7.618  -3.268  22.356  0.00  0.00    -0.134 NA
ATOM      7  N   UNL     1       8.124  -1.979  22.329  0.00  0.00    -0.147 NA
ATOM      8  C   UNL     1       9.049  -1.597  23.235  0.00  0.00    +0.094 A 
ATOM      9  C   UNL     1       9.457  -2.486  24.216  0.00  0.00    +0.037 A 
ENDROOT
BRANCH   8  10
ATOM     10  C   UNL     1       9.608  -0.236  23.130  0.00  0.00    +0.002 A 
ATOM     11  C   UNL     1       9.517   0.509  21.943  0.00  0.00    +0.010 A 
ATOM     12  C   UNL     1       9.973   1.831  21.879  0.00  0.00    +0.001 A 
ATOM     13  C   UNL     1      10.544   2.432  22.999  0.00  0.00    +0.000 A 
ATOM     14  C   UNL     1      10.683   1.705  24.176  0.00  0.00    +0.001 A 
ATOM     15  C   UNL     1      10.230   0.384  24.233  0.00  0.00    +0.010 A 
ENDBRANCH   8  10
BRANCH   4  16
ATOM     16  C   UNL     1       6.804  -5.884  22.083  0.00  0.00    +0.118 C 
BRANCH  16  17
ATOM     17  C   UNL     1       5.339  -6.151  22.501  0.00  0.00    +0.103 C 
BRANCH  17  18
ATOM     18  N   UNL     1       4.964  -5.655  23.848  0.00  0.00    -0.297 NA
ATOM     19  C   UNL     1       4.494  -6.778  24.700  0.00  0.00    +0.112 C 
ATOM     20  C   UNL     1       3.115  -7.332  24.298  0.00  0.00    +0.175 C 
ATOM     21  O   UNL     1       2.120  -6.300  24.270  0.00  0.00    -0.377 OA
ATOM     22  C   UNL     1       2.510  -5.227  23.405  0.00  0.00    +0.175 C 
ATOM     23  C   UNL     1       3.877  -4.650  23.812  0.00  0.00    +0.112 C 
ENDBRANCH  17  18
ENDBRANCH  16  17
ENDBRANCH   4  16
TORSDOF 4
ENDMDL
MODEL 4
REMARK VINA RESULT:      -6.8      1.650      2.002
REMARK  Name = 
REMARK  5 active torsions:
REMARK  status: ('A' for Active; 'I' for Inactive)
REMARK    1  A    between atoms: C_1  and  C_2
REMARK    2  A    between atoms: C_4  and  C_17
REMARK    3  A    between atoms: N_8  and  C_9
REMARK    4  A    between atoms: C_9  and  C_10
REMARK    5  A    between atoms: C_10  and  N_11
REMARK                            x       y       z     vdW  Elec       q    Type
REMARK                         _______ _______ _______ _____ _____    ______ ____
ROOT
ATOM      1  C   UNL     1       5.995   0.756  24.536  0.00  0.00    +0.047 C 
ATOM      2  C   UNL     1       7.361   0.892  23.927  0.00  0.00    -0.007 A 
ATOM      3  C   UNL     1       8.010  -0.180  23.319  0.00  0.00    +0.144 A 
ATOM      4  N   UNL     1       7.387  -1.435  23.321  0.00  0.00    -0.326 N 
ATOM      5  H   UNL     1       6.487  -1.417  22.846  0.00  0.00    +0.148 HD
ATOM      6  N   UNL     1       9.256  -0.012  22.820  0.00  0.00    -0.134 NA
ATOM      7  N   UNL     1       9.913   1.205  22.904  0.00  0.00    -0.147 NA
ATOM      8  C   UNL     1       9.318   2.254  23.512  0.00  0.00    +0.094 A 
ATOM      9  C   UNL     1       8.033   2.119  24.014  0.00  0.00    +0.037 A 
ENDROOT
BRANCH   8  10
ATOM     10  C   UNL     1      10.079   3.511  23.637  0.00  0.00    +0.002 A 
ATOM     11  C   UNL     1      11.447   3.579  23.327  0.00  0.00    +0.010 A 
ATOM     12  C   UNL     1      12.140   4.795  23.365  0.00  0.00    +0.001 A 
ATOM     13  C   UNL     1      11.481   5.968  23.728  0.00  0.00    +0.000 A 
ATOM     14  C   UNL     1      10.136   5.924  24.078  0.00  0.00    +0.001 A 
ATOM     15  C   UNL     1       9.450   4.707  24.042  0.00  0.00    +0.010 A 
ENDBRANCH   8  10
BRANCH   4  16
ATOM     16  C   UNL     1       8.212  -2.558  22.900  0.00  0.00    +0.118 C 
BRANCH  16  17
ATOM     17  C   UNL     1       8.830  -3.233  24.147  0.00  0.00    +0.103 C 
BRANCH  17  18
ATOM     18  N   UNL     1       8.882  -4.715  24.104  0.00  0.00    -0.297 NA
ATOM     19  C   UNL     1       7.531  -5.271  23.834  0.00  0.00    +0.112 C 
ATOM     20  C   UNL     1       6.553  -5.138  25.017  0.00  0.00    +0.175 C 
ATOM     21  O   UNL     1       7.087  -5.725  26.211  0.00  0.00    -0.377 OA
ATOM     22  C   UNL     1       8.364  -5.164  26.539  0.00  0.00    +0.175 C 
ATOM     23  C   UNL     1       9.356  -5.314  25.372  0.00  0.00    +0.112 C 
ENDBRANCH  17  18
ENDBRANCH  16  17
ENDBRANCH   4  16
TORSDOF 4
ENDMDL
MODEL 5
REMARK VINA RESULT:      -6.8      2.146      2.700
REMARK  Name = 
REMARK  5 active torsions:
REMARK  status: ('A' for Active; 'I' for Inactive)
REMARK    1  A    between atoms: C_1  and  C_2
REMARK    2  A    between atoms: C_4  and  C_17
REMARK    3  A    between atoms: N_8  and  C_9
REMARK    4  A    between atoms: C_9  and  C_10
REMARK    5  A    between atoms: C_10  and  N_11
REMARK                            x       y       z     vdW  Elec       q    Type
REMARK                         _______ _______ _______ _____ _____    ______ ____
ROOT
ATOM      1  C   UNL     1       7.167   0.147  26.256  0.00  0.00    +0.047 C 
ATOM      2  C   UNL     1       8.110   0.442  25.125  0.00  0.00    -0.007 A 
ATOM      3  C   UNL     1       8.560  -0.552  24.260  0.00  0.00    +0.144 A 
ATOM      4  N   UNL     1       8.156  -1.875  24.483  0.00  0.00    -0.326 N 
ATOM      5  H   UNL     1       7.145  -1.980  24.440  0.00  0.00    +0.148 HD
ATOM      6  N   UNL     1       9.441  -0.239  23.281  0.00  0.00    -0.134 NA
ATOM      7  N   UNL     1       9.917   1.052  23.121  0.00  0.00    -0.147 NA
ATOM      8  C   UNL     1       9.518   2.029  23.962  0.00  0.00    +0.094 A 
ATOM      9  C   UNL     1       8.600   1.744  24.960  0.00  0.00    +0.037 A 
ENDROOT
BRANCH   8  10
ATOM     10  C   UNL     1      10.100   3.374  23.794  0.00  0.00    +0.002 A 
ATOM     11  C   UNL     1       9.363   4.537  24.073  0.00  0.00    +0.010 A 
ATOM     12  C   UNL     1       9.950   5.805  23.994  0.00  0.00    +0.001 A 
ATOM     13  C   UNL     1      11.286   5.938  23.619  0.00  0.00    +0.000 A 
ATOM     14  C   UNL     1      12.028   4.808  23.298  0.00  0.00    +0.001 A 
ATOM     15  C   UNL     1      11.436   3.544  23.375  0.00  0.00    +0.010 A 
ENDBRANCH   8  10
BRANCH   4  16
ATOM     16  C   UNL     1       8.851  -2.894  23.709  0.00  0.00    +0.118 C 
BRANCH  16  17
ATOM     17  C   UNL     1       7.833  -3.635  22.810  0.00  0.00    +0.103 C 
BRANCH  17  18
ATOM     18  N   UNL     1       7.450  -4.991  23.272  0.00  0.00    -0.297 NA
ATOM     19  C   UNL     1       7.343  -5.919  22.117  0.00  0.00    +0.112 C 
ATOM     20  C   UNL     1       6.120  -5.659  21.217  0.00  0.00    +0.175 C 
ATOM     21  O   UNL     1       4.899  -5.682  21.969  0.00  0.00    -0.377 OA
ATOM     22  C   UNL     1       4.941  -4.750  23.055  0.00  0.00    +0.175 C 
ATOM     23  C   UNL     1       6.146  -5.016  23.973  0.00  0.00    +0.112 C 
ENDBRANCH  17  18
ENDBRANCH  16  17
ENDBRANCH   4  16
TORSDOF 4
ENDMDL
MODEL 6
REMARK VINA RESULT:      -6.7      2.946      9.206
REMARK  Name = 
REMARK  5 active torsions:
REMARK  status: ('A' for Active; 'I' for Inactive)
REMARK    1  A    between atoms: C_1  and  C_2
REMARK    2  A    between atoms: C_4  and  C_17
REMARK    3  A    between atoms: N_8  and  C_9
REMARK    4  A    between atoms: C_9  and  C_10
REMARK    5  A    between atoms: C_10  and  N_11
REMARK                            x       y       z     vdW  Elec       q    Type
REMARK                         _______ _______ _______ _____ _____    ______ ____
ROOT
ATOM      1  C   UNL     1       9.202  -4.616  26.383  0.00  0.00    +0.047 C 
ATOM      2  C   UNL     1       8.303  -4.536  25.183  0.00  0.00    -0.007 A 
ATOM      3  C   UNL     1       8.608  -3.738  24.082  0.00  0.00    +0.144 A 
ATOM      4  N   UNL     1       9.767  -2.951  24.120  0.00  0.00    -0.326 N 
ATOM      5  H   UNL     1      10.608  -3.512  24.233  0.00  0.00    +0.148 HD
ATOM      6  N   UNL     1       7.744  -3.672  23.043  0.00  0.00    -0.134 NA
ATOM      7  N   UNL     1       6.551  -4.375  23.047  0.00  0.00    -0.147 NA
ATOM      8  C   UNL     1       6.216  -5.134  24.113  0.00  0.00    +0.094 A 
ATOM      9  C   UNL     1       7.091  -5.240  25.182  0.00  0.00    +0.037 A 
ENDROOT
BRANCH   8  10
ATOM     10  C   UNL     1       4.908  -5.814  24.102  0.00  0.00    +0.002 A 
ATOM     11  C   UNL     1       3.943  -5.543  23.117  0.00  0.00    +0.010 A 
ATOM     12  C   UNL     1       2.740  -6.255  23.065  0.00  0.00    +0.001 A 
ATOM     13  C   UNL     1       2.468  -7.246  24.006  0.00  0.00    +0.000 A 
ATOM     14  C   UNL     1       3.387  -7.509  25.015  0.00  0.00    +0.001 A 
ATOM     15  C   UNL     1       4.585  -6.792  25.066  0.00  0.00    +0.010 A 
ENDBRANCH   8  10
BRANCH   4  16
ATOM     16  C   UNL     1       9.900  -1.961  23.062  0.00  0.00    +0.118 C 
BRANCH  16  17
ATOM     17  C   UNL     1       9.594  -0.556  23.634  0.00  0.00    +0.103 C 
BRANCH  17  18
ATOM     18  N   UNL     1      10.431   0.543  23.095  0.00  0.00    -0.297 NA
ATOM     19  C   UNL     1      10.567   1.629  24.100  0.00  0.00    +0.112 C 
ATOM     20  C   UNL     1       9.278   2.444  24.317  0.00  0.00    +0.175 C 
ATOM     21  O   UNL     1       8.784   2.987  23.085  0.00  0.00    -0.377 OA
ATOM     22  C   UNL     1       8.579   1.957  22.111  0.00  0.00    +0.175 C 
ATOM     23  C   UNL     1       9.867   1.152  21.869  0.00  0.00    +0.112 C 
ENDBRANCH  17  18
ENDBRANCH  16  17
ENDBRANCH   4  16
TORSDOF 4
ENDMDL
MODEL 7
REMARK VINA RESULT:      -6.7      2.276      2.671
REMARK  Name = 
REMARK  5 active torsions:
REMARK  status: ('A' for Active; 'I' for Inactive)
REMARK    1  A    between atoms: C_1  and  C_2
REMARK    2  A    between atoms: C_4  and  C_17
REMARK    3  A    between atoms: N_8  and  C_9
REMARK    4  A    between atoms: C_9  and  C_10
REMARK    5  A    between atoms: C_10  and  N_11
REMARK                            x       y       z     vdW  Elec       q    Type
REMARK                         _______ _______ _______ _____ _____    ______ ____
ROOT
ATOM      1  C   UNL     1       5.533   2.711  22.566  0.00  0.00    +0.047 C 
ATOM      2  C   UNL     1       6.899   2.391  23.101  0.00  0.00    -0.007 A 
ATOM      3  C   UNL     1       7.208   1.143  23.637  0.00  0.00    +0.144 A 
ATOM      4  N   UNL     1       6.198   0.176  23.724  0.00  0.00    -0.326 N 
ATOM      5  H   UNL     1       5.814  -0.060  22.812  0.00  0.00    +0.148 HD
ATOM      6  N   UNL     1       8.444   0.919  24.141  0.00  0.00    -0.134 NA
ATOM      7  N   UNL     1       9.415   1.907  24.145  0.00  0.00    -0.147 NA
ATOM      8  C   UNL     1       9.134   3.134  23.656  0.00  0.00    +0.094 A 
ATOM      9  C   UNL     1       7.884   3.387  23.113  0.00  0.00    +0.037 A 
ENDROOT
BRANCH   8  10
ATOM     10  C   UNL     1      10.176   4.173  23.739  0.00  0.00    +0.002 A 
ATOM     11  C   UNL     1       9.921   5.431  24.310  0.00  0.00    +0.010 A 
ATOM     12  C   UNL     1      10.939   6.379  24.462  0.00  0.00    +0.001 A 
ATOM     13  C   UNL     1      12.234   6.094  24.033  0.00  0.00    +0.000 A 
ATOM     14  C   UNL     1      12.507   4.873  23.429  0.00  0.00    +0.001 A 
ATOM     15  C   UNL     1      11.486   3.931  23.275  0.00  0.00    +0.010 A 
ENDBRANCH   8  10
BRANCH   4  16
ATOM     16  C   UNL     1       6.511  -1.005  24.514  0.00  0.00    +0.118 C 
BRANCH  16  17
ATOM     17  C   UNL     1       6.289  -2.271  23.652  0.00  0.00    +0.103 C 
BRANCH  17  18
ATOM     18  N   UNL     1       7.424  -2.647  22.775  0.00  0.00    -0.297 NA
ATOM     19  C   UNL     1       7.227  -4.017  22.234  0.00  0.00    +0.112 C 
ATOM     20  C   UNL     1       7.401  -5.134  23.280  0.00  0.00    +0.175 C 
ATOM     21  O   UNL     1       8.676  -5.052  23.930  0.00  0.00    -0.377 OA
ATOM     22  C   UNL     1       8.875  -3.762  24.522  0.00  0.00    +0.175 C 
ATOM     23  C   UNL     1       8.726  -2.640  23.480  0.00  0.00    +0.112 C 
ENDBRANCH  17  18
ENDBRANCH  16  17
ENDBRANCH   4  16
TORSDOF 4
ENDMDL
MODEL 8
REMARK VINA RESULT:      -6.6      3.154      8.248
REMARK  Name = 
REMARK  5 active torsions:
REMARK  status: ('A' for Active; 'I' for Inactive)
REMARK    1  A    between atoms: C_1  and  C_2
REMARK    2  A    between atoms: C_4  and  C_17
REMARK    3  A    between atoms: N_8  and  C_9
REMARK    4  A    between atoms: C_9  and  C_10
REMARK    5  A    between atoms: C_10  and  N_11
REMARK                            x       y       z     vdW  Elec       q    Type
REMARK                         _______ _______ _______ _____ _____    ______ ____
ROOT
ATOM      1  C   UNL     1       8.354  -0.717  27.119  0.00  0.00    +0.047 C 
ATOM      2  C   UNL     1       8.646  -1.318  25.775  0.00  0.00    -0.007 A 
ATOM      3  C   UNL     1       9.596  -0.775  24.913  0.00  0.00    +0.144 A 
ATOM      4  N   UNL     1      10.263   0.396  25.296  0.00  0.00    -0.326 N 
ATOM      5  H   UNL     1      10.786   0.275  26.160  0.00  0.00    +0.148 HD
ATOM      6  N   UNL     1       9.793  -1.333  23.697  0.00  0.00    -0.134 NA
ATOM      7  N   UNL     1       9.064  -2.435  23.278  0.00  0.00    -0.147 NA
ATOM      8  C   UNL     1       8.118  -2.965  24.082  0.00  0.00    +0.094 A 
ATOM      9  C   UNL     1       7.909  -2.428  25.343  0.00  0.00    +0.037 A 
ENDROOT
BRANCH   8  10
ATOM     10  C   UNL     1       7.322  -4.096  23.571  0.00  0.00    +0.002 A 
ATOM     11  C   UNL     1       6.368  -4.748  24.369  0.00  0.00    +0.010 A 
ATOM     12  C   UNL     1       5.557  -5.762  23.848  0.00  0.00    +0.001 A 
ATOM     13  C   UNL     1       5.693  -6.157  22.519  0.00  0.00    +0.000 A 
ATOM     14  C   UNL     1       6.656  -5.557  21.716  0.00  0.00    +0.001 A 
ATOM     15  C   UNL     1       7.466  -4.547  22.242  0.00  0.00    +0.010 A 
ENDBRANCH   8  10
BRANCH   4  16
ATOM     16  C   UNL     1      11.051   1.050  24.261  0.00  0.00    +0.118 C 
BRANCH  16  17
ATOM     17  C   UNL     1      10.286   2.290  23.742  0.00  0.00    +0.103 C 
BRANCH  17  18
ATOM     18  N   UNL     1       8.956   2.517  24.358  0.00  0.00    -0.297 NA
ATOM     19  C   UNL     1       7.876   2.156  23.403  0.00  0.00    +0.112 C 
ATOM     20  C   UNL     1       7.725   3.141  22.229  0.00  0.00    +0.175 C 
ATOM     21  O   UNL     1       7.531   4.484  22.690  0.00  0.00    -0.377 OA
ATOM     22  C   UNL     1       8.591   4.891  23.564  0.00  0.00    +0.175 C 
ATOM     23  C   UNL     1       8.734   3.926  24.754  0.00  0.00    +0.112 C 
ENDBRANCH  17  18
ENDBRANCH  16  17
ENDBRANCH   4  16
TORSDOF 4
ENDMDL
MODEL 9
REMARK VINA RESULT:      -6.5      1.562      2.043
REMARK  Name = 
REMARK  5 active torsions:
REMARK  status: ('A' for Active; 'I' for Inactive)
REMARK    1  A    between atoms: C_1  and  C_2
REMARK    2  A    between atoms: C_4  and  C_17
REMARK    3  A    between atoms: N_8  and  C_9
REMARK    4  A    between atoms: C_9  and  C_10
REMARK    5  A    between atoms: C_10  and  N_11
REMARK                            x       y       z     vdW  Elec       q    Type
REMARK                         _______ _______ _______ _____ _____    ______ ____
ROOT
ATOM      1  C   UNL     1      10.229  -1.378  22.210  0.00  0.00    +0.047 C 
ATOM      2  C   UNL     1       9.567  -0.286  23.000  0.00  0.00    -0.007 A 
ATOM      3  C   UNL     1       8.339  -0.469  23.629  0.00  0.00    +0.144 A 
ATOM      4  N   UNL     1       7.680  -1.697  23.479  0.00  0.00    -0.326 N 
ATOM      5  H   UNL     1       8.232  -2.475  23.832  0.00  0.00    +0.148 HD
ATOM      6  N   UNL     1       7.768   0.560  24.296  0.00  0.00    -0.134 NA
ATOM      7  N   UNL     1       8.373   1.805  24.363  0.00  0.00    -0.147 NA
ATOM      8  C   UNL     1       9.551   2.018  23.739  0.00  0.00    +0.094 A 
ATOM      9  C   UNL     1      10.171   0.977  23.068  0.00  0.00    +0.037 A 
ENDROOT
BRANCH   8  10
ATOM     10  C   UNL     1      10.128   3.375  23.783  0.00  0.00    +0.002 A 
ATOM     11  C   UNL     1      11.453   3.627  23.393  0.00  0.00    +0.010 A 
ATOM     12  C   UNL     1      11.964   4.929  23.356  0.00  0.00    +0.001 A 
ATOM     13  C   UNL     1      11.163   6.008  23.722  0.00  0.00    +0.000 A 
ATOM     14  C   UNL     1       9.859   5.786  24.150  0.00  0.00    +0.001 A 
ATOM     15  C   UNL     1       9.355   4.483  24.190  0.00  0.00    +0.010 A 
ENDBRANCH   8  10
BRANCH   4  16
ATOM     16  C   UNL     1       6.301  -1.742  23.943  0.00  0.00    +0.118 C 
BRANCH  16  17
ATOM     17  C   UNL     1       6.157  -2.856  25.007  0.00  0.00    +0.103 C 
BRANCH  17  18
ATOM     18  N   UNL     1       7.225  -3.885  24.996  0.00  0.00    -0.297 NA
ATOM     19  C   UNL     1       6.688  -5.183  24.513  0.00  0.00    +0.112 C 
ATOM     20  C   UNL     1       5.746  -5.881  25.513  0.00  0.00    +0.175 C 
ATOM     21  O   UNL     1       6.375  -6.064  26.788  0.00  0.00    -0.377 OA
ATOM     22  C   UNL     1       6.850  -4.820  27.316  0.00  0.00    +0.175 C 
ATOM     23  C   UNL     1       7.810  -4.126  26.334  0.00  0.00    +0.112 C 
ENDBRANCH  17  18
ENDBRANCH  16  17
ENDBRANCH   4  16
TORSDOF 4
ENDMDL
