MODEL 1
REMARK VINA RESULT:      -5.5      0.000      0.000
REMARK  Name = 
REMARK  6 active torsions:
REMARK  status: ('A' for Active; 'I' for Inactive)
REMARK    1  A    between atoms: O_1  and  C_2
REMARK    2  A    between atoms: C_2  and  C_4
REMARK    3  A    between atoms: C_4  and  C_5
REMARK    4  A    between atoms: C_9  and  O_10
REMARK    5  A    between atoms: O_10  and  C_11
REMARK    6  A    between atoms: C_15  and  O_16
REMARK                            x       y       z     vdW  Elec       q    Type
REMARK                         _______ _______ _______ _____ _____    ______ ____
ROOT
ATOM      1  C   UNL     1       7.739  -3.163  25.060  0.00  0.00    -0.035 A 
ATOM      2  C   UNL     1       7.369  -2.209  26.021  0.00  0.00    +0.022 A 
ATOM      3  C   UNL     1       7.698  -0.850  25.871  0.00  0.00    +0.057 A 
ATOM      4  I   UNL     1       7.193   0.369  27.512  0.00  0.00    -0.040 I 
ATOM      5  C   UNL     1       8.386  -0.412  24.730  0.00  0.00    +0.155 A 
ATOM      6  C   UNL     1       8.734  -1.371  23.759  0.00  0.00    +0.057 A 
ATOM      7  I   UNL     1       9.818  -0.851  22.025  0.00  0.00    -0.040 I 
ATOM      8  C   UNL     1       8.420  -2.729  23.920  0.00  0.00    +0.022 A 
ENDROOT
BRANCH   1   9
ATOM      9  C   UNL     1       7.446  -4.632  25.282  0.00  0.00    +0.155 C 
BRANCH   9  10
ATOM     10  C   UNL     1       8.127  -5.244  26.489  0.00  0.00    +0.309 C 
ATOM     11  O   UNL     1       7.568  -5.675  27.485  0.00  0.00    -0.251 OA
BRANCH  10  12
ATOM     12  O   UNL     1       9.478  -5.267  26.361  0.00  0.00    -0.480 OA
ATOM     13  H   UNL     1       9.798  -5.363  25.441  0.00  0.00    +0.295 HD
ENDBRANCH  10  12
ENDBRANCH   9  10
ENDBRANCH   1   9
BRANCH   5  14
ATOM     14  O   UNL     1       9.003   0.813  24.619  0.00  0.00    -0.454 OA
BRANCH  14  15
ATOM     15  C   UNL     1       8.373   1.966  24.221  0.00  0.00    +0.131 A 
ATOM     16  C   UNL     1       7.055   2.107  23.790  0.00  0.00    +0.064 A 
ATOM     17  C   UNL     1       6.559   3.388  23.492  0.00  0.00    +0.059 A 
ATOM     18  I   UNL     1       4.531   3.564  22.985  0.00  0.00    -0.040 I 
ATOM     19  C   UNL     1       7.390   4.515  23.571  0.00  0.00    +0.143 A 
ATOM     20  C   UNL     1       8.717   4.354  23.957  0.00  0.00    +0.059 A 
ATOM     21  I   UNL     1      10.023   5.985  24.104  0.00  0.00    -0.040 I 
ATOM     22  C   UNL     1       9.205   3.089  24.280  0.00  0.00    +0.064 A 
BRANCH  19  23
ATOM     23  O   UNL     1       6.889   5.754  23.266  0.00  0.00    -0.505 OA
ATOM     24  H   UNL     1       6.241   5.994  23.954  0.00  0.00    +0.292 HD
ENDBRANCH  19  23
ENDBRANCH  14  15
ENDBRANCH   5  14
TORSDOF 6
ENDMDL
MODEL 2
REMARK VINA RESULT:      -5.5      3.359      7.566
REMARK  Name = 
REMARK  6 active torsions:
REMARK  status: ('A' for Active; 'I' for Inactive)
REMARK    1  A    between atoms: O_1  and  C_2
REMARK    2  A    between atoms: C_2  and  C_4
REMARK    3  A    between atoms: C_4  and  C_5
REMARK    4  A    between atoms: C_9  and  O_10
REMARK    5  A    between atoms: O_10  and  C_11
REMARK    6  A    between atoms: C_15  and  O_16
REMARK                            x       y       z     vdW  Elec       q    Type
REMARK                         _______ _______ _______ _____ _____    ______ ____
ROOT
ATOM      1  C   UNL     1      10.860   4.850  23.619  0.00  0.00    -0.035 A 
ATOM      2  C   UNL     1      10.940   3.452  23.514  0.00  0.00    +0.022 A 
ATOM      3  C   UNL     1       9.783   2.655  23.441  0.00  0.00    +0.057 A 
ATOM      4  I   UNL     1      10.136   0.579  23.461  0.00  0.00    -0.040 I 
ATOM      5  C   UNL     1       8.513   3.251  23.444  0.00  0.00    +0.155 A 
ATOM      6  C   UNL     1       8.442   4.656  23.527  0.00  0.00    +0.057 A 
ATOM      7  I   UNL     1       6.594   5.670  23.595  0.00  0.00    -0.040 I 
ATOM      8  C   UNL     1       9.597   5.447  23.617  0.00  0.00    +0.022 A 
ENDROOT
BRANCH   1   9
ATOM      9  C   UNL     1      12.115   5.681  23.778  0.00  0.00    +0.155 C 
BRANCH   9  10
ATOM     10  C   UNL     1      13.192   5.420  22.744  0.00  0.00    +0.309 C 
ATOM     11  O   UNL     1      13.062   5.521  21.535  0.00  0.00    -0.251 OA
BRANCH  10  12
ATOM     12  O   UNL     1      14.366   5.039  23.308  0.00  0.00    -0.480 OA
ATOM     13  H   UNL     1      15.098   5.679  23.198  0.00  0.00    +0.295 HD
ENDBRANCH  10  12
ENDBRANCH   9  10
ENDBRANCH   1   9
BRANCH   5  14
ATOM     14  O   UNL     1       7.338   2.572  23.668  0.00  0.00    -0.454 OA
BRANCH  14  15
ATOM     15  C   UNL     1       6.993   1.988  24.861  0.00  0.00    +0.131 A 
ATOM     16  C   UNL     1       7.081   2.547  26.135  0.00  0.00    +0.064 A 
ATOM     17  C   UNL     1       6.607   1.822  27.242  0.00  0.00    +0.059 A 
ATOM     18  I   UNL     1       6.630   2.763  29.117  0.00  0.00    -0.040 I 
ATOM     19  C   UNL     1       6.102   0.524  27.085  0.00  0.00    +0.143 A 
ATOM     20  C   UNL     1       6.065  -0.041  25.814  0.00  0.00    +0.059 A 
ATOM     21  I   UNL     1       5.321  -1.973  25.493  0.00  0.00    -0.040 I 
ATOM     22  C   UNL     1       6.507   0.686  24.710  0.00  0.00    +0.064 A 
BRANCH  19  23
ATOM     23  O   UNL     1       5.656  -0.171  28.180  0.00  0.00    -0.505 OA
ATOM     24  H   UNL     1       5.231  -0.989  27.864  0.00  0.00    +0.292 HD
ENDBRANCH  19  23
ENDBRANCH  14  15
ENDBRANCH   5  14
TORSDOF 6
ENDMDL
MODEL 3
REMARK VINA RESULT:      -5.5      3.211      7.374
REMARK  Name = 
REMARK  6 active torsions:
REMARK  status: ('A' for Active; 'I' for Inactive)
REMARK    1  A    between atoms: O_1  and  C_2
REMARK    2  A    between atoms: C_2  and  C_4
REMARK    3  A    between atoms: C_4  and  C_5
REMARK    4  A    between atoms: C_9  and  O_10
REMARK    5  A    between atoms: O_10  and  C_11
REMARK    6  A    between atoms: C_15  and  O_16
REMARK                            x       y       z     vdW  Elec       q    Type
REMARK                         _______ _______ _______ _____ _____    ______ ____
ROOT
ATOM      1  C   UNL     1      10.739   4.560  23.687  0.00  0.00    -0.035 A 
ATOM      2  C   UNL     1       9.406   4.967  23.522  0.00  0.00    +0.022 A 
ATOM      3  C   UNL     1       8.366   4.031  23.377  0.00  0.00    +0.057 A 
ATOM      4  I   UNL     1       6.475   4.866  22.974  0.00  0.00    -0.040 I 
ATOM      5  C   UNL     1       8.641   2.657  23.422  0.00  0.00    +0.155 A 
ATOM      6  C   UNL     1       9.978   2.256  23.610  0.00  0.00    +0.057 A 
ATOM      7  I   UNL     1      10.531   0.220  23.641  0.00  0.00    -0.040 I 
ATOM      8  C   UNL     1      11.016   3.191  23.737  0.00  0.00    +0.022 A 
ENDROOT
BRANCH   1   9
ATOM      9  C   UNL     1      11.852   5.584  23.759  0.00  0.00    +0.155 C 
BRANCH   9  10
ATOM     10  C   UNL     1      12.987   5.366  22.778  0.00  0.00    +0.309 C 
ATOM     11  O   UNL     1      12.904   5.429  21.563  0.00  0.00    -0.251 OA
BRANCH  10  12
ATOM     12  O   UNL     1      14.156   5.074  23.402  0.00  0.00    -0.480 OA
ATOM     13  H   UNL     1      14.819   4.628  22.837  0.00  0.00    +0.295 HD
ENDBRANCH  10  12
ENDBRANCH   9  10
ENDBRANCH   1   9
BRANCH   5  14
ATOM     14  O   UNL     1       7.768   1.677  23.008  0.00  0.00    -0.454 OA
BRANCH  14  15
ATOM     15  C   UNL     1       7.006   0.908  23.852  0.00  0.00    +0.131 A 
ATOM     16  C   UNL     1       6.438   1.291  25.066  0.00  0.00    +0.064 A 
ATOM     17  C   UNL     1       5.619   0.384  25.762  0.00  0.00    +0.059 A 
ATOM     18  I   UNL     1       4.674   1.055  27.510  0.00  0.00    -0.040 I 
ATOM     19  C   UNL     1       5.416  -0.915  25.277  0.00  0.00    +0.143 A 
ATOM     20  C   UNL     1       6.027  -1.300  24.088  0.00  0.00    +0.059 A 
ATOM     21  I   UNL     1       5.771  -3.220  23.292  0.00  0.00    -0.040 I 
ATOM     22  C   UNL     1       6.817  -0.395  23.381  0.00  0.00    +0.064 A 
BRANCH  19  23
ATOM     23  O   UNL     1       4.623  -1.787  25.977  0.00  0.00    -0.505 OA
ATOM     24  H   UNL     1       4.971  -1.849  26.885  0.00  0.00    +0.292 HD
ENDBRANCH  19  23
ENDBRANCH  14  15
ENDBRANCH   5  14
TORSDOF 6
ENDMDL
MODEL 4
REMARK VINA RESULT:      -5.3      3.568      7.903
REMARK  Name = 
REMARK  6 active torsions:
REMARK  status: ('A' for Active; 'I' for Inactive)
REMARK    1  A    between atoms: O_1  and  C_2
REMARK    2  A    between atoms: C_2  and  C_4
REMARK    3  A    between atoms: C_4  and  C_5
REMARK    4  A    between atoms: C_9  and  O_10
REMARK    5  A    between atoms: O_10  and  C_11
REMARK    6  A    between atoms: C_15  and  O_16
REMARK                            x       y       z     vdW  Elec       q    Type
REMARK                         _______ _______ _______ _____ _____    ______ ____
ROOT
ATOM      1  C   UNL     1       9.333  -0.541  24.092  0.00  0.00    -0.035 A 
ATOM      2  C   UNL     1       9.569  -1.911  24.286  0.00  0.00    +0.022 A 
ATOM      3  C   UNL     1       8.716  -2.696  25.082  0.00  0.00    +0.057 A 
ATOM      4  I   UNL     1       9.354  -4.682  25.372  0.00  0.00    -0.040 I 
ATOM      5  C   UNL     1       7.585  -2.124  25.683  0.00  0.00    +0.155 A 
ATOM      6  C   UNL     1       7.343  -0.753  25.465  0.00  0.00    +0.057 A 
ATOM      7  I   UNL     1       5.708   0.239  26.355  0.00  0.00    -0.040 I 
ATOM      8  C   UNL     1       8.205   0.031  24.684  0.00  0.00    +0.022 A 
ENDROOT
BRANCH   1   9
ATOM      9  C   UNL     1      10.309   0.301  23.298  0.00  0.00    +0.155 C 
BRANCH   9  10
ATOM     10  C   UNL     1       9.845   0.677  21.905  0.00  0.00    +0.309 C 
ATOM     11  O   UNL     1       9.330  -0.076  21.094  0.00  0.00    -0.251 OA
BRANCH  10  12
ATOM     12  O   UNL     1      10.068   1.986  21.625  0.00  0.00    -0.480 OA
ATOM     13  H   UNL     1      10.603   2.461  22.293  0.00  0.00    +0.295 HD
ENDBRANCH  10  12
ENDBRANCH   9  10
ENDBRANCH   1   9
BRANCH   5  14
ATOM     14  O   UNL     1       6.862  -2.712  26.695  0.00  0.00    -0.454 OA
BRANCH  14  15
ATOM     15  C   UNL     1       5.950  -3.721  26.513  0.00  0.00    +0.131 A 
ATOM     16  C   UNL     1       5.318  -4.090  25.326  0.00  0.00    +0.064 A 
ATOM     17  C   UNL     1       4.463  -5.205  25.316  0.00  0.00    +0.059 A 
ATOM     18  I   UNL     1       3.650  -5.804  23.477  0.00  0.00    -0.040 I 
ATOM     19  C   UNL     1       4.197  -5.915  26.495  0.00  0.00    +0.143 A 
ATOM     20  C   UNL     1       4.797  -5.507  27.683  0.00  0.00    +0.059 A 
ATOM     21  I   UNL     1       4.455  -6.515  29.487  0.00  0.00    -0.040 I 
ATOM     22  C   UNL     1       5.667  -4.418  27.692  0.00  0.00    +0.064 A 
BRANCH  19  23
ATOM     23  O   UNL     1       3.351  -6.994  26.465  0.00  0.00    -0.505 OA
ATOM     24  H   UNL     1       2.609  -6.811  27.070  0.00  0.00    +0.292 HD
ENDBRANCH  19  23
ENDBRANCH  14  15
ENDBRANCH   5  14
TORSDOF 6
ENDMDL
MODEL 5
REMARK VINA RESULT:      -5.3      3.574      7.075
REMARK  Name = 
REMARK  6 active torsions:
REMARK  status: ('A' for Active; 'I' for Inactive)
REMARK    1  A    between atoms: O_1  and  C_2
REMARK    2  A    between atoms: C_2  and  C_4
REMARK    3  A    between atoms: C_4  and  C_5
REMARK    4  A    between atoms: C_9  and  O_10
REMARK    5  A    between atoms: O_10  and  C_11
REMARK    6  A    between atoms: C_15  and  O_16
REMARK                            x       y       z     vdW  Elec       q    Type
REMARK                         _______ _______ _______ _____ _____    ______ ____
ROOT
ATOM      1  C   UNL     1       9.297  -0.486  24.265  0.00  0.00    -0.035 A 
ATOM      2  C   UNL     1       8.103   0.018  24.804  0.00  0.00    +0.022 A 
ATOM      3  C   UNL     1       7.234  -0.796  25.552  0.00  0.00    +0.057 A 
ATOM      4  I   UNL     1       5.426   0.123  26.118  0.00  0.00    -0.040 I 
ATOM      5  C   UNL     1       7.562  -2.137  25.800  0.00  0.00    +0.155 A 
ATOM      6  C   UNL     1       8.772  -2.630  25.274  0.00  0.00    +0.057 A 
ATOM      7  I   UNL     1       9.354  -4.642  25.529  0.00  0.00    -0.040 I 
ATOM      8  C   UNL     1       9.629  -1.820  24.514  0.00  0.00    +0.022 A 
ENDROOT
BRANCH   1   9
ATOM      9  C   UNL     1      10.176   0.387  23.394  0.00  0.00    +0.155 C 
BRANCH   9  10
ATOM     10  C   UNL     1       9.740   0.491  21.946  0.00  0.00    +0.309 C 
ATOM     11  O   UNL     1       9.288  -0.417  21.268  0.00  0.00    -0.251 OA
BRANCH  10  12
ATOM     12  O   UNL     1       9.913   1.741  21.446  0.00  0.00    -0.480 OA
ATOM     13  H   UNL     1      10.705   2.208  21.782  0.00  0.00    +0.295 HD
ENDBRANCH  10  12
ENDBRANCH   9  10
ENDBRANCH   1   9
BRANCH   5  14
ATOM     14  O   UNL     1       6.672  -3.082  26.257  0.00  0.00    -0.454 OA
BRANCH  14  15
ATOM     15  C   UNL     1       5.673  -3.639  25.498  0.00  0.00    +0.131 A 
ATOM     16  C   UNL     1       4.308  -3.661  25.778  0.00  0.00    +0.064 A 
ATOM     17  C   UNL     1       3.419  -4.216  24.841  0.00  0.00    +0.059 A 
ATOM     18  I   UNL     1       1.364  -4.097  25.245  0.00  0.00    -0.040 I 
ATOM     19  C   UNL     1       3.896  -4.796  23.657  0.00  0.00    +0.143 A 
ATOM     20  C   UNL     1       5.265  -4.809  23.412  0.00  0.00    +0.059 A 
ATOM     21  I   UNL     1       6.060  -5.651  21.666  0.00  0.00    -0.040 I 
ATOM     22  C   UNL     1       6.148  -4.236  24.326  0.00  0.00    +0.064 A 
BRANCH  19  23
ATOM     23  O   UNL     1       3.013  -5.341  22.761  0.00  0.00    -0.505 OA
ATOM     24  H   UNL     1       3.295  -5.082  21.865  0.00  0.00    +0.292 HD
ENDBRANCH  19  23
ENDBRANCH  14  15
ENDBRANCH   5  14
TORSDOF 6
ENDMDL
MODEL 6
REMARK VINA RESULT:      -5.2      2.448      2.647
REMARK  Name = 
REMARK  6 active torsions:
REMARK  status: ('A' for Active; 'I' for Inactive)
REMARK    1  A    between atoms: O_1  and  C_2
REMARK    2  A    between atoms: C_2  and  C_4
REMARK    3  A    between atoms: C_4  and  C_5
REMARK    4  A    between atoms: C_9  and  O_10
REMARK    5  A    between atoms: O_10  and  C_11
REMARK    6  A    between atoms: C_15  and  O_16
REMARK                            x       y       z     vdW  Elec       q    Type
REMARK                         _______ _______ _______ _____ _____    ______ ____
ROOT
ATOM      1  C   UNL     1       7.308  -3.322  23.133  0.00  0.00    -0.035 A 
ATOM      2  C   UNL     1       6.473  -2.841  24.154  0.00  0.00    +0.022 A 
ATOM      3  C   UNL     1       6.525  -1.500  24.574  0.00  0.00    +0.057 A 
ATOM      4  I   UNL     1       5.308  -1.043  26.230  0.00  0.00    -0.040 I 
ATOM      5  C   UNL     1       7.404  -0.599  23.954  0.00  0.00    +0.155 A 
ATOM      6  C   UNL     1       8.222  -1.084  22.915  0.00  0.00    +0.057 A 
ATOM      7  I   UNL     1       9.624   0.154  21.939  0.00  0.00    -0.040 I 
ATOM      8  C   UNL     1       8.181  -2.427  22.509  0.00  0.00    +0.022 A 
ENDROOT
BRANCH   1   9
ATOM      9  C   UNL     1       7.293  -4.788  22.754  0.00  0.00    +0.155 C 
BRANCH   9  10
ATOM     10  C   UNL     1       6.260  -5.168  21.712  0.00  0.00    +0.309 C 
ATOM     11  O   UNL     1       5.740  -4.411  20.909  0.00  0.00    -0.251 OA
BRANCH  10  12
ATOM     12  O   UNL     1       5.946  -6.488  21.758  0.00  0.00    -0.480 OA
ATOM     13  H   UNL     1       4.987  -6.680  21.718  0.00  0.00    +0.295 HD
ENDBRANCH  10  12
ENDBRANCH   9  10
ENDBRANCH   1   9
BRANCH   5  14
ATOM     14  O   UNL     1       7.742   0.632  24.465  0.00  0.00    -0.454 OA
BRANCH  14  15
ATOM     15  C   UNL     1       7.179   1.819  24.068  0.00  0.00    +0.131 A 
ATOM     16  C   UNL     1       5.895   2.022  23.564  0.00  0.00    +0.064 A 
ATOM     17  C   UNL     1       5.464   3.329  23.279  0.00  0.00    +0.059 A 
ATOM     18  I   UNL     1       3.478   3.596  22.658  0.00  0.00    -0.040 I 
ATOM     19  C   UNL     1       6.328   4.421  23.443  0.00  0.00    +0.143 A 
ATOM     20  C   UNL     1       7.622   4.199  23.903  0.00  0.00    +0.059 A 
ATOM     21  I   UNL     1       8.974   5.775  24.180  0.00  0.00    -0.040 I 
ATOM     22  C   UNL     1       8.045   2.908  24.213  0.00  0.00    +0.064 A 
BRANCH  19  23
ATOM     23  O   UNL     1       5.890   5.687  23.149  0.00  0.00    -0.505 OA
ATOM     24  H   UNL     1       6.670   6.268  23.090  0.00  0.00    +0.292 HD
ENDBRANCH  19  23
ENDBRANCH  14  15
ENDBRANCH   5  14
TORSDOF 6
ENDMDL
MODEL 7
REMARK VINA RESULT:      -5.2      4.597      8.351
REMARK  Name = 
REMARK  6 active torsions:
REMARK  status: ('A' for Active; 'I' for Inactive)
REMARK    1  A    between atoms: O_1  and  C_2
REMARK    2  A    between atoms: C_2  and  C_4
REMARK    3  A    between atoms: C_4  and  C_5
REMARK    4  A    between atoms: C_9  and  O_10
REMARK    5  A    between atoms: O_10  and  C_11
REMARK    6  A    between atoms: C_15  and  O_16
REMARK                            x       y       z     vdW  Elec       q    Type
REMARK                         _______ _______ _______ _____ _____    ______ ____
ROOT
ATOM      1  C   UNL     1       8.596  -2.718  23.774  0.00  0.00    -0.035 A 
ATOM      2  C   UNL     1       7.671  -2.158  24.669  0.00  0.00    +0.022 A 
ATOM      3  C   UNL     1       6.334  -2.593  24.710  0.00  0.00    +0.057 A 
ATOM      4  I   UNL     1       5.088  -1.500  26.008  0.00  0.00    -0.040 I 
ATOM      5  C   UNL     1       5.901  -3.626  23.866  0.00  0.00    +0.155 A 
ATOM      6  C   UNL     1       6.841  -4.197  22.985  0.00  0.00    +0.057 A 
ATOM      7  I   UNL     1       6.303  -5.719  21.625  0.00  0.00    -0.040 I 
ATOM      8  C   UNL     1       8.169  -3.750  22.934  0.00  0.00    +0.022 A 
ENDROOT
BRANCH   1   9
ATOM      9  C   UNL     1      10.008  -2.178  23.690  0.00  0.00    +0.155 C 
BRANCH   9  10
ATOM     10  C   UNL     1      10.203  -1.046  22.702  0.00  0.00    +0.309 C 
ATOM     11  O   UNL     1      10.332   0.134  22.981  0.00  0.00    -0.251 OA
BRANCH  10  12
ATOM     12  O   UNL     1      10.217  -1.483  21.417  0.00  0.00    -0.480 OA
ATOM     13  H   UNL     1      10.818  -2.236  21.249  0.00  0.00    +0.295 HD
ENDBRANCH  10  12
ENDBRANCH   9  10
ENDBRANCH   1   9
BRANCH   5  14
ATOM     14  O   UNL     1       4.581  -3.923  23.618  0.00  0.00    -0.454 OA
BRANCH  14  15
ATOM     15  C   UNL     1       3.904  -4.978  24.177  0.00  0.00    +0.131 A 
ATOM     16  C   UNL     1       2.932  -5.776  23.577  0.00  0.00    +0.064 A 
ATOM     17  C   UNL     1       2.398  -6.867  24.285  0.00  0.00    +0.059 A 
ATOM     18  I   UNL     1       1.044  -8.120  23.288  0.00  0.00    -0.040 I 
ATOM     19  C   UNL     1       2.792  -7.125  25.606  0.00  0.00    +0.143 A 
ATOM     20  C   UNL     1       3.729  -6.292  26.210  0.00  0.00    +0.059 A 
ATOM     21  I   UNL     1       4.374  -6.611  28.177  0.00  0.00    -0.040 I 
ATOM     22  C   UNL     1       4.281  -5.226  25.501  0.00  0.00    +0.064 A 
BRANCH  19  23
ATOM     23  O   UNL     1       2.252  -8.188  26.283  0.00  0.00    -0.505 OA
ATOM     24  H   UNL     1       1.375  -7.919  26.613  0.00  0.00    +0.292 HD
ENDBRANCH  19  23
ENDBRANCH  14  15
ENDBRANCH   5  14
TORSDOF 6
ENDMDL
MODEL 8
REMARK VINA RESULT:      -5.2      3.975      8.180
REMARK  Name = 
REMARK  6 active torsions:
REMARK  status: ('A' for Active; 'I' for Inactive)
REMARK    1  A    between atoms: O_1  and  C_2
REMARK    2  A    between atoms: C_2  and  C_4
REMARK    3  A    between atoms: C_4  and  C_5
REMARK    4  A    between atoms: C_9  and  O_10
REMARK    5  A    between atoms: O_10  and  C_11
REMARK    6  A    between atoms: C_15  and  O_16
REMARK                            x       y       z     vdW  Elec       q    Type
REMARK                         _______ _______ _______ _____ _____    ______ ____
ROOT
ATOM      1  C   UNL     1       8.661  -1.394  22.802  0.00  0.00    -0.035 A 
ATOM      2  C   UNL     1       7.911  -0.819  23.840  0.00  0.00    +0.022 A 
ATOM      3  C   UNL     1       6.719  -1.409  24.298  0.00  0.00    +0.057 A 
ATOM      4  I   UNL     1       5.674  -0.288  25.742  0.00  0.00    -0.040 I 
ATOM      5  C   UNL     1       6.266  -2.613  23.738  0.00  0.00    +0.155 A 
ATOM      6  C   UNL     1       7.036  -3.195  22.711  0.00  0.00    +0.057 A 
ATOM      7  I   UNL     1       6.437  -4.975  21.750  0.00  0.00    -0.040 I 
ATOM      8  C   UNL     1       8.216  -2.595  22.245  0.00  0.00    +0.022 A 
ENDROOT
BRANCH   1   9
ATOM      9  C   UNL     1       9.896  -0.698  22.270  0.00  0.00    +0.155 C 
BRANCH   9  10
ATOM     10  C   UNL     1       9.722   0.778  21.974  0.00  0.00    +0.309 C 
ATOM     11  O   UNL     1      10.219   1.698  22.603  0.00  0.00    -0.251 OA
BRANCH  10  12
ATOM     12  O   UNL     1       8.921   0.996  20.901  0.00  0.00    -0.480 OA
ATOM     13  H   UNL     1       9.213   1.723  20.314  0.00  0.00    +0.295 HD
ENDBRANCH  10  12
ENDBRANCH   9  10
ENDBRANCH   1   9
BRANCH   5  14
ATOM     14  O   UNL     1       4.996  -3.114  23.899  0.00  0.00    -0.454 OA
BRANCH  14  15
ATOM     15  C   UNL     1       4.660  -4.111  24.780  0.00  0.00    +0.131 A 
ATOM     16  C   UNL     1       5.352  -4.499  25.926  0.00  0.00    +0.064 A 
ATOM     17  C   UNL     1       4.813  -5.498  26.755  0.00  0.00    +0.059 A 
ATOM     18  I   UNL     1       5.820  -5.945  28.540  0.00  0.00    -0.040 I 
ATOM     19  C   UNL     1       3.619  -6.146  26.411  0.00  0.00    +0.143 A 
ATOM     20  C   UNL     1       2.962  -5.783  25.240  0.00  0.00    +0.059 A 
ATOM     21  I   UNL     1       1.170  -6.698  24.656  0.00  0.00    -0.040 I 
ATOM     22  C   UNL     1       3.479  -4.773  24.430  0.00  0.00    +0.064 A 
BRANCH  19  23
ATOM     23  O   UNL     1       3.116  -7.126  27.227  0.00  0.00    -0.505 OA
ATOM     24  H   UNL     1       2.146  -7.131  27.129  0.00  0.00    +0.292 HD
ENDBRANCH  19  23
ENDBRANCH  14  15
ENDBRANCH   5  14
TORSDOF 6
ENDMDL
MODEL 9
REMARK VINA RESULT:      -5.2      3.516      7.501
REMARK  Name = 
REMARK  6 active torsions:
REMARK  status: ('A' for Active; 'I' for Inactive)
REMARK    1  A    between atoms: O_1  and  C_2
REMARK    2  A    between atoms: C_2  and  C_4
REMARK    3  A    between atoms: C_4  and  C_5
REMARK    4  A    between atoms: C_9  and  O_10
REMARK    5  A    between atoms: O_10  and  C_11
REMARK    6  A    between atoms: C_15  and  O_16
REMARK                            x       y       z     vdW  Elec       q    Type
REMARK                         _______ _______ _______ _____ _____    ______ ____
ROOT
ATOM      1  C   UNL     1       9.741   0.732  24.255  0.00  0.00    -0.035 A 
ATOM      2  C   UNL     1       9.937  -0.657  24.298  0.00  0.00    +0.022 A 
ATOM      3  C   UNL     1       8.872  -1.540  24.550  0.00  0.00    +0.057 A 
ATOM      4  I   UNL     1       9.426  -3.564  24.736  0.00  0.00    -0.040 I 
ATOM      5  C   UNL     1       7.574  -1.046  24.739  0.00  0.00    +0.155 A 
ATOM      6  C   UNL     1       7.381   0.348  24.673  0.00  0.00    +0.057 A 
ATOM      7  I   UNL     1       5.488   1.222  24.993  0.00  0.00    -0.040 I 
ATOM      8  C   UNL     1       8.448   1.229  24.438  0.00  0.00    +0.022 A 
ENDROOT
BRANCH   1   9
ATOM      9  C   UNL     1      10.916   1.668  24.063  0.00  0.00    +0.155 C 
BRANCH   9  10
ATOM     10  C   UNL     1      10.635   2.878  23.194  0.00  0.00    +0.309 C 
ATOM     11  O   UNL     1      10.519   4.028  23.584  0.00  0.00    -0.251 OA
BRANCH  10  12
ATOM     12  O   UNL     1      10.510   2.551  21.883  0.00  0.00    -0.480 OA
ATOM     13  H   UNL     1      10.628   3.299  21.264  0.00  0.00    +0.295 HD
ENDBRANCH  10  12
ENDBRANCH   9  10
ENDBRANCH   1   9
BRANCH   5  14
ATOM     14  O   UNL     1       6.535  -1.775  25.270  0.00  0.00    -0.454 OA
BRANCH  14  15
ATOM     15  C   UNL     1       5.808  -2.710  24.577  0.00  0.00    +0.131 A 
ATOM     16  C   UNL     1       6.228  -3.476  23.491  0.00  0.00    +0.064 A 
ATOM     17  C   UNL     1       5.363  -4.445  22.952  0.00  0.00    +0.059 A 
ATOM     18  I   UNL     1       6.093  -5.667  21.412  0.00  0.00    -0.040 I 
ATOM     19  C   UNL     1       4.067  -4.609  23.459  0.00  0.00    +0.143 A 
ATOM     20  C   UNL     1       3.643  -3.805  24.513  0.00  0.00    +0.059 A 
ATOM     21  I   UNL     1       1.724  -3.989  25.332  0.00  0.00    -0.040 I 
ATOM     22  C   UNL     1       4.507  -2.862  25.068  0.00  0.00    +0.064 A 
BRANCH  19  23
ATOM     23  O   UNL     1       3.235  -5.552  22.913  0.00  0.00    -0.505 OA
ATOM     24  H   UNL     1       2.600  -5.827  23.599  0.00  0.00    +0.292 HD
ENDBRANCH  19  23
ENDBRANCH  14  15
ENDBRANCH   5  14
TORSDOF 6
ENDMDL
