MODEL 1
REMARK VINA RESULT:      -6.1      0.000      0.000
REMARK  Name = 
REMARK  5 active torsions:
REMARK  status: ('A' for Active; 'I' for Inactive)
REMARK    1  A    between atoms: C_1  and  N_2
REMARK    2  A    between atoms: C_4  and  C_5
REMARK    3  A    between atoms: C_8  and  O_10
REMARK    4  A    between atoms: C_11  and  C_13
REMARK    5  A    between atoms: C_13  and  O_14
REMARK                            x       y       z     vdW  Elec       q    Type
REMARK                         _______ _______ _______ _____ _____    ______ ____
ROOT
ATOM      1  C   UNL     1       5.298  -6.135  26.447  0.00  0.00    +0.153 C 
ATOM      2  N   UNL     1       5.518  -5.894  25.031  0.00  0.00    -0.303 N 
ATOM      3  C   UNL     1       4.865  -6.727  24.131  0.00  0.00    +0.329 A 
ATOM      4  O   UNL     1       4.119  -7.647  24.456  0.00  0.00    -0.246 OA
ATOM      5  N   UNL     1       5.081  -6.444  22.810  0.00  0.00    -0.275 N 
ATOM      6  H   UNL     1       4.568  -7.003  22.147  0.00  0.00    +0.173 HD
ATOM      7  C   UNL     1       5.718  -5.339  22.330  0.00  0.00    +0.260 A 
ATOM      8  O   UNL     1       5.680  -5.027  21.145  0.00  0.00    -0.267 OA
ATOM      9  C   UNL     1       6.455  -4.521  23.324  0.00  0.00    +0.062 A 
ATOM     10  C   UNL     1       6.317  -4.850  24.617  0.00  0.00    +0.101 A 
ENDROOT
BRANCH   9  11
ATOM     11  C   UNL     1       7.297  -3.411  22.771  0.00  0.00    +0.158 C 
ATOM     12  O   UNL     1       8.545  -3.286  23.490  0.00  0.00    -0.364 OA
ATOM     13  C   UNL     1       8.928  -1.887  23.480  0.00  0.00    +0.173 C 
ATOM     14  C   UNL     1       7.832  -1.128  22.727  0.00  0.00    +0.148 C 
ATOM     15  C   UNL     1       6.640  -2.045  22.875  0.00  0.00    +0.070 C 
BRANCH  14  16
ATOM     16  O   UNL     1       7.584   0.160  23.272  0.00  0.00    -0.389 OA
ATOM     17  H   UNL     1       6.960   0.632  22.696  0.00  0.00    +0.210 HD
ENDBRANCH  14  16
BRANCH  13  18
ATOM     18  C   UNL     1      10.307  -1.743  22.836  0.00  0.00    +0.190 C 
BRANCH  18  19
ATOM     19  O   UNL     1      10.200  -1.563  21.424  0.00  0.00    -0.392 OA
ATOM     20  H   UNL     1      10.233  -2.454  21.032  0.00  0.00    +0.210 HD
ENDBRANCH  18  19
ENDBRANCH  13  18
ENDBRANCH   9  11
TORSDOF 4
ENDMDL
MODEL 2
REMARK VINA RESULT:      -6.0      2.733      3.303
REMARK  Name = 
REMARK  5 active torsions:
REMARK  status: ('A' for Active; 'I' for Inactive)
REMARK    1  A    between atoms: C_1  and  N_2
REMARK    2  A    between atoms: C_4  and  C_5
REMARK    3  A    between atoms: C_8  and  O_10
REMARK    4  A    between atoms: C_11  and  C_13
REMARK    5  A    between atoms: C_13  and  O_14
REMARK                            x       y       z     vdW  Elec       q    Type
REMARK                         _______ _______ _______ _____ _____    ______ ____
ROOT
ATOM      1  C   UNL     1       4.945  -4.186  25.786  0.00  0.00    +0.153 C 
ATOM      2  N   UNL     1       6.387  -4.351  25.724  0.00  0.00    -0.303 N 
ATOM      3  C   UNL     1       6.927  -5.490  26.309  0.00  0.00    +0.329 A 
ATOM      4  O   UNL     1       6.265  -6.359  26.871  0.00  0.00    -0.246 OA
ATOM      5  N   UNL     1       8.285  -5.616  26.201  0.00  0.00    -0.275 N 
ATOM      6  H   UNL     1       8.683  -6.465  26.570  0.00  0.00    +0.173 HD
ATOM      7  C   UNL     1       9.095  -4.831  25.437  0.00  0.00    +0.260 A 
ATOM      8  O   UNL     1      10.260  -5.131  25.201  0.00  0.00    -0.267 OA
ATOM      9  C   UNL     1       8.487  -3.593  24.891  0.00  0.00    +0.062 A 
ATOM     10  C   UNL     1       7.169  -3.423  25.072  0.00  0.00    +0.101 A 
ENDROOT
BRANCH   9  11
ATOM     11  C   UNL     1       9.423  -2.646  24.201  0.00  0.00    +0.158 C 
ATOM     12  O   UNL     1       9.227  -1.288  24.652  0.00  0.00    -0.364 OA
ATOM     13  C   UNL     1       9.523  -0.402  23.542  0.00  0.00    +0.173 C 
ATOM     14  C   UNL     1       9.899  -1.287  22.351  0.00  0.00    +0.148 C 
ATOM     15  C   UNL     1       9.230  -2.598  22.695  0.00  0.00    +0.070 C 
BRANCH  14  16
ATOM     16  O   UNL     1       9.440  -0.764  21.113  0.00  0.00    -0.389 OA
ATOM     17  H   UNL     1       8.591  -0.312  21.255  0.00  0.00    +0.210 HD
ENDBRANCH  14  16
BRANCH  13  18
ATOM     18  C   UNL     1      10.638   0.564  23.947  0.00  0.00    +0.190 C 
BRANCH  18  19
ATOM     19  O   UNL     1      10.775   0.625  25.366  0.00  0.00    -0.392 OA
ATOM     20  H   UNL     1      10.509  -0.249  25.704  0.00  0.00    +0.210 HD
ENDBRANCH  18  19
ENDBRANCH  13  18
ENDBRANCH   9  11
TORSDOF 4
ENDMDL
MODEL 3
REMARK VINA RESULT:      -6.0      2.808      2.876
REMARK  Name = 
REMARK  5 active torsions:
REMARK  status: ('A' for Active; 'I' for Inactive)
REMARK    1  A    between atoms: C_1  and  N_2
REMARK    2  A    between atoms: C_4  and  C_5
REMARK    3  A    between atoms: C_8  and  O_10
REMARK    4  A    between atoms: C_11  and  C_13
REMARK    5  A    between atoms: C_13  and  O_14
REMARK                            x       y       z     vdW  Elec       q    Type
REMARK                         _______ _______ _______ _____ _____    ______ ____
ROOT
ATOM      1  C   UNL     1       5.333  -4.247  27.994  0.00  0.00    +0.153 C 
ATOM      2  N   UNL     1       6.470  -4.441  27.110  0.00  0.00    -0.303 N 
ATOM      3  C   UNL     1       7.303  -5.522  27.368  0.00  0.00    +0.329 A 
ATOM      4  O   UNL     1       7.139  -6.318  28.289  0.00  0.00    -0.246 OA
ATOM      5  N   UNL     1       8.343  -5.681  26.493  0.00  0.00    -0.275 N 
ATOM      6  H   UNL     1       8.922  -6.495  26.634  0.00  0.00    +0.173 HD
ATOM      7  C   UNL     1       8.512  -4.993  25.329  0.00  0.00    +0.260 A 
ATOM      8  O   UNL     1       9.330  -5.335  24.482  0.00  0.00    -0.267 OA
ATOM      9  C   UNL     1       7.642  -3.808  25.135  0.00  0.00    +0.062 A 
ATOM     10  C   UNL     1       6.675  -3.598  26.040  0.00  0.00    +0.101 A 
ENDROOT
BRANCH   9  11
ATOM     11  C   UNL     1       7.948  -2.953  23.941  0.00  0.00    +0.158 C 
ATOM     12  O   UNL     1       9.039  -2.043  24.210  0.00  0.00    -0.364 OA
ATOM     13  C   UNL     1       8.812  -0.835  23.441  0.00  0.00    +0.173 C 
ATOM     14  C   UNL     1       7.496  -1.026  22.683  0.00  0.00    +0.148 C 
ATOM     15  C   UNL     1       6.788  -2.068  23.518  0.00  0.00    +0.070 C 
BRANCH  14  16
ATOM     16  O   UNL     1       6.743   0.174  22.579  0.00  0.00    -0.389 OA
ATOM     17  H   UNL     1       5.874  -0.031  22.194  0.00  0.00    +0.210 HD
ENDBRANCH  14  16
BRANCH  13  18
ATOM     18  C   UNL     1      10.005  -0.590  22.516  0.00  0.00    +0.190 C 
BRANCH  18  19
ATOM     19  O   UNL     1      10.057  -1.563  21.474  0.00  0.00    -0.392 OA
ATOM     20  H   UNL     1      10.990  -1.831  21.397  0.00  0.00    +0.210 HD
ENDBRANCH  18  19
ENDBRANCH  13  18
ENDBRANCH   9  11
TORSDOF 4
ENDMDL
MODEL 4
REMARK VINA RESULT:      -5.9      3.749      6.438
REMARK  Name = 
REMARK  5 active torsions:
REMARK  status: ('A' for Active; 'I' for Inactive)
REMARK    1  A    between atoms: C_1  and  N_2
REMARK    2  A    between atoms: C_4  and  C_5
REMARK    3  A    between atoms: C_8  and  O_10
REMARK    4  A    between atoms: C_11  and  C_13
REMARK    5  A    between atoms: C_13  and  O_14
REMARK                            x       y       z     vdW  Elec       q    Type
REMARK                         _______ _______ _______ _____ _____    ______ ____
ROOT
ATOM      1  C   UNL     1      10.867   1.354  24.152  0.00  0.00    +0.153 C 
ATOM      2  N   UNL     1       9.642   0.604  23.931  0.00  0.00    -0.303 N 
ATOM      3  C   UNL     1       8.637   1.222  23.198  0.00  0.00    +0.329 A 
ATOM      4  O   UNL     1       8.719   2.355  22.730  0.00  0.00    -0.246 OA
ATOM      5  N   UNL     1       7.515   0.467  22.992  0.00  0.00    -0.275 N 
ATOM      6  H   UNL     1       6.801   0.882  22.413  0.00  0.00    +0.173 HD
ATOM      7  C   UNL     1       7.386  -0.857  23.284  0.00  0.00    +0.260 A 
ATOM      8  O   UNL     1       6.447  -1.529  22.869  0.00  0.00    -0.267 OA
ATOM      9  C   UNL     1       8.454  -1.452  24.124  0.00  0.00    +0.062 A 
ATOM     10  C   UNL     1       9.517  -0.684  24.404  0.00  0.00    +0.101 A 
ENDROOT
BRANCH   9  11
ATOM     11  C   UNL     1       8.220  -2.858  24.590  0.00  0.00    +0.158 C 
ATOM     12  O   UNL     1       7.861  -2.898  25.989  0.00  0.00    -0.364 OA
ATOM     13  C   UNL     1       8.372  -4.136  26.546  0.00  0.00    +0.173 C 
ATOM     14  C   UNL     1       9.098  -4.870  25.415  0.00  0.00    +0.148 C 
ATOM     15  C   UNL     1       9.448  -3.745  24.469  0.00  0.00    +0.070 C 
BRANCH  14  16
ATOM     16  O   UNL     1      10.251  -5.566  25.865  0.00  0.00    -0.389 OA
ATOM     17  H   UNL     1      10.001  -6.477  26.096  0.00  0.00    +0.210 HD
ENDBRANCH  14  16
BRANCH  13  18
ATOM     18  C   UNL     1       7.215  -4.942  27.138  0.00  0.00    +0.190 C 
BRANCH  18  19
ATOM     19  O   UNL     1       7.683  -6.146  27.745  0.00  0.00    -0.392 OA
ATOM     20  H   UNL     1       8.650  -6.057  27.817  0.00  0.00    +0.210 HD
ENDBRANCH  18  19
ENDBRANCH  13  18
ENDBRANCH   9  11
TORSDOF 4
ENDMDL
MODEL 5
REMARK VINA RESULT:      -5.7      5.555      8.747
REMARK  Name = 
REMARK  5 active torsions:
REMARK  status: ('A' for Active; 'I' for Inactive)
REMARK    1  A    between atoms: C_1  and  N_2
REMARK    2  A    between atoms: C_4  and  C_5
REMARK    3  A    between atoms: C_8  and  O_10
REMARK    4  A    between atoms: C_11  and  C_13
REMARK    5  A    between atoms: C_13  and  O_14
REMARK                            x       y       z     vdW  Elec       q    Type
REMARK                         _______ _______ _______ _____ _____    ______ ____
ROOT
ATOM      1  C   UNL     1      12.486   4.983  23.176  0.00  0.00    +0.153 C 
ATOM      2  N   UNL     1      11.194   4.454  23.582  0.00  0.00    -0.303 N 
ATOM      3  C   UNL     1      10.282   5.347  24.132  0.00  0.00    +0.329 A 
ATOM      4  O   UNL     1      10.499   6.545  24.295  0.00  0.00    -0.246 OA
ATOM      5  N   UNL     1       9.071   4.810  24.472  0.00  0.00    -0.275 N 
ATOM      6  H   UNL     1       8.380   5.457  24.818  0.00  0.00    +0.173 HD
ATOM      7  C   UNL     1       8.644   3.554  24.158  0.00  0.00    +0.260 A 
ATOM      8  O   UNL     1       7.474   3.211  24.287  0.00  0.00    -0.267 OA
ATOM      9  C   UNL     1       9.673   2.622  23.637  0.00  0.00    +0.062 A 
ATOM     10  C   UNL     1      10.890   3.125  23.385  0.00  0.00    +0.101 A 
ENDROOT
BRANCH   9  11
ATOM     11  C   UNL     1       9.242   1.196  23.459  0.00  0.00    +0.158 C 
ATOM     12  O   UNL     1       9.896   0.326  24.410  0.00  0.00    -0.364 OA
ATOM     13  C   UNL     1      10.072  -0.970  23.781  0.00  0.00    +0.173 C 
ATOM     14  C   UNL     1       9.509  -0.859  22.362  0.00  0.00    +0.148 C 
ATOM     15  C   UNL     1       9.589   0.626  22.094  0.00  0.00    +0.070 C 
BRANCH  14  16
ATOM     16  O   UNL     1      10.254  -1.611  21.416  0.00  0.00    -0.389 OA
ATOM     17  H   UNL     1       9.702  -1.770  20.632  0.00  0.00    +0.210 HD
ENDBRANCH  14  16
BRANCH  13  18
ATOM     18  C   UNL     1       9.375  -2.041  24.621  0.00  0.00    +0.190 C 
BRANCH  18  19
ATOM     19  O   UNL     1       9.607  -3.344  24.088  0.00  0.00    -0.392 OA
ATOM     20  H   UNL     1       8.733  -3.700  23.846  0.00  0.00    +0.210 HD
ENDBRANCH  18  19
ENDBRANCH  13  18
ENDBRANCH   9  11
TORSDOF 4
ENDMDL
MODEL 6
REMARK VINA RESULT:      -5.6      3.248      6.319
REMARK  Name = 
REMARK  5 active torsions:
REMARK  status: ('A' for Active; 'I' for Inactive)
REMARK    1  A    between atoms: C_1  and  N_2
REMARK    2  A    between atoms: C_4  and  C_5
REMARK    3  A    between atoms: C_8  and  O_10
REMARK    4  A    between atoms: C_11  and  C_13
REMARK    5  A    between atoms: C_13  and  O_14
REMARK                            x       y       z     vdW  Elec       q    Type
REMARK                         _______ _______ _______ _____ _____    ______ ____
ROOT
ATOM      1  C   UNL     1       6.803   1.853  23.325  0.00  0.00    +0.153 C 
ATOM      2  N   UNL     1       7.773   0.860  22.898  0.00  0.00    -0.303 N 
ATOM      3  C   UNL     1       9.035   1.313  22.536  0.00  0.00    +0.329 A 
ATOM      4  O   UNL     1       9.378   2.492  22.553  0.00  0.00    -0.246 OA
ATOM      5  N   UNL     1       9.923   0.339  22.168  0.00  0.00    -0.275 N 
ATOM      6  H   UNL     1      10.860   0.648  21.958  0.00  0.00    +0.173 HD
ATOM      7  C   UNL     1       9.727  -1.003  22.300  0.00  0.00    +0.260 A 
ATOM      8  O   UNL     1      10.639  -1.812  22.169  0.00  0.00    -0.267 OA
ATOM      9  C   UNL     1       8.346  -1.436  22.623  0.00  0.00    +0.062 A 
ATOM     10  C   UNL     1       7.448  -0.479  22.898  0.00  0.00    +0.101 A 
ENDROOT
BRANCH   9  11
ATOM     11  C   UNL     1       8.094  -2.915  22.593  0.00  0.00    +0.158 C 
ATOM     12  O   UNL     1       6.875  -3.228  21.884  0.00  0.00    -0.364 OA
ATOM     13  C   UNL     1       6.300  -4.415  22.488  0.00  0.00    +0.173 C 
ATOM     14  C   UNL     1       7.222  -4.823  23.640  0.00  0.00    +0.148 C 
ATOM     15  C   UNL     1       7.920  -3.525  23.974  0.00  0.00    +0.070 C 
BRANCH  14  16
ATOM     16  O   UNL     1       6.511  -5.347  24.753  0.00  0.00    -0.389 OA
ATOM     17  H   UNL     1       5.661  -5.705  24.445  0.00  0.00    +0.210 HD
ENDBRANCH  14  16
BRANCH  13  18
ATOM     18  C   UNL     1       6.152  -5.504  21.424  0.00  0.00    +0.190 C 
BRANCH  18  19
ATOM     19  O   UNL     1       6.201  -6.805  22.009  0.00  0.00    -0.392 OA
ATOM     20  H   UNL     1       7.144  -7.037  22.081  0.00  0.00    +0.210 HD
ENDBRANCH  18  19
ENDBRANCH  13  18
ENDBRANCH   9  11
TORSDOF 4
ENDMDL
MODEL 7
REMARK VINA RESULT:      -5.6      3.434      4.195
REMARK  Name = 
REMARK  5 active torsions:
REMARK  status: ('A' for Active; 'I' for Inactive)
REMARK    1  A    between atoms: C_1  and  N_2
REMARK    2  A    between atoms: C_4  and  C_5
REMARK    3  A    between atoms: C_8  and  O_10
REMARK    4  A    between atoms: C_11  and  C_13
REMARK    5  A    between atoms: C_13  and  O_14
REMARK                            x       y       z     vdW  Elec       q    Type
REMARK                         _______ _______ _______ _____ _____    ______ ____
ROOT
ATOM      1  C   UNL     1       9.522  -5.669  25.329  0.00  0.00    +0.153 C 
ATOM      2  N   UNL     1       8.760  -4.467  25.624  0.00  0.00    -0.303 N 
ATOM      3  C   UNL     1       7.845  -4.530  26.667  0.00  0.00    +0.329 A 
ATOM      4  O   UNL     1       7.641  -5.531  27.349  0.00  0.00    -0.246 OA
ATOM      5  N   UNL     1       7.172  -3.367  26.925  0.00  0.00    -0.275 N 
ATOM      6  H   UNL     1       6.546  -3.382  27.716  0.00  0.00    +0.173 HD
ATOM      7  C   UNL     1       7.451  -2.151  26.377  0.00  0.00    +0.260 A 
ATOM      8  O   UNL     1       6.969  -1.112  26.815  0.00  0.00    -0.267 OA
ATOM      9  C   UNL     1       8.384  -2.149  25.225  0.00  0.00    +0.062 A 
ATOM     10  C   UNL     1       8.980  -3.308  24.911  0.00  0.00    +0.101 A 
ENDROOT
BRANCH   9  11
ATOM     11  C   UNL     1       8.552  -0.838  24.515  0.00  0.00    +0.158 C 
ATOM     12  O   UNL     1       8.990  -1.029  23.151  0.00  0.00    -0.364 OA
ATOM     13  C   UNL     1       9.821   0.102  22.786  0.00  0.00    +0.173 C 
ATOM     14  C   UNL     1       9.900   1.014  24.013  0.00  0.00    +0.148 C 
ATOM     15  C   UNL     1       9.601   0.060  25.147  0.00  0.00    +0.070 C 
BRANCH  14  16
ATOM     16  O   UNL     1      11.172   1.631  24.157  0.00  0.00    -0.389 OA
ATOM     17  H   UNL     1      11.760   1.311  23.452  0.00  0.00    +0.210 HD
ENDBRANCH  14  16
BRANCH  13  18
ATOM     18  C   UNL     1       9.223   0.797  21.561  0.00  0.00    +0.190 C 
BRANCH  18  19
ATOM     19  O   UNL     1       9.754   2.112  21.404  0.00  0.00    -0.392 OA
ATOM     20  H   UNL     1      10.203   2.326  22.242  0.00  0.00    +0.210 HD
ENDBRANCH  18  19
ENDBRANCH  13  18
ENDBRANCH   9  11
TORSDOF 4
ENDMDL
MODEL 8
REMARK VINA RESULT:      -5.4      1.841      3.206
REMARK  Name = 
REMARK  5 active torsions:
REMARK  status: ('A' for Active; 'I' for Inactive)
REMARK    1  A    between atoms: C_1  and  N_2
REMARK    2  A    between atoms: C_4  and  C_5
REMARK    3  A    between atoms: C_8  and  O_10
REMARK    4  A    between atoms: C_11  and  C_13
REMARK    5  A    between atoms: C_13  and  O_14
REMARK                            x       y       z     vdW  Elec       q    Type
REMARK                         _______ _______ _______ _____ _____    ______ ____
ROOT
ATOM      1  C   UNL     1       5.185  -6.029  23.699  0.00  0.00    +0.153 C 
ATOM      2  N   UNL     1       6.045  -5.214  24.540  0.00  0.00    -0.303 N 
ATOM      3  C   UNL     1       6.199  -5.603  25.864  0.00  0.00    +0.329 A 
ATOM      4  O   UNL     1       5.656  -6.584  26.364  0.00  0.00    -0.246 OA
ATOM      5  N   UNL     1       7.039  -4.822  26.609  0.00  0.00    -0.275 N 
ATOM      6  H   UNL     1       7.205  -5.125  27.556  0.00  0.00    +0.173 HD
ATOM      7  C   UNL     1       7.846  -3.837  26.122  0.00  0.00    +0.260 A 
ATOM      8  O   UNL     1       8.738  -3.332  26.796  0.00  0.00    -0.267 OA
ATOM      9  C   UNL     1       7.596  -3.415  24.723  0.00  0.00    +0.062 A 
ATOM     10  C   UNL     1       6.706  -4.124  24.015  0.00  0.00    +0.101 A 
ENDROOT
BRANCH   9  11
ATOM     11  C   UNL     1       8.363  -2.216  24.249  0.00  0.00    +0.158 C 
ATOM     12  O   UNL     1       7.641  -1.501  23.221  0.00  0.00    -0.364 OA
ATOM     13  C   UNL     1       8.613  -0.908  22.323  0.00  0.00    +0.173 C 
ATOM     14  C   UNL     1       9.998  -1.312  22.833  0.00  0.00    +0.148 C 
ATOM     15  C   UNL     1       9.702  -2.566  23.623  0.00  0.00    +0.070 C 
BRANCH  14  16
ATOM     16  O   UNL     1      10.922  -1.552  21.780  0.00  0.00    -0.389 OA
ATOM     17  H   UNL     1      11.625  -2.141  22.104  0.00  0.00    +0.210 HD
ENDBRANCH  14  16
BRANCH  13  18
ATOM     18  C   UNL     1       8.408   0.607  22.280  0.00  0.00    +0.190 C 
BRANCH  18  19
ATOM     19  O   UNL     1       8.839   1.150  21.033  0.00  0.00    -0.392 OA
ATOM     20  H   UNL     1       8.546   0.524  20.347  0.00  0.00    +0.210 HD
ENDBRANCH  18  19
ENDBRANCH  13  18
ENDBRANCH   9  11
TORSDOF 4
ENDMDL
MODEL 9
REMARK VINA RESULT:      -5.4      2.744      6.142
REMARK  Name = 
REMARK  5 active torsions:
REMARK  status: ('A' for Active; 'I' for Inactive)
REMARK    1  A    between atoms: C_1  and  N_2
REMARK    2  A    between atoms: C_4  and  C_5
REMARK    3  A    between atoms: C_8  and  O_10
REMARK    4  A    between atoms: C_11  and  C_13
REMARK    5  A    between atoms: C_13  and  O_14
REMARK                            x       y       z     vdW  Elec       q    Type
REMARK                         _______ _______ _______ _____ _____    ______ ____
ROOT
ATOM      1  C   UNL     1       9.578  -0.349  21.859  0.00  0.00    +0.153 C 
ATOM      2  N   UNL     1       8.468  -0.636  22.752  0.00  0.00    -0.303 N 
ATOM      3  C   UNL     1       8.154   0.320  23.709  0.00  0.00    +0.329 A 
ATOM      4  O   UNL     1       8.752   1.384  23.847  0.00  0.00    -0.246 OA
ATOM      5  N   UNL     1       7.084   0.019  24.508  0.00  0.00    -0.275 N 
ATOM      6  H   UNL     1       6.809   0.729  25.168  0.00  0.00    +0.173 HD
ATOM      7  C   UNL     1       6.226  -1.024  24.323  0.00  0.00    +0.260 A 
ATOM      8  O   UNL     1       5.163  -1.109  24.929  0.00  0.00    -0.267 OA
ATOM      9  C   UNL     1       6.642  -2.050  23.337  0.00  0.00    +0.062 A 
ATOM     10  C   UNL     1       7.742  -1.799  22.613  0.00  0.00    +0.101 A 
ENDROOT
BRANCH   9  11
ATOM     11  C   UNL     1       5.787  -3.280  23.265  0.00  0.00    +0.158 C 
ATOM     12  O   UNL     1       6.154  -4.238  24.283  0.00  0.00    -0.364 OA
ATOM     13  C   UNL     1       5.909  -5.567  23.754  0.00  0.00    +0.173 C 
ATOM     14  C   UNL     1       5.383  -5.391  22.327  0.00  0.00    +0.148 C 
ATOM     15  C   UNL     1       5.916  -4.028  21.949  0.00  0.00    +0.070 C 
BRANCH  14  16
ATOM     16  O   UNL     1       5.841  -6.405  21.444  0.00  0.00    -0.389 OA
ATOM     17  H   UNL     1       5.454  -7.256  21.712  0.00  0.00    +0.210 HD
ENDBRANCH  14  16
BRANCH  13  18
ATOM     18  C   UNL     1       4.928  -6.303  24.667  0.00  0.00    +0.190 C 
BRANCH  18  19
ATOM     19  O   UNL     1       4.400  -7.464  24.027  0.00  0.00    -0.392 OA
ATOM     20  H   UNL     1       5.168  -8.000  23.758  0.00  0.00    +0.210 HD
ENDBRANCH  18  19
ENDBRANCH  13  18
ENDBRANCH   9  11
TORSDOF 4
ENDMDL
