MODEL 1
REMARK VINA RESULT:      -8.0      0.000      0.000
REMARK  Name = 
REMARK  5 active torsions:
REMARK  status: ('A' for Active; 'I' for Inactive)
REMARK    1  A    between atoms: N_1  and  C_2
REMARK    2  A    between atoms: C_2  and  C_3
REMARK    3  A    between atoms: N_6  and  C_7
REMARK    4  A    between atoms: C_7  and  C_8
REMARK    5  A    between atoms: C_13  and  C_15
REMARK                            x       y       z     vdW  Elec       q    Type
REMARK                         _______ _______ _______ _____ _____    ______ ____
ROOT
ATOM      1  C   UNL     1       9.083  -2.019  22.818  0.00  0.00    -0.033 A 
ATOM      2  C   UNL     1       9.800  -2.558  23.893  0.00  0.00    +0.007 A 
ATOM      3  C   UNL     1       9.373  -3.718  24.545  0.00  0.00    +0.026 A 
ATOM      4  C   UNL     1       8.179  -4.296  24.106  0.00  0.00    +0.047 A 
ATOM      5  N   UNL     1       7.472  -5.363  24.606  0.00  0.00    -0.354 N 
ATOM      6  H   UNL     1       7.740  -5.891  25.432  0.00  0.00    +0.166 HD
ATOM      7  C   UNL     1       6.232  -5.442  24.006  0.00  0.00    +0.053 A 
ATOM      8  C   UNL     1       6.275  -4.594  22.914  0.00  0.00    +0.036 A 
ATOM      9  C   UNL     1       7.449  -3.801  23.031  0.00  0.00    +0.001 A 
ATOM     10  C   UNL     1       7.918  -2.660  22.360  0.00  0.00    +0.015 A 
ENDROOT
BRANCH   7  11
ATOM     11  C   UNL     1       5.204  -6.208  24.635  0.00  0.00    +0.063 A 
ATOM     12  C   UNL     1       5.213  -6.463  26.128  0.00  0.00    +0.258 A 
ATOM     13  O   UNL     1       6.209  -6.257  26.824  0.00  0.00    -0.267 OA
ATOM     14  N   UNL     1       4.051  -6.909  26.695  0.00  0.00    -0.322 N 
ATOM     15  H   UNL     1       4.065  -7.012  27.702  0.00  0.00    +0.169 HD
ATOM     16  C   UNL     1       2.896  -7.198  25.968  0.00  0.00    +0.049 A 
ATOM     17  C   UNL     1       2.920  -7.086  24.574  0.00  0.00    -0.001 A 
ATOM     18  C   UNL     1       1.766  -7.383  23.844  0.00  0.00    +0.010 A 
ATOM     19  C   UNL     1       0.600  -7.768  24.508  0.00  0.00    +0.001 A 
ATOM     20  C   UNL     1       0.581  -7.857  25.901  0.00  0.00    +0.002 A 
ATOM     21  C   UNL     1       1.734  -7.582  26.635  0.00  0.00    +0.026 A 
ATOM     22  C   UNL     1       4.121  -6.564  23.922  0.00  0.00    +0.025 A 
ENDBRANCH   7  11
BRANCH   1  23
ATOM     23  C   UNL     1       9.527  -0.730  22.163  0.00  0.00    +0.119 C 
BRANCH  23  27
ATOM     24  C   UNL     1      10.212   2.572  23.720  0.00  0.00    +0.005 C 
ATOM     25  C   UNL     1      10.344   2.226  22.227  0.00  0.00    +0.020 C 
ATOM     26  C   UNL     1       9.066   1.596  21.665  0.00  0.00    +0.085 C 
ATOM     27  N   UNL     1       8.623   0.407  22.408  0.00  0.00    -0.298 NA
ATOM     28  C   UNL     1       8.459   0.721  23.836  0.00  0.00    +0.085 C 
ATOM     29  C   UNL     1       9.702   1.337  24.486  0.00  0.00    +0.020 C 
BRANCH  24  30
ATOM     30  C   UNL     1       9.297   3.783  23.996  0.00  0.00    +0.081 C 
BRANCH  30  31
ATOM     31  N   UNL     1       9.755   4.999  23.330  0.00  0.00    -0.330 NA
ATOM     32  H   UNL     1      10.386   5.513  23.942  0.00  0.00    +0.118 HD
ATOM     33  H   UNL     1      10.315   4.740  22.518  0.00  0.00    +0.118 HD
ENDBRANCH  30  31
ENDBRANCH  24  30
ENDBRANCH  23  27
ENDBRANCH   1  23
TORSDOF 5
ENDMDL
MODEL 2
REMARK VINA RESULT:      -7.5      1.563      2.036
REMARK  Name = 
REMARK  5 active torsions:
REMARK  status: ('A' for Active; 'I' for Inactive)
REMARK    1  A    between atoms: N_1  and  C_2
REMARK    2  A    between atoms: C_2  and  C_3
REMARK    3  A    between atoms: N_6  and  C_7
REMARK    4  A    between atoms: C_7  and  C_8
REMARK    5  A    between atoms: C_13  and  C_15
REMARK                            x       y       z     vdW  Elec       q    Type
REMARK                         _______ _______ _______ _____ _____    ______ ____
ROOT
ATOM      1  C   UNL     1       9.417  -1.340  24.759  0.00  0.00    -0.033 A 
ATOM      2  C   UNL     1       9.001  -1.213  26.091  0.00  0.00    +0.007 A 
ATOM      3  C   UNL     1       8.210  -2.189  26.703  0.00  0.00    +0.026 A 
ATOM      4  C   UNL     1       7.816  -3.277  25.919  0.00  0.00    +0.047 A 
ATOM      5  N   UNL     1       6.973  -4.323  26.212  0.00  0.00    -0.354 N 
ATOM      6  H   UNL     1       6.480  -4.432  27.093  0.00  0.00    +0.166 HD
ATOM      7  C   UNL     1       6.685  -5.041  25.070  0.00  0.00    +0.053 A 
ATOM      8  C   UNL     1       7.584  -4.617  24.107  0.00  0.00    +0.036 A 
ATOM      9  C   UNL     1       8.223  -3.447  24.601  0.00  0.00    +0.001 A 
ATOM     10  C   UNL     1       9.055  -2.478  24.017  0.00  0.00    +0.015 A 
ENDROOT
BRANCH   7  11
ATOM     11  C   UNL     1       5.547  -5.904  25.061  0.00  0.00    +0.063 A 
ATOM     12  C   UNL     1       5.131  -6.670  26.299  0.00  0.00    +0.258 A 
ATOM     13  O   UNL     1       5.872  -6.795  27.276  0.00  0.00    -0.267 OA
ATOM     14  N   UNL     1       3.872  -7.204  26.313  0.00  0.00    -0.322 N 
ATOM     15  H   UNL     1       3.595  -7.657  27.174  0.00  0.00    +0.169 HD
ATOM     16  C   UNL     1       2.990  -7.135  25.233  0.00  0.00    +0.049 A 
ATOM     17  C   UNL     1       3.415  -6.540  24.041  0.00  0.00    -0.001 A 
ATOM     18  C   UNL     1       2.536  -6.478  22.956  0.00  0.00    +0.010 A 
ATOM     19  C   UNL     1       1.243  -6.989  23.076  0.00  0.00    +0.001 A 
ATOM     20  C   UNL     1       0.822  -7.563  24.277  0.00  0.00    +0.002 A 
ATOM     21  C   UNL     1       1.700  -7.647  25.357  0.00  0.00    +0.026 A 
ATOM     22  C   UNL     1       4.733  -5.908  23.991  0.00  0.00    +0.025 A 
ENDBRANCH   7  11
BRANCH   1  23
ATOM     23  C   UNL     1      10.222  -0.246  24.094  0.00  0.00    +0.119 C 
BRANCH  23  27
ATOM     24  C   UNL     1       8.308   2.099  21.941  0.00  0.00    +0.005 C 
ATOM     25  C   UNL     1       7.713   1.040  22.886  0.00  0.00    +0.020 C 
ATOM     26  C   UNL     1       8.263   1.163  24.310  0.00  0.00    +0.085 C 
ATOM     27  N   UNL     1       9.731   1.114  24.377  0.00  0.00    -0.298 NA
ATOM     28  C   UNL     1      10.325   2.138  23.505  0.00  0.00    +0.085 C 
ATOM     29  C   UNL     1       9.844   2.074  22.051  0.00  0.00    +0.020 C 
BRANCH  24  30
ATOM     30  C   UNL     1       7.780   3.525  22.197  0.00  0.00    +0.081 C 
BRANCH  30  31
ATOM     31  N   UNL     1       6.380   3.685  21.814  0.00  0.00    -0.330 NA
ATOM     32  H   UNL     1       5.854   2.852  22.069  0.00  0.00    +0.118 HD
ATOM     33  H   UNL     1       5.972   4.442  22.361  0.00  0.00    +0.118 HD
ENDBRANCH  30  31
ENDBRANCH  24  30
ENDBRANCH  23  27
ENDBRANCH   1  23
TORSDOF 5
ENDMDL
MODEL 3
REMARK VINA RESULT:      -7.4      1.871      2.492
REMARK  Name = 
REMARK  5 active torsions:
REMARK  status: ('A' for Active; 'I' for Inactive)
REMARK    1  A    between atoms: N_1  and  C_2
REMARK    2  A    between atoms: C_2  and  C_3
REMARK    3  A    between atoms: N_6  and  C_7
REMARK    4  A    between atoms: C_7  and  C_8
REMARK    5  A    between atoms: C_13  and  C_15
REMARK                            x       y       z     vdW  Elec       q    Type
REMARK                         _______ _______ _______ _____ _____    ______ ____
ROOT
ATOM      1  C   UNL     1       8.488  -2.887  23.781  0.00  0.00    -0.033 A 
ATOM      2  C   UNL     1       9.495  -3.524  24.517  0.00  0.00    +0.007 A 
ATOM      3  C   UNL     1       9.211  -4.608  25.353  0.00  0.00    +0.026 A 
ATOM      4  C   UNL     1       7.875  -5.004  25.455  0.00  0.00    +0.047 A 
ATOM      5  N   UNL     1       7.289  -5.954  26.257  0.00  0.00    -0.354 N 
ATOM      6  H   UNL     1       7.790  -6.515  26.940  0.00  0.00    +0.166 HD
ATOM      7  C   UNL     1       5.915  -5.851  26.199  0.00  0.00    +0.053 A 
ATOM      8  C   UNL     1       5.633  -5.020  25.130  0.00  0.00    +0.036 A 
ATOM      9  C   UNL     1       6.851  -4.409  24.727  0.00  0.00    +0.001 A 
ATOM     10  C   UNL     1       7.163  -3.350  23.858  0.00  0.00    +0.015 A 
ENDROOT
BRANCH   7  11
ATOM     11  C   UNL     1       5.130  -6.456  27.227  0.00  0.00    +0.063 A 
ATOM     12  C   UNL     1       5.679  -6.655  28.624  0.00  0.00    +0.258 A 
ATOM     13  O   UNL     1       6.880  -6.552  28.879  0.00  0.00    -0.267 OA
ATOM     14  N   UNL     1       4.781  -6.928  29.619  0.00  0.00    -0.322 N 
ATOM     15  H   UNL     1       5.165  -6.995  30.552  0.00  0.00    +0.169 HD
ATOM     16  C   UNL     1       3.413  -7.094  29.401  0.00  0.00    +0.049 A 
ATOM     17  C   UNL     1       2.916  -7.038  28.095  0.00  0.00    -0.001 A 
ATOM     18  C   UNL     1       1.547  -7.213  27.875  0.00  0.00    +0.010 A 
ATOM     19  C   UNL     1       0.688  -7.422  28.956  0.00  0.00    +0.001 A 
ATOM     20  C   UNL     1       1.191  -7.456  30.257  0.00  0.00    +0.002 A 
ATOM     21  C   UNL     1       2.559  -7.303  30.483  0.00  0.00    +0.026 A 
ATOM     22  C   UNL     1       3.826  -6.698  27.002  0.00  0.00    +0.025 A 
ENDBRANCH   7  11
BRANCH   1  23
ATOM     23  C   UNL     1       8.803  -1.678  22.928  0.00  0.00    +0.119 C 
BRANCH  23  27
ATOM     24  C   UNL     1      10.257   1.718  22.541  0.00  0.00    +0.005 C 
ATOM     25  C   UNL     1       9.160   1.093  21.662  0.00  0.00    +0.020 C 
ATOM     26  C   UNL     1       7.988   0.561  22.492  0.00  0.00    +0.085 C 
ATOM     27  N   UNL     1       8.393  -0.399  23.530  0.00  0.00    -0.298 NA
ATOM     28  C   UNL     1       9.420   0.188  24.405  0.00  0.00    +0.085 C 
ATOM     29  C   UNL     1      10.643   0.727  23.655  0.00  0.00    +0.020 C 
BRANCH  24  30
ATOM     30  C   UNL     1       9.860   3.077  23.153  0.00  0.00    +0.081 C 
BRANCH  30  31
ATOM     31  N   UNL     1      11.008   3.951  23.379  0.00  0.00    -0.330 NA
ATOM     32  H   UNL     1      10.689   4.896  23.585  0.00  0.00    +0.118 HD
ATOM     33  H   UNL     1      11.499   3.641  24.216  0.00  0.00    +0.118 HD
ENDBRANCH  30  31
ENDBRANCH  24  30
ENDBRANCH  23  27
ENDBRANCH   1  23
TORSDOF 5
ENDMDL
MODEL 4
REMARK VINA RESULT:      -7.4      2.712     10.208
REMARK  Name = 
REMARK  5 active torsions:
REMARK  status: ('A' for Active; 'I' for Inactive)
REMARK    1  A    between atoms: N_1  and  C_2
REMARK    2  A    between atoms: C_2  and  C_3
REMARK    3  A    between atoms: N_6  and  C_7
REMARK    4  A    between atoms: C_7  and  C_8
REMARK    5  A    between atoms: C_13  and  C_15
REMARK                            x       y       z     vdW  Elec       q    Type
REMARK                         _______ _______ _______ _____ _____    ______ ____
ROOT
ATOM      1  C   UNL     1       8.399  -3.346  25.925  0.00  0.00    -0.033 A 
ATOM      2  C   UNL     1       9.060  -3.611  24.719  0.00  0.00    +0.007 A 
ATOM      3  C   UNL     1       9.569  -2.578  23.927  0.00  0.00    +0.026 A 
ATOM      4  C   UNL     1       9.356  -1.269  24.367  0.00  0.00    +0.047 A 
ATOM      5  N   UNL     1       9.649  -0.070  23.762  0.00  0.00    -0.354 N 
ATOM      6  H   UNL     1      10.071   0.020  22.842  0.00  0.00    +0.166 HD
ATOM      7  C   UNL     1       9.055   0.971  24.445  0.00  0.00    +0.053 A 
ATOM      8  C   UNL     1       8.627   0.448  25.652  0.00  0.00    +0.036 A 
ATOM      9  C   UNL     1       8.721  -0.967  25.566  0.00  0.00    +0.001 A 
ATOM     10  C   UNL     1       8.255  -2.020  26.371  0.00  0.00    +0.015 A 
ENDROOT
BRANCH   7  11
ATOM     11  C   UNL     1       8.895   2.230  23.790  0.00  0.00    +0.063 A 
ATOM     12  C   UNL     1       8.291   2.327  22.405  0.00  0.00    +0.258 A 
ATOM     13  O   UNL     1       8.148   1.341  21.680  0.00  0.00    -0.267 OA
ATOM     14  N   UNL     1       7.873   3.560  21.987  0.00  0.00    -0.322 N 
ATOM     15  H   UNL     1       7.417   3.587  21.085  0.00  0.00    +0.169 HD
ATOM     16  C   UNL     1       8.033   4.726  22.737  0.00  0.00    +0.049 A 
ATOM     17  C   UNL     1       8.705   4.664  23.962  0.00  0.00    -0.001 A 
ATOM     18  C   UNL     1       8.874   5.833  24.710  0.00  0.00    +0.010 A 
ATOM     19  C   UNL     1       8.357   7.042  24.241  0.00  0.00    +0.001 A 
ATOM     20  C   UNL     1       7.670   7.089  23.027  0.00  0.00    +0.002 A 
ATOM     21  C   UNL     1       7.516   5.931  22.265  0.00  0.00    +0.026 A 
ATOM     22  C   UNL     1       9.126   3.362  24.478  0.00  0.00    +0.025 A 
ENDBRANCH   7  11
BRANCH   1  23
ATOM     23  C   UNL     1       7.801  -4.471  26.740  0.00  0.00    +0.119 C 
BRANCH  23  27
ATOM     24  C   UNL     1       4.885  -6.773  26.695  0.00  0.00    +0.005 C 
ATOM     25  C   UNL     1       5.882  -6.591  27.853  0.00  0.00    +0.020 C 
ATOM     26  C   UNL     1       6.031  -5.122  28.261  0.00  0.00    +0.085 C 
ATOM     27  N   UNL     1       6.404  -4.239  27.147  0.00  0.00    -0.298 NA
ATOM     28  C   UNL     1       5.447  -4.371  26.038  0.00  0.00    +0.085 C 
ATOM     29  C   UNL     1       5.254  -5.811  25.550  0.00  0.00    +0.020 C 
BRANCH  24  30
ATOM     30  C   UNL     1       3.413  -6.568  27.108  0.00  0.00    +0.081 C 
BRANCH  30  31
ATOM     31  N   UNL     1       3.051  -7.328  28.301  0.00  0.00    -0.330 NA
ATOM     32  H   UNL     1       2.119  -7.062  28.611  0.00  0.00    +0.118 HD
ATOM     33  H   UNL     1       2.985  -8.316  28.056  0.00  0.00    +0.118 HD
ENDBRANCH  30  31
ENDBRANCH  24  30
ENDBRANCH  23  27
ENDBRANCH   1  23
TORSDOF 5
ENDMDL
MODEL 5
REMARK VINA RESULT:      -7.3      1.649      2.652
REMARK  Name = 
REMARK  5 active torsions:
REMARK  status: ('A' for Active; 'I' for Inactive)
REMARK    1  A    between atoms: N_1  and  C_2
REMARK    2  A    between atoms: C_2  and  C_3
REMARK    3  A    between atoms: N_6  and  C_7
REMARK    4  A    between atoms: C_7  and  C_8
REMARK    5  A    between atoms: C_13  and  C_15
REMARK                            x       y       z     vdW  Elec       q    Type
REMARK                         _______ _______ _______ _____ _____    ______ ____
ROOT
ATOM      1  C   UNL     1       9.243   0.530  23.900  0.00  0.00    -0.033 A 
ATOM      2  C   UNL     1      10.195  -0.383  23.427  0.00  0.00    +0.007 A 
ATOM      3  C   UNL     1       9.837  -1.685  23.063  0.00  0.00    +0.026 A 
ATOM      4  C   UNL     1       8.498  -2.050  23.227  0.00  0.00    +0.047 A 
ATOM      5  N   UNL     1       7.881  -3.265  23.050  0.00  0.00    -0.354 N 
ATOM      6  H   UNL     1       8.362  -4.117  22.777  0.00  0.00    +0.166 HD
ATOM      7  C   UNL     1       6.596  -3.229  23.550  0.00  0.00    +0.053 A 
ATOM      8  C   UNL     1       6.306  -1.895  23.778  0.00  0.00    +0.036 A 
ATOM      9  C   UNL     1       7.522  -1.167  23.675  0.00  0.00    +0.001 A 
ATOM     10  C   UNL     1       7.892   0.150  23.994  0.00  0.00    +0.015 A 
ENDROOT
BRANCH   7  11
ATOM     11  C   UNL     1       5.924  -4.457  23.828  0.00  0.00    +0.063 A 
ATOM     12  C   UNL     1       6.355  -5.349  24.974  0.00  0.00    +0.258 A 
ATOM     13  O   UNL     1       7.435  -5.204  25.549  0.00  0.00    -0.267 OA
ATOM     14  N   UNL     1       5.480  -6.319  25.378  0.00  0.00    -0.322 N 
ATOM     15  H   UNL     1       5.765  -6.860  26.184  0.00  0.00    +0.169 HD
ATOM     16  C   UNL     1       4.257  -6.566  24.754  0.00  0.00    +0.049 A 
ATOM     17  C   UNL     1       3.908  -5.831  23.616  0.00  0.00    -0.001 A 
ATOM     18  C   UNL     1       2.687  -6.084  22.985  0.00  0.00    +0.010 A 
ATOM     19  C   UNL     1       1.821  -7.048  23.503  0.00  0.00    +0.001 A 
ATOM     20  C   UNL     1       2.169  -7.762  24.651  0.00  0.00    +0.002 A 
ATOM     21  C   UNL     1       3.395  -7.530  25.274  0.00  0.00    +0.026 A 
ATOM     22  C   UNL     1       4.785  -4.747  23.174  0.00  0.00    +0.025 A 
ENDBRANCH   7  11
BRANCH   1  23
ATOM     23  C   UNL     1       9.657   1.914  24.346  0.00  0.00    +0.119 C 
BRANCH  23  27
ATOM     24  C   UNL     1       8.129   5.243  23.732  0.00  0.00    +0.005 C 
ATOM     25  C   UNL     1       9.414   4.967  24.532  0.00  0.00    +0.020 C 
ATOM     26  C   UNL     1      10.420   4.130  23.735  0.00  0.00    +0.085 C 
ATOM     27  N   UNL     1       9.866   2.862  23.239  0.00  0.00    -0.298 NA
ATOM     28  C   UNL     1       8.653   3.103  22.444  0.00  0.00    +0.085 C 
ATOM     29  C   UNL     1       7.580   3.917  23.175  0.00  0.00    +0.020 C 
BRANCH  24  30
ATOM     30  C   UNL     1       8.318   6.261  22.589  0.00  0.00    +0.081 C 
BRANCH  30  31
ATOM     31  N   UNL     1       7.386   6.050  21.485  0.00  0.00    -0.330 NA
ATOM     32  H   UNL     1       7.880   5.662  20.683  0.00  0.00    +0.118 HD
ATOM     33  H   UNL     1       6.709   5.338  21.756  0.00  0.00    +0.118 HD
ENDBRANCH  30  31
ENDBRANCH  24  30
ENDBRANCH  23  27
ENDBRANCH   1  23
TORSDOF 5
ENDMDL
MODEL 6
REMARK VINA RESULT:      -7.3      2.193      3.871
REMARK  Name = 
REMARK  5 active torsions:
REMARK  status: ('A' for Active; 'I' for Inactive)
REMARK    1  A    between atoms: N_1  and  C_2
REMARK    2  A    between atoms: C_2  and  C_3
REMARK    3  A    between atoms: N_6  and  C_7
REMARK    4  A    between atoms: C_7  and  C_8
REMARK    5  A    between atoms: C_13  and  C_15
REMARK                            x       y       z     vdW  Elec       q    Type
REMARK                         _______ _______ _______ _____ _____    ______ ____
ROOT
ATOM      1  C   UNL     1       9.548   1.837  23.622  0.00  0.00    -0.033 A 
ATOM      2  C   UNL     1      10.589   1.329  24.410  0.00  0.00    +0.007 A 
ATOM      3  C   UNL     1      10.665  -0.030  24.728  0.00  0.00    +0.026 A 
ATOM      4  C   UNL     1       9.637  -0.855  24.262  0.00  0.00    +0.047 A 
ATOM      5  N   UNL     1       9.393  -2.187  24.493  0.00  0.00    -0.354 N 
ATOM      6  H   UNL     1       9.963  -2.778  25.092  0.00  0.00    +0.166 HD
ATOM      7  C   UNL     1       8.142  -2.535  24.028  0.00  0.00    +0.053 A 
ATOM      8  C   UNL     1       7.715  -1.482  23.239  0.00  0.00    +0.036 A 
ATOM      9  C   UNL     1       8.597  -0.390  23.464  0.00  0.00    +0.001 A 
ATOM     10  C   UNL     1       8.563   0.971  23.117  0.00  0.00    +0.015 A 
ENDROOT
BRANCH   7  11
ATOM     11  C   UNL     1       7.533  -3.736  24.503  0.00  0.00    +0.063 A 
ATOM     12  C   UNL     1       7.762  -4.229  25.917  0.00  0.00    +0.258 A 
ATOM     13  O   UNL     1       8.661  -3.782  26.631  0.00  0.00    -0.267 OA
ATOM     14  N   UNL     1       6.904  -5.180  26.396  0.00  0.00    -0.322 N 
ATOM     15  H   UNL     1       7.039  -5.447  27.362  0.00  0.00    +0.169 HD
ATOM     16  C   UNL     1       5.887  -5.758  25.636  0.00  0.00    +0.049 A 
ATOM     17  C   UNL     1       5.751  -5.400  24.291  0.00  0.00    -0.001 A 
ATOM     18  C   UNL     1       4.737  -5.984  23.526  0.00  0.00    +0.010 A 
ATOM     19  C   UNL     1       3.861  -6.900  24.112  0.00  0.00    +0.001 A 
ATOM     20  C   UNL     1       3.993  -7.235  25.460  0.00  0.00    +0.002 A 
ATOM     21  C   UNL     1       5.015  -6.672  26.225  0.00  0.00    +0.026 A 
ATOM     22  C   UNL     1       6.609  -4.350  23.744  0.00  0.00    +0.025 A 
ENDBRANCH   7  11
BRANCH   1  23
ATOM     23  C   UNL     1       9.449   3.319  23.338  0.00  0.00    +0.119 C 
BRANCH  23  27
ATOM     24  C   UNL     1       7.514   6.367  22.463  0.00  0.00    +0.005 C 
ATOM     25  C   UNL     1       7.157   4.921  22.076  0.00  0.00    +0.020 C 
ATOM     26  C   UNL     1       7.122   3.990  23.293  0.00  0.00    +0.085 C 
ATOM     27  N   UNL     1       8.368   3.998  24.073  0.00  0.00    -0.298 NA
ATOM     28  C   UNL     1       8.715   5.368  24.482  0.00  0.00    +0.085 C 
ATOM     29  C   UNL     1       8.793   6.364  23.319  0.00  0.00    +0.020 C 
BRANCH  24  30
ATOM     30  C   UNL     1       6.381   7.108  23.203  0.00  0.00    +0.081 C 
BRANCH  30  31
ATOM     31  N   UNL     1       5.092   6.984  22.529  0.00  0.00    -0.330 NA
ATOM     32  H   UNL     1       4.367   6.757  23.206  0.00  0.00    +0.118 HD
ATOM     33  H   UNL     1       4.831   7.892  22.146  0.00  0.00    +0.118 HD
ENDBRANCH  30  31
ENDBRANCH  24  30
ENDBRANCH  23  27
ENDBRANCH   1  23
TORSDOF 5
ENDMDL
MODEL 7
REMARK VINA RESULT:      -7.3      2.890     10.171
REMARK  Name = 
REMARK  5 active torsions:
REMARK  status: ('A' for Active; 'I' for Inactive)
REMARK    1  A    between atoms: N_1  and  C_2
REMARK    2  A    between atoms: C_2  and  C_3
REMARK    3  A    between atoms: N_6  and  C_7
REMARK    4  A    between atoms: C_7  and  C_8
REMARK    5  A    between atoms: C_13  and  C_15
REMARK                            x       y       z     vdW  Elec       q    Type
REMARK                         _______ _______ _______ _____ _____    ______ ____
ROOT
ATOM      1  C   UNL     1       7.722  -4.249  25.569  0.00  0.00    -0.033 A 
ATOM      2  C   UNL     1       7.150  -4.270  24.291  0.00  0.00    +0.007 A 
ATOM      3  C   UNL     1       7.370  -3.235  23.377  0.00  0.00    +0.026 A 
ATOM      4  C   UNL     1       8.152  -2.159  23.806  0.00  0.00    +0.047 A 
ATOM      5  N   UNL     1       8.455  -0.976  23.177  0.00  0.00    -0.354 N 
ATOM      6  H   UNL     1       8.105  -0.708  22.261  0.00  0.00    +0.166 HD
ATOM      7  C   UNL     1       9.063  -0.105  24.057  0.00  0.00    +0.053 A 
ATOM      8  C   UNL     1       9.407  -0.855  25.168  0.00  0.00    +0.036 A 
ATOM      9  C   UNL     1       8.751  -2.111  25.060  0.00  0.00    +0.001 A 
ATOM     10  C   UNL     1       8.554  -3.181  25.948  0.00  0.00    +0.015 A 
ENDROOT
BRANCH   7  11
ATOM     11  C   UNL     1       9.104   1.287  23.741  0.00  0.00    +0.063 A 
ATOM     12  C   UNL     1       7.857   2.145  23.802  0.00  0.00    +0.258 A 
ATOM     13  O   UNL     1       6.727   1.658  23.869  0.00  0.00    -0.267 OA
ATOM     14  N   UNL     1       8.029   3.502  23.811  0.00  0.00    -0.322 N 
ATOM     15  H   UNL     1       7.186   4.051  23.915  0.00  0.00    +0.169 HD
ATOM     16  C   UNL     1       9.273   4.124  23.702  0.00  0.00    +0.049 A 
ATOM     17  C   UNL     1      10.416   3.341  23.518  0.00  0.00    -0.001 A 
ATOM     18  C   UNL     1      11.661   3.964  23.399  0.00  0.00    +0.010 A 
ATOM     19  C   UNL     1      11.757   5.354  23.486  0.00  0.00    +0.001 A 
ATOM     20  C   UNL     1      10.612   6.126  23.691  0.00  0.00    +0.002 A 
ATOM     21  C   UNL     1       9.363   5.513  23.789  0.00  0.00    +0.026 A 
ATOM     22  C   UNL     1      10.294   1.884  23.552  0.00  0.00    +0.025 A 
ENDBRANCH   7  11
BRANCH   1  23
ATOM     23  C   UNL     1       7.424  -5.347  26.566  0.00  0.00    +0.119 C 
BRANCH  23  27
ATOM     24  C   UNL     1       3.942  -6.021  27.671  0.00  0.00    +0.005 C 
ATOM     25  C   UNL     1       5.182  -6.868  28.006  0.00  0.00    +0.020 C 
ATOM     26  C   UNL     1       6.311  -6.025  28.608  0.00  0.00    +0.085 C 
ATOM     27  N   UNL     1       6.705  -4.886  27.766  0.00  0.00    -0.298 NA
ATOM     28  C   UNL     1       5.540  -4.042  27.458  0.00  0.00    +0.085 C 
ATOM     29  C   UNL     1       4.368  -4.804  26.829  0.00  0.00    +0.020 C 
BRANCH  24  30
ATOM     30  C   UNL     1       3.155  -5.557  28.914  0.00  0.00    +0.081 C 
BRANCH  30  31
ATOM     31  N   UNL     1       3.014  -6.609  29.917  0.00  0.00    -0.330 NA
ATOM     32  H   UNL     1       3.885  -7.131  29.996  0.00  0.00    +0.118 HD
ATOM     33  H   UNL     1       2.873  -6.178  30.830  0.00  0.00    +0.118 HD
ENDBRANCH  30  31
ENDBRANCH  24  30
ENDBRANCH  23  27
ENDBRANCH   1  23
TORSDOF 5
ENDMDL
MODEL 8
REMARK VINA RESULT:      -7.3      2.143      9.981
REMARK  Name = 
REMARK  5 active torsions:
REMARK  status: ('A' for Active; 'I' for Inactive)
REMARK    1  A    between atoms: N_1  and  C_2
REMARK    2  A    between atoms: C_2  and  C_3
REMARK    3  A    between atoms: N_6  and  C_7
REMARK    4  A    between atoms: C_7  and  C_8
REMARK    5  A    between atoms: C_13  and  C_15
REMARK                            x       y       z     vdW  Elec       q    Type
REMARK                         _______ _______ _______ _____ _____    ______ ____
ROOT
ATOM      1  C   UNL     1       4.480  -5.565  23.353  0.00  0.00    -0.033 A 
ATOM      2  C   UNL     1       5.306  -5.851  22.259  0.00  0.00    +0.007 A 
ATOM      3  C   UNL     1       6.553  -5.237  22.107  0.00  0.00    +0.026 A 
ATOM      4  C   UNL     1       6.923  -4.295  23.071  0.00  0.00    +0.047 A 
ATOM      5  N   UNL     1       8.023  -3.474  23.132  0.00  0.00    -0.354 N 
ATOM      6  H   UNL     1       8.748  -3.433  22.422  0.00  0.00    +0.166 HD
ATOM      7  C   UNL     1       7.870  -2.539  24.135  0.00  0.00    +0.053 A 
ATOM      8  C   UNL     1       6.794  -2.960  24.897  0.00  0.00    +0.036 A 
ATOM      9  C   UNL     1       6.139  -3.997  24.179  0.00  0.00    +0.001 A 
ATOM     10  C   UNL     1       4.909  -4.657  24.338  0.00  0.00    +0.015 A 
ENDROOT
BRANCH   7  11
ATOM     11  C   UNL     1       8.684  -1.366  24.122  0.00  0.00    +0.063 A 
ATOM     12  C   UNL     1       9.993  -1.325  23.361  0.00  0.00    +0.258 A 
ATOM     13  O   UNL     1      10.542  -2.345  22.941  0.00  0.00    -0.267 OA
ATOM     14  N   UNL     1      10.543  -0.095  23.124  0.00  0.00    -0.322 N 
ATOM     15  H   UNL     1      11.383  -0.090  22.561  0.00  0.00    +0.169 HD
ATOM     16  C   UNL     1       9.999   1.100  23.598  0.00  0.00    +0.049 A 
ATOM     17  C   UNL     1       8.860   1.059  24.408  0.00  0.00    -0.001 A 
ATOM     18  C   UNL     1       8.320   2.254  24.891  0.00  0.00    +0.010 A 
ATOM     19  C   UNL     1       8.905   3.474  24.546  0.00  0.00    +0.001 A 
ATOM     20  C   UNL     1      10.030   3.504  23.719  0.00  0.00    +0.002 A 
ATOM     21  C   UNL     1      10.587   2.315  23.251  0.00  0.00    +0.026 A 
ATOM     22  C   UNL     1       8.204  -0.226  24.650  0.00  0.00    +0.025 A 
ENDBRANCH   7  11
BRANCH   1  23
ATOM     23  C   UNL     1       3.109  -6.193  23.470  0.00  0.00    +0.119 C 
BRANCH  23  27
ATOM     24  C   UNL     1       0.753  -7.695  25.917  0.00  0.00    +0.005 C 
ATOM     25  C   UNL     1       0.630  -7.752  24.384  0.00  0.00    +0.020 C 
ATOM     26  C   UNL     1       1.907  -8.281  23.723  0.00  0.00    +0.085 C 
ATOM     27  N   UNL     1       3.114  -7.527  24.093  0.00  0.00    -0.298 NA
ATOM     28  C   UNL     1       3.270  -7.485  25.555  0.00  0.00    +0.085 C 
ATOM     29  C   UNL     1       2.043  -6.946  26.297  0.00  0.00    +0.020 C 
BRANCH  24  30
ATOM     30  C   UNL     1       0.724  -9.082  26.592  0.00  0.00    +0.081 C 
BRANCH  30  31
ATOM     31  N   UNL     1       1.065  -9.025  28.011  0.00  0.00    -0.330 NA
ATOM     32  H   UNL     1       0.293  -9.390  28.567  0.00  0.00    +0.118 HD
ATOM     33  H   UNL     1       1.848  -9.653  28.188  0.00  0.00    +0.118 HD
ENDBRANCH  30  31
ENDBRANCH  24  30
ENDBRANCH  23  27
ENDBRANCH   1  23
TORSDOF 5
ENDMDL
MODEL 9
REMARK VINA RESULT:      -7.2      2.407     10.179
REMARK  Name = 
REMARK  5 active torsions:
REMARK  status: ('A' for Active; 'I' for Inactive)
REMARK    1  A    between atoms: N_1  and  C_2
REMARK    2  A    between atoms: C_2  and  C_3
REMARK    3  A    between atoms: N_6  and  C_7
REMARK    4  A    between atoms: C_7  and  C_8
REMARK    5  A    between atoms: C_13  and  C_15
REMARK                            x       y       z     vdW  Elec       q    Type
REMARK                         _______ _______ _______ _____ _____    ______ ____
ROOT
ATOM      1  C   UNL     1       7.337  -4.051  24.145  0.00  0.00    -0.033 A 
ATOM      2  C   UNL     1       7.411  -3.915  22.753  0.00  0.00    +0.007 A 
ATOM      3  C   UNL     1       7.978  -2.783  22.161  0.00  0.00    +0.026 A 
ATOM      4  C   UNL     1       8.433  -1.774  23.015  0.00  0.00    +0.047 A 
ATOM      5  N   UNL     1       8.937  -0.528  22.729  0.00  0.00    -0.354 N 
ATOM      6  H   UNL     1       9.031  -0.150  21.790  0.00  0.00    +0.166 HD
ATOM      7  C   UNL     1       9.040   0.225  23.879  0.00  0.00    +0.053 A 
ATOM      8  C   UNL     1       8.873  -0.654  24.935  0.00  0.00    +0.036 A 
ATOM      9  C   UNL     1       8.393  -1.881  24.401  0.00  0.00    +0.001 A 
ATOM     10  C   UNL     1       7.860  -3.045  24.977  0.00  0.00    +0.015 A 
ENDROOT
BRANCH   7  11
ATOM     11  C   UNL     1       9.160   1.644  23.773  0.00  0.00    +0.063 A 
ATOM     12  C   UNL     1       8.035   2.564  24.199  0.00  0.00    +0.258 A 
ATOM     13  O   UNL     1       6.893   2.152  24.410  0.00  0.00    -0.267 OA
ATOM     14  N   UNL     1       8.338   3.885  24.377  0.00  0.00    -0.322 N 
ATOM     15  H   UNL     1       7.585   4.467  24.722  0.00  0.00    +0.169 HD
ATOM     16  C   UNL     1       9.597   4.431  24.124  0.00  0.00    +0.049 A 
ATOM     17  C   UNL     1      10.607   3.612  23.608  0.00  0.00    -0.001 A 
ATOM     18  C   UNL     1      11.866   4.159  23.346  0.00  0.00    +0.010 A 
ATOM     19  C   UNL     1      12.111   5.506  23.619  0.00  0.00    +0.001 A 
ATOM     20  C   UNL     1      11.103   6.310  24.153  0.00  0.00    +0.002 A 
ATOM     21  C   UNL     1       9.838   5.776  24.398  0.00  0.00    +0.026 A 
ATOM     22  C   UNL     1      10.350   2.181  23.449  0.00  0.00    +0.025 A 
ENDBRANCH   7  11
BRANCH   1  23
ATOM     23  C   UNL     1       6.666  -5.255  24.768  0.00  0.00    +0.119 C 
BRANCH  23  27
ATOM     24  C   UNL     1       3.253  -6.387  23.835  0.00  0.00    +0.005 C 
ATOM     25  C   UNL     1       4.222  -7.109  24.787  0.00  0.00    +0.020 C 
ATOM     26  C   UNL     1       4.735  -6.187  25.897  0.00  0.00    +0.085 C 
ATOM     27  N   UNL     1       5.366  -4.958  25.393  0.00  0.00    -0.298 NA
ATOM     28  C   UNL     1       4.446  -4.232  24.504  0.00  0.00    +0.085 C 
ATOM     29  C   UNL     1       3.900  -5.077  23.348  0.00  0.00    +0.020 C 
BRANCH  24  30
ATOM     30  C   UNL     1       1.872  -6.098  24.459  0.00  0.00    +0.081 C 
BRANCH  30  31
ATOM     31  N   UNL     1       1.047  -5.229  23.625  0.00  0.00    -0.330 NA
ATOM     32  H   UNL     1       0.063  -5.372  23.843  0.00  0.00    +0.118 HD
ATOM     33  H   UNL     1       1.240  -4.258  23.866  0.00  0.00    +0.118 HD
ENDBRANCH  30  31
ENDBRANCH  24  30
ENDBRANCH  23  27
ENDBRANCH   1  23
TORSDOF 5
ENDMDL
