MODEL 1
REMARK VINA RESULT:      -5.6      0.000      0.000
REMARK  Name = 
REMARK  6 active torsions:
REMARK  status: ('A' for Active; 'I' for Inactive)
REMARK    1  A    between atoms: O_1  and  C_2
REMARK    2  A    between atoms: C_5  and  C_16
REMARK    3  A    between atoms: C_9  and  O_11
REMARK    4  A    between atoms: O_11  and  S_12
REMARK    5  A    between atoms: S_12  and  O_13
REMARK    6  A    between atoms: C_16  and  O_17
REMARK                            x       y       z     vdW  Elec       q    Type
REMARK                         _______ _______ _______ _____ _____    ______ ____
ROOT
ATOM      1  C   UNL     1       9.696  -1.077  24.582  0.00  0.00    +0.151 C 
ATOM      2  C   UNL     1       9.366  -2.303  23.707  0.00  0.00    +0.206 C 
ATOM      3  C   UNL     1       9.816  -2.037  22.265  0.00  0.00    +0.197 C 
ATOM      4  O   UNL     1       9.310  -0.797  21.759  0.00  0.00    -0.363 OA
ATOM      5  C   UNL     1       9.798   0.321  22.521  0.00  0.00    +0.229 C 
ATOM      6  C   UNL     1       9.247   0.229  23.935  0.00  0.00    +0.077 C 
ENDROOT
BRANCH   1   7
ATOM      7  O   UNL     1       9.099  -1.201  25.875  0.00  0.00    -0.389 OA
ATOM      8  H   UNL     1       8.135  -1.093  25.793  0.00  0.00    +0.210 HD
ENDBRANCH   1   7
BRANCH   5   9
ATOM      9  C   UNL     1       9.341   1.613  21.845  0.00  0.00    +0.334 C 
ATOM     10  O   UNL     1       8.196   1.843  21.488  0.00  0.00    -0.248 OA
BRANCH   9  11
ATOM     11  O   UNL     1      10.359   2.495  21.684  0.00  0.00    -0.479 OA
ATOM     12  H   UNL     1      11.142   2.160  22.179  0.00  0.00    +0.295 HD
ENDBRANCH   9  11
ENDBRANCH   5   9
BRANCH   2  13
ATOM     13  O   UNL     1      10.036  -3.430  24.273  0.00  0.00    -0.208 OA
BRANCH  13  14
ATOM     14  S   UNL     1       9.157  -4.643  24.887  0.00  0.00    +0.208 S 
ATOM     15  O   UNL     1       8.434  -5.269  23.805  0.00  0.00    -0.118 OA
ATOM     16  O   UNL     1       8.494  -4.153  26.073  0.00  0.00    -0.118 OA
BRANCH  14  17
ATOM     17  O   UNL     1      10.286  -5.670  25.394  0.00  0.00    -0.231 OA
ATOM     18  H   UNL     1      11.058  -5.150  25.692  0.00  0.00    +0.247 HD
ENDBRANCH  14  17
ENDBRANCH  13  14
ENDBRANCH   2  13
TORSDOF 6
ENDMDL
MODEL 2
REMARK VINA RESULT:      -5.3      2.535      5.744
REMARK  Name = 
REMARK  6 active torsions:
REMARK  status: ('A' for Active; 'I' for Inactive)
REMARK    1  A    between atoms: O_1  and  C_2
REMARK    2  A    between atoms: C_5  and  C_16
REMARK    3  A    between atoms: C_9  and  O_11
REMARK    4  A    between atoms: O_11  and  S_12
REMARK    5  A    between atoms: S_12  and  O_13
REMARK    6  A    between atoms: C_16  and  O_17
REMARK                            x       y       z     vdW  Elec       q    Type
REMARK                         _______ _______ _______ _____ _____    ______ ____
ROOT
ATOM      1  C   UNL     1       8.621  -1.359  25.442  0.00  0.00    +0.151 C 
ATOM      2  C   UNL     1       9.703  -1.129  24.369  0.00  0.00    +0.206 C 
ATOM      3  C   UNL     1       9.770  -2.350  23.441  0.00  0.00    +0.197 C 
ATOM      4  O   UNL     1       9.910  -3.575  24.168  0.00  0.00    -0.363 OA
ATOM      5  C   UNL     1       8.779  -3.811  25.025  0.00  0.00    +0.229 C 
ATOM      6  C   UNL     1       8.740  -2.732  26.095  0.00  0.00    +0.077 C 
ENDROOT
BRANCH   1   7
ATOM      7  O   UNL     1       8.679  -0.343  26.447  0.00  0.00    -0.389 OA
ATOM      8  H   UNL     1       8.787   0.523  26.017  0.00  0.00    +0.210 HD
ENDBRANCH   1   7
BRANCH   5   9
ATOM      9  C   UNL     1       8.921  -5.195  25.657  0.00  0.00    +0.334 C 
ATOM     10  O   UNL     1       8.059  -5.744  26.326  0.00  0.00    -0.248 OA
BRANCH   9  11
ATOM     11  O   UNL     1      10.125  -5.759  25.391  0.00  0.00    -0.479 OA
ATOM     12  H   UNL     1      10.352  -5.577  24.449  0.00  0.00    +0.295 HD
ENDBRANCH   9  11
ENDBRANCH   5   9
BRANCH   2  13
ATOM     13  O   UNL     1       9.359   0.060  23.656  0.00  0.00    -0.208 OA
BRANCH  13  14
ATOM     14  S   UNL     1      10.250   1.395  23.874  0.00  0.00    +0.208 S 
ATOM     15  O   UNL     1      10.253   2.142  22.638  0.00  0.00    -0.118 OA
ATOM     16  O   UNL     1      11.472   1.008  24.542  0.00  0.00    -0.118 OA
BRANCH  14  17
ATOM     17  O   UNL     1       9.388   2.217  24.953  0.00  0.00    -0.231 OA
ATOM     18  H   UNL     1       9.865   3.044  25.159  0.00  0.00    +0.247 HD
ENDBRANCH  14  17
ENDBRANCH  13  14
ENDBRANCH   2  13
TORSDOF 6
ENDMDL
MODEL 3
REMARK VINA RESULT:      -5.2      3.015      5.872
REMARK  Name = 
REMARK  6 active torsions:
REMARK  status: ('A' for Active; 'I' for Inactive)
REMARK    1  A    between atoms: O_1  and  C_2
REMARK    2  A    between atoms: C_5  and  C_16
REMARK    3  A    between atoms: C_9  and  O_11
REMARK    4  A    between atoms: O_11  and  S_12
REMARK    5  A    between atoms: S_12  and  O_13
REMARK    6  A    between atoms: C_16  and  O_17
REMARK                            x       y       z     vdW  Elec       q    Type
REMARK                         _______ _______ _______ _____ _____    ______ ____
ROOT
ATOM      1  C   UNL     1       8.432  -3.478  23.894  0.00  0.00    +0.151 C 
ATOM      2  C   UNL     1       8.156  -2.518  22.719  0.00  0.00    +0.206 C 
ATOM      3  C   UNL     1       6.669  -2.580  22.348  0.00  0.00    +0.197 C 
ATOM      4  O   UNL     1       6.219  -3.922  22.132  0.00  0.00    -0.363 OA
ATOM      5  C   UNL     1       6.346  -4.718  23.323  0.00  0.00    +0.229 C 
ATOM      6  C   UNL     1       7.821  -4.856  23.666  0.00  0.00    +0.077 C 
ENDROOT
BRANCH   1   7
ATOM      7  O   UNL     1       9.837  -3.608  24.124  0.00  0.00    -0.389 OA
ATOM      8  H   UNL     1      10.125  -4.495  23.844  0.00  0.00    +0.210 HD
ENDBRANCH   1   7
BRANCH   5   9
ATOM      9  C   UNL     1       5.719  -6.088  23.070  0.00  0.00    +0.334 C 
ATOM     10  O   UNL     1       4.941  -6.646  23.828  0.00  0.00    -0.248 OA
BRANCH   9  11
ATOM     11  O   UNL     1       6.122  -6.626  21.891  0.00  0.00    -0.479 OA
ATOM     12  H   UNL     1       7.033  -6.304  21.698  0.00  0.00    +0.295 HD
ENDBRANCH   9  11
ENDBRANCH   5   9
BRANCH   2  13
ATOM     13  O   UNL     1       8.546  -1.208  23.131  0.00  0.00    -0.208 OA
BRANCH  13  14
ATOM     14  S   UNL     1       9.785  -0.482  22.382  0.00  0.00    +0.208 S 
ATOM     15  O   UNL     1      10.596   0.173  23.381  0.00  0.00    -0.118 OA
ATOM     16  O   UNL     1       9.258   0.223  21.236  0.00  0.00    -0.118 OA
BRANCH  14  17
ATOM     17  O   UNL     1      10.618  -1.728  21.800  0.00  0.00    -0.231 OA
ATOM     18  H   UNL     1      11.055  -2.178  22.549  0.00  0.00    +0.247 HD
ENDBRANCH  14  17
ENDBRANCH  13  14
ENDBRANCH   2  13
TORSDOF 6
ENDMDL
MODEL 4
REMARK VINA RESULT:      -5.1      1.295      2.064
REMARK  Name = 
REMARK  6 active torsions:
REMARK  status: ('A' for Active; 'I' for Inactive)
REMARK    1  A    between atoms: O_1  and  C_2
REMARK    2  A    between atoms: C_5  and  C_16
REMARK    3  A    between atoms: C_9  and  O_11
REMARK    4  A    between atoms: O_11  and  S_12
REMARK    5  A    between atoms: S_12  and  O_13
REMARK    6  A    between atoms: C_16  and  O_17
REMARK                            x       y       z     vdW  Elec       q    Type
REMARK                         _______ _______ _______ _____ _____    ______ ____
ROOT
ATOM      1  C   UNL     1       8.316  -1.724  22.962  0.00  0.00    +0.151 C 
ATOM      2  C   UNL     1       9.130  -2.276  24.149  0.00  0.00    +0.206 C 
ATOM      3  C   UNL     1       9.545  -1.119  25.066  0.00  0.00    +0.197 C 
ATOM      4  O   UNL     1      10.191  -0.062  24.348  0.00  0.00    -0.363 OA
ATOM      5  C   UNL     1       9.314   0.524  23.370  0.00  0.00    +0.229 C 
ATOM      6  C   UNL     1       8.990  -0.520  22.313  0.00  0.00    +0.077 C 
ENDROOT
BRANCH   1   7
ATOM      7  O   UNL     1       8.099  -2.740  21.979  0.00  0.00    -0.389 OA
ATOM      8  H   UNL     1       8.618  -3.528  22.217  0.00  0.00    +0.210 HD
ENDBRANCH   1   7
BRANCH   5   9
ATOM      9  C   UNL     1      10.010   1.731  22.744  0.00  0.00    +0.334 C 
ATOM     10  O   UNL     1      10.762   2.486  23.342  0.00  0.00    -0.248 OA
BRANCH   9  11
ATOM     11  O   UNL     1       9.703   1.876  21.432  0.00  0.00    -0.479 OA
ATOM     12  H   UNL     1      10.320   2.537  21.039  0.00  0.00    +0.295 HD
ENDBRANCH   9  11
ENDBRANCH   5   9
BRANCH   2  13
ATOM     13  O   UNL     1       8.310  -3.225  24.831  0.00  0.00    -0.208 OA
BRANCH  13  14
ATOM     14  S   UNL     1       8.699  -4.796  24.763  0.00  0.00    +0.208 S 
ATOM     15  O   UNL     1       8.262  -5.315  23.489  0.00  0.00    -0.118 OA
ATOM     16  O   UNL     1       8.311  -5.403  26.015  0.00  0.00    -0.118 OA
BRANCH  14  17
ATOM     17  O   UNL     1      10.307  -4.757  24.761  0.00  0.00    -0.231 OA
ATOM     18  H   UNL     1      10.634  -5.671  24.652  0.00  0.00    +0.247 HD
ENDBRANCH  14  17
ENDBRANCH  13  14
ENDBRANCH   2  13
TORSDOF 6
ENDMDL
MODEL 5
REMARK VINA RESULT:      -5.1      2.566      5.767
REMARK  Name = 
REMARK  6 active torsions:
REMARK  status: ('A' for Active; 'I' for Inactive)
REMARK    1  A    between atoms: O_1  and  C_2
REMARK    2  A    between atoms: C_5  and  C_16
REMARK    3  A    between atoms: C_9  and  O_11
REMARK    4  A    between atoms: O_11  and  S_12
REMARK    5  A    between atoms: S_12  and  O_13
REMARK    6  A    between atoms: C_16  and  O_17
REMARK                            x       y       z     vdW  Elec       q    Type
REMARK                         _______ _______ _______ _____ _____    ______ ____
ROOT
ATOM      1  C   UNL     1       8.190  -1.938  25.225  0.00  0.00    +0.151 C 
ATOM      2  C   UNL     1       8.661  -2.293  23.801  0.00  0.00    +0.206 C 
ATOM      3  C   UNL     1       7.874  -3.506  23.289  0.00  0.00    +0.197 C 
ATOM      4  O   UNL     1       7.906  -4.601  24.211  0.00  0.00    -0.363 OA
ATOM      5  C   UNL     1       7.293  -4.252  25.465  0.00  0.00    +0.229 C 
ATOM      6  C   UNL     1       8.121  -3.164  26.130  0.00  0.00    +0.077 C 
ENDROOT
BRANCH   1   7
ATOM      7  O   UNL     1       9.045  -0.956  25.813  0.00  0.00    -0.389 OA
ATOM      8  H   UNL     1       9.579  -1.375  26.510  0.00  0.00    +0.210 HD
ENDBRANCH   1   7
BRANCH   5   9
ATOM      9  C   UNL     1       7.229  -5.499  26.346  0.00  0.00    +0.334 C 
ATOM     10  O   UNL     1       6.230  -6.182  26.511  0.00  0.00    -0.248 OA
BRANCH   9  11
ATOM     11  O   UNL     1       8.421  -5.773  26.933  0.00  0.00    -0.479 OA
ATOM     12  H   UNL     1       8.780  -4.937  27.313  0.00  0.00    +0.295 HD
ENDBRANCH   9  11
ENDBRANCH   5   9
BRANCH   2  13
ATOM     13  O   UNL     1       8.456  -1.143  22.979  0.00  0.00    -0.208 OA
BRANCH  13  14
ATOM     14  S   UNL     1       9.738  -0.412  22.312  0.00  0.00    +0.208 S 
ATOM     15  O   UNL     1      10.627  -0.002  23.374  0.00  0.00    -0.118 OA
ATOM     16  O   UNL     1       9.252   0.513  21.315  0.00  0.00    -0.118 OA
BRANCH  14  17
ATOM     17  O   UNL     1      10.443  -1.613  21.506  0.00  0.00    -0.231 OA
ATOM     18  H   UNL     1      11.375  -1.666  21.794  0.00  0.00    +0.247 HD
ENDBRANCH  14  17
ENDBRANCH  13  14
ENDBRANCH   2  13
TORSDOF 6
ENDMDL
MODEL 6
REMARK VINA RESULT:      -5.0      2.557      3.681
REMARK  Name = 
REMARK  6 active torsions:
REMARK  status: ('A' for Active; 'I' for Inactive)
REMARK    1  A    between atoms: O_1  and  C_2
REMARK    2  A    between atoms: C_5  and  C_16
REMARK    3  A    between atoms: C_9  and  O_11
REMARK    4  A    between atoms: O_11  and  S_12
REMARK    5  A    between atoms: S_12  and  O_13
REMARK    6  A    between atoms: C_16  and  O_17
REMARK                            x       y       z     vdW  Elec       q    Type
REMARK                         _______ _______ _______ _____ _____    ______ ____
ROOT
ATOM      1  C   UNL     1       6.995  -2.230  23.620  0.00  0.00    +0.151 C 
ATOM      2  C   UNL     1       7.684  -3.578  23.325  0.00  0.00    +0.206 C 
ATOM      3  C   UNL     1       8.951  -3.702  24.180  0.00  0.00    +0.197 C 
ATOM      4  O   UNL     1       9.807  -2.561  24.050  0.00  0.00    -0.363 OA
ATOM      5  C   UNL     1       9.157  -1.361  24.506  0.00  0.00    +0.229 C 
ATOM      6  C   UNL     1       7.978  -1.065  23.593  0.00  0.00    +0.077 C 
ENDROOT
BRANCH   1   7
ATOM      7  O   UNL     1       5.937  -1.987  22.690  0.00  0.00    -0.389 OA
ATOM      8  H   UNL     1       5.159  -1.656  23.173  0.00  0.00    +0.210 HD
ENDBRANCH   1   7
BRANCH   5   9
ATOM      9  C   UNL     1      10.166  -0.214  24.477  0.00  0.00    +0.334 C 
ATOM     10  O   UNL     1      10.812   0.117  23.495  0.00  0.00    -0.248 OA
BRANCH   9  11
ATOM     11  O   UNL     1      10.268   0.409  25.677  0.00  0.00    -0.479 OA
ATOM     12  H   UNL     1       9.386   0.784  25.909  0.00  0.00    +0.295 HD
ENDBRANCH   9  11
ENDBRANCH   5   9
BRANCH   2  13
ATOM     13  O   UNL     1       6.745  -4.615  23.614  0.00  0.00    -0.208 OA
BRANCH  13  14
ATOM     14  S   UNL     1       6.073  -5.434  22.389  0.00  0.00    +0.208 S 
ATOM     15  O   UNL     1       7.134  -5.969  21.569  0.00  0.00    -0.118 OA
ATOM     16  O   UNL     1       5.012  -4.620  21.841  0.00  0.00    -0.118 OA
BRANCH  14  17
ATOM     17  O   UNL     1       5.357  -6.661  23.142  0.00  0.00    -0.231 OA
ATOM     18  H   UNL     1       4.967  -6.323  23.972  0.00  0.00    +0.247 HD
ENDBRANCH  14  17
ENDBRANCH  13  14
ENDBRANCH   2  13
TORSDOF 6
ENDMDL
MODEL 7
REMARK VINA RESULT:      -5.0      2.377      2.831
REMARK  Name = 
REMARK  6 active torsions:
REMARK  status: ('A' for Active; 'I' for Inactive)
REMARK    1  A    between atoms: O_1  and  C_2
REMARK    2  A    between atoms: C_5  and  C_16
REMARK    3  A    between atoms: C_9  and  O_11
REMARK    4  A    between atoms: O_11  and  S_12
REMARK    5  A    between atoms: S_12  and  O_13
REMARK    6  A    between atoms: C_16  and  O_17
REMARK                            x       y       z     vdW  Elec       q    Type
REMARK                         _______ _______ _______ _____ _____    ______ ____
ROOT
ATOM      1  C   UNL     1       7.467  -1.038  23.450  0.00  0.00    +0.151 C 
ATOM      2  C   UNL     1       7.954  -2.072  22.416  0.00  0.00    +0.206 C 
ATOM      3  C   UNL     1       9.460  -1.893  22.185  0.00  0.00    +0.197 C 
ATOM      4  O   UNL     1       9.804  -0.538  21.873  0.00  0.00    -0.363 OA
ATOM      5  C   UNL     1       9.477   0.350  22.956  0.00  0.00    +0.229 C 
ATOM      6  C   UNL     1       7.968   0.368  23.138  0.00  0.00    +0.077 C 
ENDROOT
BRANCH   1   7
ATOM      7  O   UNL     1       6.039  -1.033  23.528  0.00  0.00    -0.389 OA
ATOM      8  H   UNL     1       5.671  -1.056  22.627  0.00  0.00    +0.210 HD
ENDBRANCH   1   7
BRANCH   5   9
ATOM      9  C   UNL     1       9.998   1.747  22.621  0.00  0.00    +0.334 C 
ATOM     10  O   UNL     1      10.600   2.469  23.401  0.00  0.00    -0.248 OA
BRANCH   9  11
ATOM     11  O   UNL     1       9.720   2.105  21.342  0.00  0.00    -0.479 OA
ATOM     12  H   UNL     1      10.507   2.566  20.970  0.00  0.00    +0.295 HD
ENDBRANCH   9  11
ENDBRANCH   5   9
BRANCH   2  13
ATOM     13  O   UNL     1       7.646  -3.370  22.924  0.00  0.00    -0.208 OA
BRANCH  13  14
ATOM     14  S   UNL     1       6.376  -4.173  22.319  0.00  0.00    +0.208 S 
ATOM     15  O   UNL     1       5.665  -3.286  21.429  0.00  0.00    -0.118 OA
ATOM     16  O   UNL     1       5.722  -4.855  23.411  0.00  0.00    -0.118 OA
BRANCH  14  17
ATOM     17  O   UNL     1       7.077  -5.315  21.431  0.00  0.00    -0.231 OA
ATOM     18  H   UNL     1       6.384  -5.932  21.125  0.00  0.00    +0.247 HD
ENDBRANCH  14  17
ENDBRANCH  13  14
ENDBRANCH   2  13
TORSDOF 6
ENDMDL
MODEL 8
REMARK VINA RESULT:      -4.9      2.566      5.849
REMARK  Name = 
REMARK  6 active torsions:
REMARK  status: ('A' for Active; 'I' for Inactive)
REMARK    1  A    between atoms: O_1  and  C_2
REMARK    2  A    between atoms: C_5  and  C_16
REMARK    3  A    between atoms: C_9  and  O_11
REMARK    4  A    between atoms: O_11  and  S_12
REMARK    5  A    between atoms: S_12  and  O_13
REMARK    6  A    between atoms: C_16  and  O_17
REMARK                            x       y       z     vdW  Elec       q    Type
REMARK                         _______ _______ _______ _____ _____    ______ ____
ROOT
ATOM      1  C   UNL     1       7.128  -2.378  23.678  0.00  0.00    +0.151 C 
ATOM      2  C   UNL     1       8.328  -1.425  23.514  0.00  0.00    +0.206 C 
ATOM      3  C   UNL     1       9.614  -2.246  23.348  0.00  0.00    +0.197 C 
ATOM      4  O   UNL     1       9.771  -3.221  24.385  0.00  0.00    -0.363 OA
ATOM      5  C   UNL     1       8.701  -4.183  24.370  0.00  0.00    +0.229 C 
ATOM      6  C   UNL     1       7.399  -3.473  24.703  0.00  0.00    +0.077 C 
ENDROOT
BRANCH   1   7
ATOM      7  O   UNL     1       5.952  -1.654  24.048  0.00  0.00    -0.389 OA
ATOM      8  H   UNL     1       6.119  -0.701  23.944  0.00  0.00    +0.210 HD
ENDBRANCH   1   7
BRANCH   5   9
ATOM      9  C   UNL     1       9.003  -5.271  25.399  0.00  0.00    +0.334 C 
ATOM     10  O   UNL     1       8.178  -5.761  26.154  0.00  0.00    -0.248 OA
BRANCH   9  11
ATOM     11  O   UNL     1      10.308  -5.643  25.384  0.00  0.00    -0.479 OA
ATOM     12  H   UNL     1      10.370  -6.543  24.987  0.00  0.00    +0.295 HD
ENDBRANCH   9  11
ENDBRANCH   5   9
BRANCH   2  13
ATOM     13  O   UNL     1       8.075  -0.602  22.374  0.00  0.00    -0.208 OA
BRANCH  13  14
ATOM     14  S   UNL     1       7.793   0.978  22.590  0.00  0.00    +0.208 S 
ATOM     15  O   UNL     1       8.172   1.673  21.382  0.00  0.00    -0.118 OA
ATOM     16  O   UNL     1       8.314   1.348  23.886  0.00  0.00    -0.118 OA
BRANCH  14  17
ATOM     17  O   UNL     1       6.191   1.032  22.716  0.00  0.00    -0.231 OA
ATOM     18  H   UNL     1       5.848   0.121  22.632  0.00  0.00    +0.247 HD
ENDBRANCH  14  17
ENDBRANCH  13  14
ENDBRANCH   2  13
TORSDOF 6
ENDMDL
MODEL 9
REMARK VINA RESULT:      -4.8      3.755      6.823
REMARK  Name = 
REMARK  6 active torsions:
REMARK  status: ('A' for Active; 'I' for Inactive)
REMARK    1  A    between atoms: O_1  and  C_2
REMARK    2  A    between atoms: C_5  and  C_16
REMARK    3  A    between atoms: C_9  and  O_11
REMARK    4  A    between atoms: O_11  and  S_12
REMARK    5  A    between atoms: S_12  and  O_13
REMARK    6  A    between atoms: C_16  and  O_17
REMARK                            x       y       z     vdW  Elec       q    Type
REMARK                         _______ _______ _______ _____ _____    ______ ____
ROOT
ATOM      1  C   UNL     1       9.791   2.285  23.006  0.00  0.00    +0.151 C 
ATOM      2  C   UNL     1       8.366   2.861  22.886  0.00  0.00    +0.206 C 
ATOM      3  C   UNL     1       7.343   1.769  23.223  0.00  0.00    +0.197 C 
ATOM      4  O   UNL     1       7.561   0.570  22.470  0.00  0.00    -0.363 OA
ATOM      5  C   UNL     1       8.845  -0.009  22.762  0.00  0.00    +0.229 C 
ATOM      6  C   UNL     1       9.932   0.945  22.292  0.00  0.00    +0.077 C 
ENDROOT
BRANCH   1   7
ATOM      7  O   UNL     1      10.756   3.206  22.493  0.00  0.00    -0.389 OA
ATOM      8  H   UNL     1      11.098   3.749  23.225  0.00  0.00    +0.210 HD
ENDBRANCH   1   7
BRANCH   5   9
ATOM      9  C   UNL     1       8.954  -1.351  22.041  0.00  0.00    +0.334 C 
ATOM     10  O   UNL     1       8.103  -2.227  22.072  0.00  0.00    -0.248 OA
BRANCH   9  11
ATOM     11  O   UNL     1      10.115  -1.470  21.350  0.00  0.00    -0.479 OA
ATOM     12  H   UNL     1      10.674  -0.681  21.544  0.00  0.00    +0.295 HD
ENDBRANCH   9  11
ENDBRANCH   5   9
BRANCH   2  13
ATOM     13  O   UNL     1       8.271   3.970  23.780  0.00  0.00    -0.208 OA
BRANCH  13  14
ATOM     14  S   UNL     1       7.983   5.446  23.178  0.00  0.00    +0.208 S 
ATOM     15  O   UNL     1       7.441   6.267  24.235  0.00  0.00    -0.118 OA
ATOM     16  O   UNL     1       7.312   5.283  21.909  0.00  0.00    -0.118 OA
BRANCH  14  17
ATOM     17  O   UNL     1       9.462   5.979  22.840  0.00  0.00    -0.231 OA
ATOM     18  H   UNL     1      10.071   5.641  23.525  0.00  0.00    +0.247 HD
ENDBRANCH  14  17
ENDBRANCH  13  14
ENDBRANCH   2  13
TORSDOF 6
ENDMDL
