MODEL 1
REMARK VINA RESULT:      -7.2      0.000      0.000
REMARK  Name = 
REMARK  14 active torsions:
REMARK  status: ('A' for Active; 'I' for Inactive)
REMARK    1  A    between atoms: C_4  and  O_6
REMARK    2  A    between atoms: C_7  and  C_9
REMARK    3  A    between atoms: C_10  and  C_11
REMARK    4  A    between atoms: C_11  and  O_13
REMARK    5  A    between atoms: C_11  and  C_14
REMARK    6  A    between atoms: C_14  and  C_15
REMARK    7  A    between atoms: C_14  and  C_16
REMARK    8  A    between atoms: C_16  and  C_17
REMARK    9  A    between atoms: C_18  and  C_19
REMARK   10  A    between atoms: C_25  and  C_26
REMARK   11  A    between atoms: C_26  and  C_27
REMARK   12  A    between atoms: C_27  and  C_28
REMARK   13  A    between atoms: C_28  and  C_29
REMARK   14  A    between atoms: C_29  and  O_30
REMARK                            x       y       z     vdW  Elec       q    Type
REMARK                         _______ _______ _______ _____ _____    ______ ____
ROOT
ATOM      1  C   UNL     1      10.260  -0.953  22.713  0.00  0.00    -0.001 C 
ATOM      2  C   UNL     1      10.582   0.357  23.421  0.00  0.00    +0.034 C 
ATOM      3  C   UNL     1       9.774   1.370  22.661  0.00  0.00    -0.073 C 
ATOM      4  C   UNL     1      10.005   2.690  22.670  0.00  0.00    -0.028 C 
ATOM      5  C   UNL     1       8.701   0.692  21.845  0.00  0.00    +0.035 C 
ATOM      6  C   UNL     1       8.830  -0.790  22.205  0.00  0.00    +0.006 C 
ATOM      7  C   UNL     1       7.936  -1.250  23.380  0.00  0.00    +0.044 C 
ATOM      8  C   UNL     1       8.837  -2.091  24.308  0.00  0.00    +0.122 C 
ATOM      9  C   UNL     1      10.206  -2.164  23.632  0.00  0.00    +0.036 C 
ENDROOT
BRANCH   7  10
ATOM     10  C   UNL     1       6.762  -2.040  22.855  0.00  0.00    -0.022 C 
ATOM     11  C   UNL     1       6.914  -3.122  22.077  0.00  0.00    +0.000 C 
BRANCH  11  12
ATOM     12  C   UNL     1       5.798  -4.038  21.670  0.00  0.00    +0.141 C 
BRANCH  12  13
ATOM     13  C   UNL     1       5.959  -5.466  22.246  0.00  0.00    +0.030 C 
ATOM     14  C   UNL     1       7.425  -5.923  22.302  0.00  0.00    +0.011 C 
BRANCH  13  15
ATOM     15  C   UNL     1       5.313  -5.609  23.639  0.00  0.00    +0.095 C 
BRANCH  15  16
ATOM     16  C   UNL     1       6.346  -5.362  24.726  0.00  0.00    -0.102 C 
ATOM     17  C   UNL     1       7.233  -5.151  25.657  0.00  0.00    -0.106 C 
ATOM     18  C   UNL     1       8.227  -4.913  26.704  0.00  0.00    +0.106 C 
ENDBRANCH  15  16
ENDBRANCH  13  15
ENDBRANCH  12  13
BRANCH  12  19
ATOM     19  O   UNL     1       5.782  -4.088  20.248  0.00  0.00    -0.387 OA
ATOM     20  H   UNL     1       6.430  -3.430  19.943  0.00  0.00    +0.210 HD
ENDBRANCH  12  19
ENDBRANCH  11  12
ENDBRANCH   7  10
BRANCH   8  21
ATOM     21  O   UNL     1       8.940  -1.425  25.568  0.00  0.00    -0.391 OA
ATOM     22  H   UNL     1       9.806  -0.986  25.602  0.00  0.00    +0.210 HD
ENDBRANCH   8  21
BRANCH   4  23
ATOM     23  C   UNL     1      11.106   3.348  23.462  0.00  0.00    +0.027 C 
BRANCH  23  24
ATOM     24  C   UNL     1      10.935   4.867  23.558  0.00  0.00    +0.015 C 
BRANCH  24  25
ATOM     25  C   UNL     1      12.247   5.591  23.850  0.00  0.00    +0.121 C 
BRANCH  25  26
ATOM     26  C   UNL     1      13.260   5.394  22.748  0.00  0.00    +0.305 C 
ATOM     27  O   UNL     1      13.072   5.608  21.562  0.00  0.00    -0.251 OA
BRANCH  26  28
ATOM     28  O   UNL     1      14.443   4.941  23.224  0.00  0.00    -0.481 OA
ATOM     29  H   UNL     1      15.157   4.940  22.557  0.00  0.00    +0.295 HD
ENDBRANCH  26  28
ENDBRANCH  25  26
ENDBRANCH  24  25
ENDBRANCH  23  24
ENDBRANCH   4  23
TORSDOF 12
ENDMDL
MODEL 2
REMARK VINA RESULT:      -6.9      1.535      3.275
REMARK  Name = 
REMARK  14 active torsions:
REMARK  status: ('A' for Active; 'I' for Inactive)
REMARK    1  A    between atoms: C_4  and  O_6
REMARK    2  A    between atoms: C_7  and  C_9
REMARK    3  A    between atoms: C_10  and  C_11
REMARK    4  A    between atoms: C_11  and  O_13
REMARK    5  A    between atoms: C_11  and  C_14
REMARK    6  A    between atoms: C_14  and  C_15
REMARK    7  A    between atoms: C_14  and  C_16
REMARK    8  A    between atoms: C_16  and  C_17
REMARK    9  A    between atoms: C_18  and  C_19
REMARK   10  A    between atoms: C_25  and  C_26
REMARK   11  A    between atoms: C_26  and  C_27
REMARK   12  A    between atoms: C_27  and  C_28
REMARK   13  A    between atoms: C_28  and  C_29
REMARK   14  A    between atoms: C_29  and  O_30
REMARK                            x       y       z     vdW  Elec       q    Type
REMARK                         _______ _______ _______ _____ _____    ______ ____
ROOT
ATOM      1  C   UNL     1       8.114   0.174  23.539  0.00  0.00    -0.001 C 
ATOM      2  C   UNL     1       8.986   1.250  22.902  0.00  0.00    +0.034 C 
ATOM      3  C   UNL     1      10.049   1.491  23.936  0.00  0.00    -0.073 C 
ATOM      4  C   UNL     1      10.816   2.589  23.996  0.00  0.00    -0.028 C 
ATOM      5  C   UNL     1      10.097   0.355  24.926  0.00  0.00    +0.035 C 
ATOM      6  C   UNL     1       9.066  -0.648  24.404  0.00  0.00    +0.006 C 
ATOM      7  C   UNL     1       9.636  -1.726  23.454  0.00  0.00    +0.044 C 
ATOM      8  C   UNL     1       8.672  -1.800  22.252  0.00  0.00    +0.122 C 
ATOM      9  C   UNL     1       7.533  -0.825  22.551  0.00  0.00    +0.036 C 
ENDROOT
BRANCH   7  10
ATOM     10  C   UNL     1       9.746  -3.045  24.179  0.00  0.00    -0.022 C 
ATOM     11  C   UNL     1       8.928  -3.382  25.187  0.00  0.00    +0.000 C 
BRANCH  11  12
ATOM     12  C   UNL     1       8.882  -4.738  25.826  0.00  0.00    +0.141 C 
BRANCH  12  13
ATOM     13  C   UNL     1       7.442  -5.297  25.936  0.00  0.00    +0.030 C 
ATOM     14  C   UNL     1       6.971  -5.444  27.390  0.00  0.00    +0.011 C 
BRANCH  13  15
ATOM     15  C   UNL     1       6.427  -4.452  25.139  0.00  0.00    +0.095 C 
BRANCH  15  16
ATOM     16  C   UNL     1       6.390  -4.905  23.689  0.00  0.00    -0.102 C 
ATOM     17  C   UNL     1       6.359  -5.293  22.445  0.00  0.00    -0.106 C 
ATOM     18  C   UNL     1       6.322  -5.730  21.049  0.00  0.00    +0.106 C 
ENDBRANCH  15  16
ENDBRANCH  13  15
ENDBRANCH  12  13
BRANCH  12  19
ATOM     19  O   UNL     1       9.456  -4.620  27.123  0.00  0.00    -0.387 OA
ATOM     20  H   UNL     1       9.844  -3.729  27.171  0.00  0.00    +0.210 HD
ENDBRANCH  12  19
ENDBRANCH  11  12
ENDBRANCH   7  10
BRANCH   8  21
ATOM     21  O   UNL     1       9.377  -1.396  21.077  0.00  0.00    -0.391 OA
ATOM     22  H   UNL     1      10.327  -1.487  21.255  0.00  0.00    +0.210 HD
ENDBRANCH   8  21
BRANCH   4  23
ATOM     23  C   UNL     1      10.729   3.734  23.019  0.00  0.00    +0.027 C 
BRANCH  23  24
ATOM     24  C   UNL     1      10.852   5.100  23.700  0.00  0.00    +0.015 C 
BRANCH  24  25
ATOM     25  C   UNL     1      12.296   5.461  24.042  0.00  0.00    +0.121 C 
BRANCH  25  26
ATOM     26  C   UNL     1      13.199   5.387  22.835  0.00  0.00    +0.305 C 
ATOM     27  O   UNL     1      12.882   5.668  21.690  0.00  0.00    -0.251 OA
BRANCH  26  28
ATOM     28  O   UNL     1      14.443   4.963  23.158  0.00  0.00    -0.481 OA
ATOM     29  H   UNL     1      15.061   4.956  22.403  0.00  0.00    +0.295 HD
ENDBRANCH  26  28
ENDBRANCH  25  26
ENDBRANCH  24  25
ENDBRANCH  23  24
ENDBRANCH   4  23
TORSDOF 12
ENDMDL
MODEL 3
REMARK VINA RESULT:      -6.9      2.090      3.783
REMARK  Name = 
REMARK  14 active torsions:
REMARK  status: ('A' for Active; 'I' for Inactive)
REMARK    1  A    between atoms: C_4  and  O_6
REMARK    2  A    between atoms: C_7  and  C_9
REMARK    3  A    between atoms: C_10  and  C_11
REMARK    4  A    between atoms: C_11  and  O_13
REMARK    5  A    between atoms: C_11  and  C_14
REMARK    6  A    between atoms: C_14  and  C_15
REMARK    7  A    between atoms: C_14  and  C_16
REMARK    8  A    between atoms: C_16  and  C_17
REMARK    9  A    between atoms: C_18  and  C_19
REMARK   10  A    between atoms: C_25  and  C_26
REMARK   11  A    between atoms: C_26  and  C_27
REMARK   12  A    between atoms: C_27  and  C_28
REMARK   13  A    between atoms: C_28  and  C_29
REMARK   14  A    between atoms: C_29  and  O_30
REMARK                            x       y       z     vdW  Elec       q    Type
REMARK                         _______ _______ _______ _____ _____    ______ ____
ROOT
ATOM      1  C   UNL     1       7.545   2.465  22.905  0.00  0.00    -0.001 C 
ATOM      2  C   UNL     1       8.163   3.834  23.157  0.00  0.00    +0.034 C 
ATOM      3  C   UNL     1       8.361   3.856  24.647  0.00  0.00    -0.073 C 
ATOM      4  C   UNL     1       8.526   4.968  25.376  0.00  0.00    -0.028 C 
ATOM      5  C   UNL     1       8.293   2.460  25.213  0.00  0.00    +0.035 C 
ATOM      6  C   UNL     1       8.129   1.560  23.986  0.00  0.00    +0.006 C 
ATOM      7  C   UNL     1       9.454   1.030  23.391  0.00  0.00    +0.044 C 
ATOM      8  C   UNL     1       9.360   1.242  21.866  0.00  0.00    +0.122 C 
ATOM      9  C   UNL     1       7.971   1.820  21.595  0.00  0.00    +0.036 C 
ENDROOT
BRANCH   7  10
ATOM     10  C   UNL     1       9.637  -0.423  23.756  0.00  0.00    -0.022 C 
ATOM     11  C   UNL     1       8.700  -1.350  23.509  0.00  0.00    +0.000 C 
BRANCH  11  12
ATOM     12  C   UNL     1       8.897  -2.825  23.693  0.00  0.00    +0.141 C 
BRANCH  12  13
ATOM     13  C   UNL     1       8.135  -3.379  24.922  0.00  0.00    +0.030 C 
ATOM     14  C   UNL     1       6.827  -2.622  25.201  0.00  0.00    +0.011 C 
BRANCH  13  15
ATOM     15  C   UNL     1       7.849  -4.889  24.797  0.00  0.00    +0.095 C 
BRANCH  15  16
ATOM     16  C   UNL     1       7.282  -5.206  23.423  0.00  0.00    -0.102 C 
ATOM     17  C   UNL     1       6.796  -5.477  22.244  0.00  0.00    -0.106 C 
ATOM     18  C   UNL     1       6.249  -5.780  20.922  0.00  0.00    +0.106 C 
ENDBRANCH  15  16
ENDBRANCH  13  15
ENDBRANCH  12  13
BRANCH  12  19
ATOM     19  O   UNL     1      10.293  -3.056  23.846  0.00  0.00    -0.387 OA
ATOM     20  H   UNL     1      10.596  -2.451  24.546  0.00  0.00    +0.210 HD
ENDBRANCH  12  19
ENDBRANCH  11  12
ENDBRANCH   7  10
BRANCH   8  21
ATOM     21  O   UNL     1      10.370   2.171  21.471  0.00  0.00    -0.391 OA
ATOM     22  H   UNL     1      10.209   3.003  21.946  0.00  0.00    +0.210 HD
ENDBRANCH   8  21
BRANCH   4  23
ATOM     23  C   UNL     1       8.554   6.360  24.798  0.00  0.00    +0.027 C 
BRANCH  23  24
ATOM     24  C   UNL     1       9.773   6.601  23.903  0.00  0.00    +0.015 C 
BRANCH  24  25
ATOM     25  C   UNL     1      11.094   6.316  24.615  0.00  0.00    +0.121 C 
BRANCH  25  26
ATOM     26  C   UNL     1      11.970   5.374  23.826  0.00  0.00    +0.305 C 
ATOM     27  O   UNL     1      11.603   4.338  23.295  0.00  0.00    -0.251 OA
BRANCH  26  28
ATOM     28  O   UNL     1      13.251   5.807  23.762  0.00  0.00    -0.481 OA
ATOM     29  H   UNL     1      13.875   5.131  23.435  0.00  0.00    +0.295 HD
ENDBRANCH  26  28
ENDBRANCH  25  26
ENDBRANCH  24  25
ENDBRANCH  23  24
ENDBRANCH   4  23
TORSDOF 12
ENDMDL
MODEL 4
REMARK VINA RESULT:      -6.6      2.537      9.095
REMARK  Name = 
REMARK  14 active torsions:
REMARK  status: ('A' for Active; 'I' for Inactive)
REMARK    1  A    between atoms: C_4  and  O_6
REMARK    2  A    between atoms: C_7  and  C_9
REMARK    3  A    between atoms: C_10  and  C_11
REMARK    4  A    between atoms: C_11  and  O_13
REMARK    5  A    between atoms: C_11  and  C_14
REMARK    6  A    between atoms: C_14  and  C_15
REMARK    7  A    between atoms: C_14  and  C_16
REMARK    8  A    between atoms: C_16  and  C_17
REMARK    9  A    between atoms: C_18  and  C_19
REMARK   10  A    between atoms: C_25  and  C_26
REMARK   11  A    between atoms: C_26  and  C_27
REMARK   12  A    between atoms: C_27  and  C_28
REMARK   13  A    between atoms: C_28  and  C_29
REMARK   14  A    between atoms: C_29  and  O_30
REMARK                            x       y       z     vdW  Elec       q    Type
REMARK                         _______ _______ _______ _____ _____    ______ ____
ROOT
ATOM      1  C   UNL     1       9.733  -0.279  22.008  0.00  0.00    -0.001 C 
ATOM      2  C   UNL     1       8.836  -1.424  22.462  0.00  0.00    +0.034 C 
ATOM      3  C   UNL     1       9.389  -1.783  23.812  0.00  0.00    -0.073 C 
ATOM      4  C   UNL     1       9.177  -2.950  24.436  0.00  0.00    -0.028 C 
ATOM      5  C   UNL     1      10.259  -0.671  24.344  0.00  0.00    +0.035 C 
ATOM      6  C   UNL     1      10.147   0.434  23.292  0.00  0.00    +0.006 C 
ATOM      7  C   UNL     1       9.025   1.466  23.554  0.00  0.00    +0.044 C 
ATOM      8  C   UNL     1       8.283   1.650  22.214  0.00  0.00    +0.122 C 
ATOM      9  C   UNL     1       9.019   0.786  21.190  0.00  0.00    +0.036 C 
ENDROOT
BRANCH   7  10
ATOM     10  C   UNL     1       9.622   2.758  24.058  0.00  0.00    -0.022 C 
ATOM     11  C   UNL     1      10.575   3.420  23.387  0.00  0.00    +0.000 C 
BRANCH  11  12
ATOM     12  C   UNL     1      11.079   4.784  23.753  0.00  0.00    +0.141 C 
BRANCH  12  13
ATOM     13  C   UNL     1       9.964   5.700  24.315  0.00  0.00    +0.030 C 
ATOM     14  C   UNL     1      10.502   6.770  25.278  0.00  0.00    +0.011 C 
BRANCH  13  15
ATOM     15  C   UNL     1       9.139   6.368  23.197  0.00  0.00    +0.095 C 
BRANCH  15  16
ATOM     16  C   UNL     1       7.802   5.663  23.037  0.00  0.00    -0.102 C 
ATOM     17  C   UNL     1       6.656   5.057  22.900  0.00  0.00    -0.106 C 
ATOM     18  C   UNL     1       5.369   4.379  22.747  0.00  0.00    +0.106 C 
ENDBRANCH  15  16
ENDBRANCH  13  15
ENDBRANCH  12  13
BRANCH  12  19
ATOM     19  O   UNL     1      11.635   5.366  22.579  0.00  0.00    -0.387 OA
ATOM     20  H   UNL     1      10.938   5.926  22.194  0.00  0.00    +0.210 HD
ENDBRANCH  12  19
ENDBRANCH  11  12
ENDBRANCH   7  10
BRANCH   8  21
ATOM     21  O   UNL     1       6.938   1.197  22.372  0.00  0.00    -0.391 OA
ATOM     22  H   UNL     1       6.639   1.459  23.259  0.00  0.00    +0.210 HD
ENDBRANCH   8  21
BRANCH   4  23
ATOM     23  C   UNL     1       8.336  -4.067  23.873  0.00  0.00    +0.027 C 
BRANCH  23  24
ATOM     24  C   UNL     1       6.975  -4.185  24.564  0.00  0.00    +0.015 C 
BRANCH  24  25
ATOM     25  C   UNL     1       7.082  -4.156  26.087  0.00  0.00    +0.121 C 
BRANCH  25  26
ATOM     26  C   UNL     1       6.951  -5.534  26.690  0.00  0.00    +0.305 C 
ATOM     27  O   UNL     1       6.026  -6.308  26.503  0.00  0.00    -0.251 OA
BRANCH  26  28
ATOM     28  O   UNL     1       8.001  -5.839  27.487  0.00  0.00    -0.481 OA
ATOM     29  H   UNL     1       8.727  -5.187  27.443  0.00  0.00    +0.295 HD
ENDBRANCH  26  28
ENDBRANCH  25  26
ENDBRANCH  24  25
ENDBRANCH  23  24
ENDBRANCH   4  23
TORSDOF 12
ENDMDL
MODEL 5
REMARK VINA RESULT:      -6.6      2.682      8.742
REMARK  Name = 
REMARK  14 active torsions:
REMARK  status: ('A' for Active; 'I' for Inactive)
REMARK    1  A    between atoms: C_4  and  O_6
REMARK    2  A    between atoms: C_7  and  C_9
REMARK    3  A    between atoms: C_10  and  C_11
REMARK    4  A    between atoms: C_11  and  O_13
REMARK    5  A    between atoms: C_11  and  C_14
REMARK    6  A    between atoms: C_14  and  C_15
REMARK    7  A    between atoms: C_14  and  C_16
REMARK    8  A    between atoms: C_16  and  C_17
REMARK    9  A    between atoms: C_18  and  C_19
REMARK   10  A    between atoms: C_25  and  C_26
REMARK   11  A    between atoms: C_26  and  C_27
REMARK   12  A    between atoms: C_27  and  C_28
REMARK   13  A    between atoms: C_28  and  C_29
REMARK   14  A    between atoms: C_29  and  O_30
REMARK                            x       y       z     vdW  Elec       q    Type
REMARK                         _______ _______ _______ _____ _____    ______ ____
ROOT
ATOM      1  C   UNL     1       8.943  -0.665  24.165  0.00  0.00    -0.001 C 
ATOM      2  C   UNL     1       8.349  -2.014  23.780  0.00  0.00    +0.034 C 
ATOM      3  C   UNL     1       6.867  -1.775  23.860  0.00  0.00    -0.073 C 
ATOM      4  C   UNL     1       5.946  -2.742  23.971  0.00  0.00    -0.028 C 
ATOM      5  C   UNL     1       6.565  -0.297  23.854  0.00  0.00    +0.035 C 
ATOM      6  C   UNL     1       7.932   0.369  23.678  0.00  0.00    +0.006 C 
ATOM      7  C   UNL     1       8.328   0.654  22.212  0.00  0.00    +0.044 C 
ATOM      8  C   UNL     1       9.785   0.171  22.054  0.00  0.00    +0.122 C 
ATOM      9  C   UNL     1      10.230  -0.318  23.432  0.00  0.00    +0.036 C 
ENDROOT
BRANCH   7  10
ATOM     10  C   UNL     1       8.180   2.127  21.916  0.00  0.00    -0.022 C 
ATOM     11  C   UNL     1       7.961   3.036  22.879  0.00  0.00    +0.000 C 
BRANCH  11  12
ATOM     12  C   UNL     1       7.976   4.519  22.664  0.00  0.00    +0.141 C 
BRANCH  12  13
ATOM     13  C   UNL     1       8.000   5.314  23.992  0.00  0.00    +0.030 C 
ATOM     14  C   UNL     1       8.321   4.430  25.208  0.00  0.00    +0.011 C 
BRANCH  13  15
ATOM     15  C   UNL     1       8.975   6.507  23.940  0.00  0.00    +0.095 C 
BRANCH  15  16
ATOM     16  C   UNL     1      10.391   6.018  23.680  0.00  0.00    -0.102 C 
ATOM     17  C   UNL     1      11.605   5.599  23.457  0.00  0.00    -0.106 C 
ATOM     18  C   UNL     1      12.967   5.126  23.208  0.00  0.00    +0.106 C 
ENDBRANCH  15  16
ENDBRANCH  13  15
ENDBRANCH  12  13
BRANCH  12  19
ATOM     19  O   UNL     1       6.811   4.856  21.920  0.00  0.00    -0.387 OA
ATOM     20  H   UNL     1       6.105   4.264  22.233  0.00  0.00    +0.210 HD
ENDBRANCH  12  19
ENDBRANCH  11  12
ENDBRANCH   7  10
BRANCH   8  21
ATOM     21  O   UNL     1       9.809  -0.904  21.113  0.00  0.00    -0.391 OA
ATOM     22  H   UNL     1       9.517  -0.553  20.255  0.00  0.00    +0.210 HD
ENDBRANCH   8  21
BRANCH   4  23
ATOM     23  C   UNL     1       6.268  -4.214  24.014  0.00  0.00    +0.027 C 
BRANCH  23  24
ATOM     24  C   UNL     1       5.897  -4.859  25.352  0.00  0.00    +0.015 C 
BRANCH  24  25
ATOM     25  C   UNL     1       6.589  -4.193  26.540  0.00  0.00    +0.121 C 
BRANCH  25  26
ATOM     26  C   UNL     1       7.956  -4.779  26.799  0.00  0.00    +0.305 C 
ATOM     27  O   UNL     1       9.021  -4.224  26.582  0.00  0.00    -0.251 OA
BRANCH  26  28
ATOM     28  O   UNL     1       7.882  -6.027  27.316  0.00  0.00    -0.481 OA
ATOM     29  H   UNL     1       7.031  -6.217  27.757  0.00  0.00    +0.295 HD
ENDBRANCH  26  28
ENDBRANCH  25  26
ENDBRANCH  24  25
ENDBRANCH  23  24
ENDBRANCH   4  23
TORSDOF 12
ENDMDL
MODEL 6
REMARK VINA RESULT:      -6.5      2.307      3.591
REMARK  Name = 
REMARK  14 active torsions:
REMARK  status: ('A' for Active; 'I' for Inactive)
REMARK    1  A    between atoms: C_4  and  O_6
REMARK    2  A    between atoms: C_7  and  C_9
REMARK    3  A    between atoms: C_10  and  C_11
REMARK    4  A    between atoms: C_11  and  O_13
REMARK    5  A    between atoms: C_11  and  C_14
REMARK    6  A    between atoms: C_14  and  C_15
REMARK    7  A    between atoms: C_14  and  C_16
REMARK    8  A    between atoms: C_16  and  C_17
REMARK    9  A    between atoms: C_18  and  C_19
REMARK   10  A    between atoms: C_25  and  C_26
REMARK   11  A    between atoms: C_26  and  C_27
REMARK   12  A    between atoms: C_27  and  C_28
REMARK   13  A    between atoms: C_28  and  C_29
REMARK   14  A    between atoms: C_29  and  O_30
REMARK                            x       y       z     vdW  Elec       q    Type
REMARK                         _______ _______ _______ _____ _____    ______ ____
ROOT
ATOM      1  C   UNL     1      10.071   1.320  23.432  0.00  0.00    -0.001 C 
ATOM      2  C   UNL     1       9.025   2.384  23.741  0.00  0.00    +0.034 C 
ATOM      3  C   UNL     1       7.960   2.132  22.711  0.00  0.00    -0.073 C 
ATOM      4  C   UNL     1       7.029   3.024  22.345  0.00  0.00    -0.028 C 
ATOM      5  C   UNL     1       8.117   0.758  22.108  0.00  0.00    +0.035 C 
ATOM      6  C   UNL     1       9.283   0.136  22.879  0.00  0.00    +0.006 C 
ATOM      7  C   UNL     1       8.871  -0.684  24.124  0.00  0.00    +0.044 C 
ATOM      8  C   UNL     1       9.807  -0.240  25.266  0.00  0.00    +0.122 C 
ATOM      9  C   UNL     1      10.782   0.769  24.658  0.00  0.00    +0.036 C 
ENDROOT
BRANCH   7  10
ATOM     10  C   UNL     1       8.990  -2.160  23.829  0.00  0.00    -0.022 C 
ATOM     11  C   UNL     1       9.073  -3.082  24.800  0.00  0.00    +0.000 C 
BRANCH  11  12
ATOM     12  C   UNL     1       9.021  -4.563  24.569  0.00  0.00    +0.141 C 
BRANCH  12  13
ATOM     13  C   UNL     1       7.931  -5.261  25.419  0.00  0.00    +0.030 C 
ATOM     14  C   UNL     1       8.039  -4.928  26.915  0.00  0.00    +0.011 C 
BRANCH  13  15
ATOM     15  C   UNL     1       6.509  -4.945  24.914  0.00  0.00    +0.095 C 
BRANCH  15  16
ATOM     16  C   UNL     1       6.396  -5.259  23.431  0.00  0.00    -0.102 C 
ATOM     17  C   UNL     1       6.299  -5.528  22.159  0.00  0.00    -0.106 C 
ATOM     18  C   UNL     1       6.190  -5.832  20.732  0.00  0.00    +0.106 C 
ENDBRANCH  15  16
ENDBRANCH  13  15
ENDBRANCH  12  13
BRANCH  12  19
ATOM     19  O   UNL     1      10.301  -5.093  24.896  0.00  0.00    -0.387 OA
ATOM     20  H   UNL     1      10.914  -4.769  24.212  0.00  0.00    +0.210 HD
ENDBRANCH  12  19
ENDBRANCH  11  12
ENDBRANCH   7  10
BRANCH   8  21
ATOM     21  O   UNL     1       9.020   0.381  26.284  0.00  0.00    -0.391 OA
ATOM     22  H   UNL     1       8.801  -0.298  26.944  0.00  0.00    +0.210 HD
ENDBRANCH   8  21
BRANCH   4  23
ATOM     23  C   UNL     1       6.910   4.408  22.931  0.00  0.00    +0.027 C 
BRANCH  23  24
ATOM     24  C   UNL     1       7.514   5.485  22.026  0.00  0.00    +0.015 C 
BRANCH  24  25
ATOM     25  C   UNL     1       8.156   6.625  22.813  0.00  0.00    +0.121 C 
BRANCH  25  26
ATOM     26  C   UNL     1       9.329   6.154  23.638  0.00  0.00    +0.305 C 
ATOM     27  O   UNL     1       9.343   6.034  24.852  0.00  0.00    -0.251 OA
BRANCH  26  28
ATOM     28  O   UNL     1      10.405   5.863  22.869  0.00  0.00    -0.481 OA
ATOM     29  H   UNL     1      10.924   6.650  22.613  0.00  0.00    +0.295 HD
ENDBRANCH  26  28
ENDBRANCH  25  26
ENDBRANCH  24  25
ENDBRANCH  23  24
ENDBRANCH   4  23
TORSDOF 12
ENDMDL
MODEL 7
REMARK VINA RESULT:      -6.5      2.999      9.521
REMARK  Name = 
REMARK  14 active torsions:
REMARK  status: ('A' for Active; 'I' for Inactive)
REMARK    1  A    between atoms: C_4  and  O_6
REMARK    2  A    between atoms: C_7  and  C_9
REMARK    3  A    between atoms: C_10  and  C_11
REMARK    4  A    between atoms: C_11  and  O_13
REMARK    5  A    between atoms: C_11  and  C_14
REMARK    6  A    between atoms: C_14  and  C_15
REMARK    7  A    between atoms: C_14  and  C_16
REMARK    8  A    between atoms: C_16  and  C_17
REMARK    9  A    between atoms: C_18  and  C_19
REMARK   10  A    between atoms: C_25  and  C_26
REMARK   11  A    between atoms: C_26  and  C_27
REMARK   12  A    between atoms: C_27  and  C_28
REMARK   13  A    between atoms: C_28  and  C_29
REMARK   14  A    between atoms: C_29  and  O_30
REMARK                            x       y       z     vdW  Elec       q    Type
REMARK                         _______ _______ _______ _____ _____    ______ ____
ROOT
ATOM      1  C   UNL     1       7.085  -5.714  23.143  0.00  0.00    -0.001 C 
ATOM      2  C   UNL     1       5.813  -6.000  23.931  0.00  0.00    +0.034 C 
ATOM      3  C   UNL     1       6.152  -5.531  25.318  0.00  0.00    -0.073 C 
ATOM      4  C   UNL     1       5.501  -5.906  26.428  0.00  0.00    -0.028 C 
ATOM      5  C   UNL     1       7.357  -4.624  25.294  0.00  0.00    +0.035 C 
ATOM      6  C   UNL     1       7.697  -4.484  23.809  0.00  0.00    +0.006 C 
ATOM      7  C   UNL     1       7.034  -3.278  23.104  0.00  0.00    +0.044 C 
ATOM      8  C   UNL     1       6.454  -3.815  21.779  0.00  0.00    +0.122 C 
ATOM      9  C   UNL     1       6.845  -5.290  21.702  0.00  0.00    +0.036 C 
ENDROOT
BRANCH   7  10
ATOM     10  C   UNL     1       8.054  -2.188  22.881  0.00  0.00    -0.022 C 
ATOM     11  C   UNL     1       9.326  -2.298  23.293  0.00  0.00    +0.000 C 
BRANCH  11  12
ATOM     12  C   UNL     1      10.415  -1.326  22.951  0.00  0.00    +0.141 C 
BRANCH  12  13
ATOM     13  C   UNL     1      10.040   0.136  23.298  0.00  0.00    +0.030 C 
ATOM     14  C   UNL     1      10.966   0.752  24.358  0.00  0.00    +0.011 C 
BRANCH  13  15
ATOM     15  C   UNL     1      10.001   1.039  22.048  0.00  0.00    +0.095 C 
BRANCH  15  16
ATOM     16  C   UNL     1       8.771   1.932  22.084  0.00  0.00    -0.102 C 
ATOM     17  C   UNL     1       7.716   2.697  22.114  0.00  0.00    -0.106 C 
ATOM     18  C   UNL     1       6.533   3.556  22.150  0.00  0.00    +0.106 C 
ENDBRANCH  15  16
ENDBRANCH  13  15
ENDBRANCH  12  13
BRANCH  12  19
ATOM     19  O   UNL     1      10.671  -1.442  21.556  0.00  0.00    -0.387 OA
ATOM     20  H   UNL     1      10.582  -2.387  21.339  0.00  0.00    +0.210 HD
ENDBRANCH  12  19
ENDBRANCH  11  12
ENDBRANCH   7  10
BRANCH   8  21
ATOM     21  O   UNL     1       5.033  -3.678  21.815  0.00  0.00    -0.391 OA
ATOM     22  H   UNL     1       4.692  -3.895  20.931  0.00  0.00    +0.210 HD
ENDBRANCH   8  21
BRANCH   4  23
ATOM     23  C   UNL     1       4.321  -6.844  26.439  0.00  0.00    +0.027 C 
BRANCH  23  24
ATOM     24  C   UNL     1       2.984  -6.109  26.302  0.00  0.00    +0.015 C 
BRANCH  24  25
ATOM     25  C   UNL     1       1.955  -6.901  25.499  0.00  0.00    +0.121 C 
BRANCH  25  26
ATOM     26  C   UNL     1       2.344  -7.025  24.046  0.00  0.00    +0.305 C 
ATOM     27  O   UNL     1       2.348  -6.118  23.230  0.00  0.00    -0.251 OA
BRANCH  26  28
ATOM     28  O   UNL     1       2.706  -8.289  23.724  0.00  0.00    -0.481 OA
ATOM     29  H   UNL     1       3.061  -8.797  24.479  0.00  0.00    +0.295 HD
ENDBRANCH  26  28
ENDBRANCH  25  26
ENDBRANCH  24  25
ENDBRANCH  23  24
ENDBRANCH   4  23
TORSDOF 12
ENDMDL
MODEL 8
REMARK VINA RESULT:      -6.4      1.425      2.049
REMARK  Name = 
REMARK  14 active torsions:
REMARK  status: ('A' for Active; 'I' for Inactive)
REMARK    1  A    between atoms: C_4  and  O_6
REMARK    2  A    between atoms: C_7  and  C_9
REMARK    3  A    between atoms: C_10  and  C_11
REMARK    4  A    between atoms: C_11  and  O_13
REMARK    5  A    between atoms: C_11  and  C_14
REMARK    6  A    between atoms: C_14  and  C_15
REMARK    7  A    between atoms: C_14  and  C_16
REMARK    8  A    between atoms: C_16  and  C_17
REMARK    9  A    between atoms: C_18  and  C_19
REMARK   10  A    between atoms: C_25  and  C_26
REMARK   11  A    between atoms: C_26  and  C_27
REMARK   12  A    between atoms: C_27  and  C_28
REMARK   13  A    between atoms: C_28  and  C_29
REMARK   14  A    between atoms: C_29  and  O_30
REMARK                            x       y       z     vdW  Elec       q    Type
REMARK                         _______ _______ _______ _____ _____    ______ ____
ROOT
ATOM      1  C   UNL     1      10.160   1.138  22.899  0.00  0.00    -0.001 C 
ATOM      2  C   UNL     1      10.032   2.339  23.827  0.00  0.00    +0.034 C 
ATOM      3  C   UNL     1       8.861   3.091  23.261  0.00  0.00    -0.073 C 
ATOM      4  C   UNL     1       8.597   4.383  23.503  0.00  0.00    -0.028 C 
ATOM      5  C   UNL     1       8.055   2.208  22.342  0.00  0.00    +0.035 C 
ATOM      6  C   UNL     1       8.737   0.842  22.434  0.00  0.00    +0.006 C 
ATOM      7  C   UNL     1       8.154  -0.101  23.512  0.00  0.00    +0.044 C 
ATOM      8  C   UNL     1       9.361  -0.689  24.273  0.00  0.00    +0.122 C 
ATOM      9  C   UNL     1      10.612  -0.139  23.589  0.00  0.00    +0.036 C 
ENDROOT
BRANCH   7  10
ATOM     10  C   UNL     1       7.314  -1.172  22.859  0.00  0.00    -0.022 C 
ATOM     11  C   UNL     1       7.061  -2.348  23.452  0.00  0.00    +0.000 C 
BRANCH  11  12
ATOM     12  C   UNL     1       6.100  -3.373  22.927  0.00  0.00    +0.141 C 
BRANCH  12  13
ATOM     13  C   UNL     1       6.807  -4.665  22.451  0.00  0.00    +0.030 C 
ATOM     14  C   UNL     1       7.860  -5.169  23.450  0.00  0.00    +0.011 C 
BRANCH  13  15
ATOM     15  C   UNL     1       5.806  -5.794  22.132  0.00  0.00    +0.095 C 
BRANCH  15  16
ATOM     16  C   UNL     1       5.133  -6.275  23.407  0.00  0.00    -0.102 C 
ATOM     17  C   UNL     1       4.555  -6.687  24.501  0.00  0.00    -0.106 C 
ATOM     18  C   UNL     1       3.907  -7.152  25.727  0.00  0.00    +0.106 C 
ENDBRANCH  15  16
ENDBRANCH  13  15
ENDBRANCH  12  13
BRANCH  12  19
ATOM     19  O   UNL     1       5.392  -2.782  21.843  0.00  0.00    -0.387 OA
ATOM     20  H   UNL     1       5.919  -2.014  21.558  0.00  0.00    +0.210 HD
ENDBRANCH  12  19
ENDBRANCH  11  12
ENDBRANCH   7  10
BRANCH   8  21
ATOM     21  O   UNL     1       9.302  -0.248  25.630  0.00  0.00    -0.391 OA
ATOM     22  H   UNL     1      10.203  -0.283  25.993  0.00  0.00    +0.210 HD
ENDBRANCH   8  21
BRANCH   4  23
ATOM     23  C   UNL     1       9.436   5.263  24.396  0.00  0.00    +0.027 C 
BRANCH  23  24
ATOM     24  C   UNL     1      10.499   6.045  23.620  0.00  0.00    +0.015 C 
BRANCH  24  25
ATOM     25  C   UNL     1      11.909   5.822  24.162  0.00  0.00    +0.121 C 
BRANCH  25  26
ATOM     26  C   UNL     1      12.809   5.162  23.145  0.00  0.00    +0.305 C 
ATOM     27  O   UNL     1      14.028   5.212  23.135  0.00  0.00    -0.251 OA
BRANCH  26  28
ATOM     28  O   UNL     1      12.103   4.483  22.210  0.00  0.00    -0.481 OA
ATOM     29  H   UNL     1      12.622   4.265  21.413  0.00  0.00    +0.295 HD
ENDBRANCH  26  28
ENDBRANCH  25  26
ENDBRANCH  24  25
ENDBRANCH  23  24
ENDBRANCH   4  23
TORSDOF 12
ENDMDL
MODEL 9
REMARK VINA RESULT:      -6.4      3.088      5.043
REMARK  Name = 
REMARK  14 active torsions:
REMARK  status: ('A' for Active; 'I' for Inactive)
REMARK    1  A    between atoms: C_4  and  O_6
REMARK    2  A    between atoms: C_7  and  C_9
REMARK    3  A    between atoms: C_10  and  C_11
REMARK    4  A    between atoms: C_11  and  O_13
REMARK    5  A    between atoms: C_11  and  C_14
REMARK    6  A    between atoms: C_14  and  C_15
REMARK    7  A    between atoms: C_14  and  C_16
REMARK    8  A    between atoms: C_16  and  C_17
REMARK    9  A    between atoms: C_18  and  C_19
REMARK   10  A    between atoms: C_25  and  C_26
REMARK   11  A    between atoms: C_26  and  C_27
REMARK   12  A    between atoms: C_27  and  C_28
REMARK   13  A    between atoms: C_28  and  C_29
REMARK   14  A    between atoms: C_29  and  O_30
REMARK                            x       y       z     vdW  Elec       q    Type
REMARK                         _______ _______ _______ _____ _____    ______ ____
ROOT
ATOM      1  C   UNL     1       8.080  -3.163  24.159  0.00  0.00    -0.001 C 
ATOM      2  C   UNL     1       9.304  -2.257  24.116  0.00  0.00    +0.034 C 
ATOM      3  C   UNL     1       9.060  -1.292  25.241  0.00  0.00    -0.073 C 
ATOM      4  C   UNL     1       9.660  -0.100  25.365  0.00  0.00    -0.028 C 
ATOM      5  C   UNL     1       8.008  -1.825  26.182  0.00  0.00    +0.035 C 
ATOM      6  C   UNL     1       7.673  -3.212  25.629  0.00  0.00    +0.006 C 
ATOM      7  C   UNL     1       8.503  -4.367  26.235  0.00  0.00    +0.044 C 
ATOM      8  C   UNL     1       8.975  -5.231  25.047  0.00  0.00    +0.122 C 
ATOM      9  C   UNL     1       8.362  -4.612  23.792  0.00  0.00    +0.036 C 
ENDROOT
BRANCH   7  10
ATOM     10  C   UNL     1       7.659  -5.150  27.211  0.00  0.00    -0.022 C 
ATOM     11  C   UNL     1       6.403  -4.796  27.522  0.00  0.00    +0.000 C 
BRANCH  11  12
ATOM     12  C   UNL     1       5.468  -5.627  28.348  0.00  0.00    +0.141 C 
BRANCH  12  13
ATOM     13  C   UNL     1       4.078  -5.794  27.687  0.00  0.00    +0.030 C 
ATOM     14  C   UNL     1       3.609  -4.526  26.957  0.00  0.00    +0.011 C 
BRANCH  13  15
ATOM     15  C   UNL     1       4.031  -6.999  26.726  0.00  0.00    +0.095 C 
BRANCH  15  16
ATOM     16  C   UNL     1       4.436  -6.570  25.325  0.00  0.00    -0.102 C 
ATOM     17  C   UNL     1       4.783  -6.202  24.124  0.00  0.00    -0.106 C 
ATOM     18  C   UNL     1       5.174  -5.787  22.777  0.00  0.00    +0.106 C 
ENDBRANCH  15  16
ENDBRANCH  13  15
ENDBRANCH  12  13
BRANCH  12  19
ATOM     19  O   UNL     1       5.328  -4.987  29.612  0.00  0.00    -0.387 OA
ATOM     20  H   UNL     1       5.839  -4.160  29.558  0.00  0.00    +0.210 HD
ENDBRANCH  12  19
ENDBRANCH  11  12
ENDBRANCH   7  10
BRANCH   8  21
ATOM     21  O   UNL     1      10.401  -5.177  24.983  0.00  0.00    -0.391 OA
ATOM     22  H   UNL     1      10.650  -5.005  24.060  0.00  0.00    +0.210 HD
ENDBRANCH   8  21
BRANCH   4  23
ATOM     23  C   UNL     1      10.683   0.435  24.395  0.00  0.00    +0.027 C 
BRANCH  23  24
ATOM     24  C   UNL     1      10.271   1.778  23.786  0.00  0.00    +0.015 C 
BRANCH  24  25
ATOM     25  C   UNL     1      10.157   1.727  22.264  0.00  0.00    +0.121 C 
BRANCH  25  26
ATOM     26  C   UNL     1       9.171   0.680  21.805  0.00  0.00    +0.305 C 
ATOM     27  O   UNL     1       9.437  -0.299  21.128  0.00  0.00    -0.251 OA
BRANCH  26  28
ATOM     28  O   UNL     1       7.916   0.944  22.237  0.00  0.00    -0.481 OA
ATOM     29  H   UNL     1       7.704   1.897  22.260  0.00  0.00    +0.295 HD
ENDBRANCH  26  28
ENDBRANCH  25  26
ENDBRANCH  24  25
ENDBRANCH  23  24
ENDBRANCH   4  23
TORSDOF 12
ENDMDL
