MODEL 1
REMARK VINA RESULT:      -5.7      0.000      0.000
REMARK  Name = 
REMARK  3 active torsions:
REMARK  status: ('A' for Active; 'I' for Inactive)
REMARK    1  A    between atoms: O_1  and  C_2
REMARK    2  A    between atoms: C_2  and  CA_4
REMARK    3  A    between atoms: C_10  and  CA_12
REMARK                            x       y       z     vdW  Elec       q    Type
REMARK                         _______ _______ _______ _____ _____    ______ ____
ROOT
ATOM      1  CA  UNL     1       8.102  -3.843  25.056  0.00  0.00    +0.195 C 
ATOM      2  N   UNL     1       8.206  -3.344  23.666  0.00  0.00    -0.276 N 
ATOM      3  C   UNL     1       8.900  -2.240  23.194  0.00  0.00    +0.237 C 
ATOM      4  O   UNL     1       8.909  -2.003  21.983  0.00  0.00    -0.274 OA
ATOM      5  C   UNL     1       7.402  -4.096  22.710  0.00  0.00    +0.178 C 
ATOM      6  SG  UNL     1       6.326  -5.195  23.653  0.00  0.00    -0.139 S 
ATOM      7  CB  UNL     1       6.693  -4.398  25.236  0.00  0.00    +0.104 C 
ENDROOT
BRANCH   3   8
ATOM      8  CA  UNL     1       9.707  -1.354  24.177  0.00  0.00    +0.159 C 
ATOM      9  N   UNL     1      10.521  -0.383  23.481  0.00  0.00    -0.304 N 
ATOM     10  H   UNL     1      11.207  -0.605  22.768  0.00  0.00    +0.149 HD
ATOM     11  C   UNL     1       9.944   0.873  23.453  0.00  0.00    +0.214 C 
ATOM     12  O   UNL     1      10.345   1.821  22.802  0.00  0.00    -0.276 OA
ATOM     13  C   UNL     1       8.717   0.841  24.320  0.00  0.00    +0.098 C 
ATOM     14  C   UNL     1       8.869  -0.470  25.090  0.00  0.00    +0.041 C 
ENDBRANCH   3   8
BRANCH   1  15
ATOM     15  C   UNL     1       9.130  -4.926  25.419  0.00  0.00    +0.326 C 
ATOM     16  OXT UNL     1      10.246  -4.985  24.923  0.00  0.00    -0.249 OA
BRANCH  15  17
ATOM     17  O   UNL     1       8.687  -5.847  26.303  0.00  0.00    -0.479 OA
ATOM     18  H   UNL     1       8.356  -5.449  27.133  0.00  0.00    +0.295 HD
ENDBRANCH  15  17
ENDBRANCH   1  15
TORSDOF 3
ENDMDL
MODEL 2
REMARK VINA RESULT:      -5.6      2.599      5.225
REMARK  Name = 
REMARK  3 active torsions:
REMARK  status: ('A' for Active; 'I' for Inactive)
REMARK    1  A    between atoms: O_1  and  C_2
REMARK    2  A    between atoms: C_2  and  CA_4
REMARK    3  A    between atoms: C_10  and  CA_12
REMARK                            x       y       z     vdW  Elec       q    Type
REMARK                         _______ _______ _______ _____ _____    ______ ____
ROOT
ATOM      1  CA  UNL     1       8.596  -0.570  23.065  0.00  0.00    +0.195 C 
ATOM      2  N   UNL     1       8.945  -0.486  24.501  0.00  0.00    -0.276 N 
ATOM      3  C   UNL     1       8.590  -1.346  25.529  0.00  0.00    +0.237 C 
ATOM      4  O   UNL     1       9.016  -1.138  26.668  0.00  0.00    -0.274 OA
ATOM      5  C   UNL     1       9.702   0.710  24.853  0.00  0.00    +0.178 C 
ATOM      6  SG  UNL     1       9.673   1.810  23.424  0.00  0.00    -0.139 S 
ATOM      7  CB  UNL     1       8.400   0.856  22.560  0.00  0.00    +0.104 C 
ENDROOT
BRANCH   3   8
ATOM      8  CA  UNL     1       7.716  -2.591  25.229  0.00  0.00    +0.159 C 
ATOM      9  N   UNL     1       8.437  -3.581  24.461  0.00  0.00    -0.304 N 
ATOM     10  H   UNL     1       8.890  -3.407  23.570  0.00  0.00    +0.149 HD
ATOM     11  C   UNL     1       8.925  -4.610  25.243  0.00  0.00    +0.214 C 
ATOM     12  O   UNL     1       9.692  -5.480  24.871  0.00  0.00    -0.276 OA
ATOM     13  C   UNL     1       8.385  -4.433  26.635  0.00  0.00    +0.098 C 
ATOM     14  C   UNL     1       7.284  -3.389  26.451  0.00  0.00    +0.041 C 
ENDBRANCH   3   8
BRANCH   1  15
ATOM     15  C   UNL     1       9.647  -1.281  22.198  0.00  0.00    +0.326 C 
ATOM     16  OXT UNL     1      10.494  -2.035  22.654  0.00  0.00    -0.249 OA
BRANCH  15  17
ATOM     17  O   UNL     1       9.594  -0.970  20.884  0.00  0.00    -0.479 OA
ATOM     18  H   UNL     1       9.238  -0.075  20.719  0.00  0.00    +0.295 HD
ENDBRANCH  15  17
ENDBRANCH   1  15
TORSDOF 3
ENDMDL
MODEL 3
REMARK VINA RESULT:      -5.6      1.833      2.121
REMARK  Name = 
REMARK  3 active torsions:
REMARK  status: ('A' for Active; 'I' for Inactive)
REMARK    1  A    between atoms: O_1  and  C_2
REMARK    2  A    between atoms: C_2  and  CA_4
REMARK    3  A    between atoms: C_10  and  CA_12
REMARK                            x       y       z     vdW  Elec       q    Type
REMARK                         _______ _______ _______ _____ _____    ______ ____
ROOT
ATOM      1  CA  UNL     1       7.011  -4.353  25.452  0.00  0.00    +0.195 C 
ATOM      2  N   UNL     1       6.574  -4.071  24.066  0.00  0.00    -0.276 N 
ATOM      3  C   UNL     1       6.862  -2.969  23.276  0.00  0.00    +0.237 C 
ATOM      4  O   UNL     1       6.442  -2.928  22.117  0.00  0.00    -0.274 OA
ATOM      5  C   UNL     1       5.664  -5.073  23.522  0.00  0.00    +0.178 C 
ATOM      6  SG  UNL     1       5.170  -6.151  24.881  0.00  0.00    -0.139 S 
ATOM      7  CB  UNL     1       5.863  -5.069  26.155  0.00  0.00    +0.104 C 
ENDROOT
BRANCH   3   8
ATOM      8  CA  UNL     1       7.757  -1.831  23.832  0.00  0.00    +0.159 C 
ATOM      9  N   UNL     1       9.162  -2.160  23.741  0.00  0.00    -0.304 N 
ATOM     10  H   UNL     1       9.589  -2.992  24.135  0.00  0.00    +0.149 HD
ATOM     11  C   UNL     1       9.778  -1.570  22.655  0.00  0.00    +0.214 C 
ATOM     12  O   UNL     1      10.907  -1.808  22.266  0.00  0.00    -0.276 OA
ATOM     13  C   UNL     1       8.794  -0.630  22.015  0.00  0.00    +0.098 C 
ATOM     14  C   UNL     1       7.688  -0.519  23.063  0.00  0.00    +0.041 C 
ENDBRANCH   3   8
BRANCH   1  15
ATOM     15  C   UNL     1       8.286  -5.206  25.554  0.00  0.00    +0.326 C 
ATOM     16  OXT UNL     1       9.153  -5.221  24.693  0.00  0.00    -0.249 OA
BRANCH  15  17
ATOM     17  O   UNL     1       8.354  -5.983  26.657  0.00  0.00    -0.479 OA
ATOM     18  H   UNL     1       7.517  -6.453  26.845  0.00  0.00    +0.295 HD
ENDBRANCH  15  17
ENDBRANCH   1  15
TORSDOF 3
ENDMDL
MODEL 4
REMARK VINA RESULT:      -5.6      2.473      2.931
REMARK  Name = 
REMARK  3 active torsions:
REMARK  status: ('A' for Active; 'I' for Inactive)
REMARK    1  A    between atoms: O_1  and  C_2
REMARK    2  A    between atoms: C_2  and  CA_4
REMARK    3  A    between atoms: C_10  and  CA_12
REMARK                            x       y       z     vdW  Elec       q    Type
REMARK                         _______ _______ _______ _____ _____    ______ ____
ROOT
ATOM      1  CA  UNL     1       7.145  -4.186  23.049  0.00  0.00    +0.195 C 
ATOM      2  N   UNL     1       6.730  -2.782  23.273  0.00  0.00    -0.276 N 
ATOM      3  C   UNL     1       7.400  -1.618  22.929  0.00  0.00    +0.237 C 
ATOM      4  O   UNL     1       6.872  -0.526  23.157  0.00  0.00    -0.274 OA
ATOM      5  C   UNL     1       5.483  -2.650  24.018  0.00  0.00    +0.178 C 
ATOM      6  SG  UNL     1       5.058  -4.282  24.659  0.00  0.00    -0.139 S 
ATOM      7  CB  UNL     1       6.669  -4.998  24.250  0.00  0.00    +0.104 C 
ENDROOT
BRANCH   3   8
ATOM      8  CA  UNL     1       8.770  -1.697  22.209  0.00  0.00    +0.159 C 
ATOM      9  N   UNL     1       9.055  -0.491  21.463  0.00  0.00    -0.304 N 
ATOM     10  H   UNL     1       8.452  -0.093  20.752  0.00  0.00    +0.149 HD
ATOM     11  C   UNL     1       9.910   0.360  22.136  0.00  0.00    +0.214 C 
ATOM     12  O   UNL     1      10.182   1.499  21.802  0.00  0.00    -0.276 OA
ATOM     13  C   UNL     1      10.397  -0.347  23.370  0.00  0.00    +0.098 C 
ATOM     14  C   UNL     1       9.980  -1.797  23.127  0.00  0.00    +0.041 C 
ENDBRANCH   3   8
BRANCH   1  15
ATOM     15  C   UNL     1       6.594  -4.811  21.758  0.00  0.00    +0.326 C 
ATOM     16  OXT UNL     1       5.838  -4.225  20.998  0.00  0.00    -0.249 OA
BRANCH  15  17
ATOM     17  O   UNL     1       6.977  -6.090  21.547  0.00  0.00    -0.479 OA
ATOM     18  H   UNL     1       6.473  -6.525  20.830  0.00  0.00    +0.295 HD
ENDBRANCH  15  17
ENDBRANCH   1  15
TORSDOF 3
ENDMDL
MODEL 5
REMARK VINA RESULT:      -5.5      1.919      2.599
REMARK  Name = 
REMARK  3 active torsions:
REMARK  status: ('A' for Active; 'I' for Inactive)
REMARK    1  A    between atoms: O_1  and  C_2
REMARK    2  A    between atoms: C_2  and  CA_4
REMARK    3  A    between atoms: C_10  and  CA_12
REMARK                            x       y       z     vdW  Elec       q    Type
REMARK                         _______ _______ _______ _____ _____    ______ ____
ROOT
ATOM      1  CA  UNL     1       9.051  -3.451  24.896  0.00  0.00    +0.195 C 
ATOM      2  N   UNL     1       8.538  -2.187  25.470  0.00  0.00    -0.276 N 
ATOM      3  C   UNL     1       9.009  -0.897  25.278  0.00  0.00    +0.237 C 
ATOM      4  O   UNL     1       8.419   0.048  25.810  0.00  0.00    -0.274 OA
ATOM      5  C   UNL     1       7.440  -2.373  26.412  0.00  0.00    +0.178 C 
ATOM      6  SG  UNL     1       7.312  -4.139  26.754  0.00  0.00    -0.139 S 
ATOM      7  CB  UNL     1       8.889  -4.533  25.959  0.00  0.00    +0.104 C 
ENDROOT
BRANCH   3   8
ATOM      8  CA  UNL     1      10.227  -0.647  24.353  0.00  0.00    +0.159 C 
ATOM      9  N   UNL     1       9.847  -0.635  22.957  0.00  0.00    -0.304 N 
ATOM     10  H   UNL     1       9.357  -1.385  22.483  0.00  0.00    +0.149 HD
ATOM     11  C   UNL     1       9.710   0.645  22.454  0.00  0.00    +0.214 C 
ATOM     12  O   UNL     1       9.252   0.931  21.363  0.00  0.00    -0.276 OA
ATOM     13  C   UNL     1      10.176   1.612  23.507  0.00  0.00    +0.098 C 
ATOM     14  C   UNL     1      10.893   0.712  24.512  0.00  0.00    +0.041 C 
ENDBRANCH   3   8
BRANCH   1  15
ATOM     15  C   UNL     1       8.345  -3.893  23.604  0.00  0.00    +0.326 C 
ATOM     16  OXT UNL     1       7.878  -3.106  22.793  0.00  0.00    -0.249 OA
BRANCH  15  17
ATOM     17  O   UNL     1       8.237  -5.231  23.452  0.00  0.00    -0.479 OA
ATOM     18  H   UNL     1       7.311  -5.544  23.480  0.00  0.00    +0.295 HD
ENDBRANCH  15  17
ENDBRANCH   1  15
TORSDOF 3
ENDMDL
MODEL 6
REMARK VINA RESULT:      -5.4      2.581      5.152
REMARK  Name = 
REMARK  3 active torsions:
REMARK  status: ('A' for Active; 'I' for Inactive)
REMARK    1  A    between atoms: O_1  and  C_2
REMARK    2  A    between atoms: C_2  and  CA_4
REMARK    3  A    between atoms: C_10  and  CA_12
REMARK                            x       y       z     vdW  Elec       q    Type
REMARK                         _______ _______ _______ _____ _____    ______ ____
ROOT
ATOM      1  CA  UNL     1       9.743  -0.275  23.179  0.00  0.00    +0.195 C 
ATOM      2  N   UNL     1       8.301  -0.598  23.261  0.00  0.00    -0.276 N 
ATOM      3  C   UNL     1       7.703  -1.822  23.521  0.00  0.00    +0.237 C 
ATOM      4  O   UNL     1       6.474  -1.891  23.595  0.00  0.00    -0.274 OA
ATOM      5  C   UNL     1       7.428   0.528  22.950  0.00  0.00    +0.178 C 
ATOM      6  SG  UNL     1       8.461   1.846  22.279  0.00  0.00    -0.139 S 
ATOM      7  CB  UNL     1       9.912   0.781  22.091  0.00  0.00    +0.104 C 
ENDROOT
BRANCH   3   8
ATOM      8  CA  UNL     1       8.581  -3.074  23.776  0.00  0.00    +0.159 C 
ATOM      9  N   UNL     1       8.959  -3.190  25.167  0.00  0.00    -0.304 N 
ATOM     10  H   UNL     1       9.435  -2.471  25.701  0.00  0.00    +0.149 HD
ATOM     11  C   UNL     1       8.174  -4.093  25.858  0.00  0.00    +0.214 C 
ATOM     12  O   UNL     1       8.182  -4.260  27.065  0.00  0.00    -0.276 OA
ATOM     13  C   UNL     1       7.282  -4.789  24.868  0.00  0.00    +0.098 C 
ATOM     14  C   UNL     1       7.896  -4.408  23.521  0.00  0.00    +0.041 C 
ENDBRANCH   3   8
BRANCH   1  15
ATOM     15  C   UNL     1      10.353   0.240  24.492  0.00  0.00    +0.326 C 
ATOM     16  OXT UNL     1      11.397   0.873  24.543  0.00  0.00    -0.249 OA
BRANCH  15  17
ATOM     17  O   UNL     1       9.664  -0.102  25.603  0.00  0.00    -0.479 OA
ATOM     18  H   UNL     1       9.388   0.672  26.133  0.00  0.00    +0.295 HD
ENDBRANCH  15  17
ENDBRANCH   1  15
TORSDOF 3
ENDMDL
MODEL 7
REMARK VINA RESULT:      -5.4      3.298      5.740
REMARK  Name = 
REMARK  3 active torsions:
REMARK  status: ('A' for Active; 'I' for Inactive)
REMARK    1  A    between atoms: O_1  and  C_2
REMARK    2  A    between atoms: C_2  and  CA_4
REMARK    3  A    between atoms: C_10  and  CA_12
REMARK                            x       y       z     vdW  Elec       q    Type
REMARK                         _______ _______ _______ _____ _____    ______ ____
ROOT
ATOM      1  CA  UNL     1       8.294   0.815  23.985  0.00  0.00    +0.195 C 
ATOM      2  N   UNL     1       8.995  -0.009  22.974  0.00  0.00    -0.276 N 
ATOM      3  C   UNL     1       8.865  -1.366  22.724  0.00  0.00    +0.237 C 
ATOM      4  O   UNL     1       9.504  -1.876  21.800  0.00  0.00    -0.274 OA
ATOM      5  C   UNL     1       9.996   0.726  22.209  0.00  0.00    +0.178 C 
ATOM      6  SG  UNL     1      10.217   2.330  23.005  0.00  0.00    -0.139 S 
ATOM      7  CB  UNL     1       9.284   1.863  24.484  0.00  0.00    +0.104 C 
ENDROOT
BRANCH   3   8
ATOM      8  CA  UNL     1       7.875  -2.216  23.561  0.00  0.00    +0.159 C 
ATOM      9  N   UNL     1       6.543  -2.199  22.998  0.00  0.00    -0.304 N 
ATOM     10  H   UNL     1       6.006  -1.361  22.802  0.00  0.00    +0.149 HD
ATOM     11  C   UNL     1       6.264  -3.332  22.258  0.00  0.00    +0.214 C 
ATOM     12  O   UNL     1       5.282  -3.495  21.556  0.00  0.00    -0.276 OA
ATOM     13  C   UNL     1       7.405  -4.295  22.431  0.00  0.00    +0.098 C 
ATOM     14  C   UNL     1       8.180  -3.706  23.609  0.00  0.00    +0.041 C 
ENDBRANCH   3   8
BRANCH   1  15
ATOM     15  C   UNL     1       7.027   1.513  23.466  0.00  0.00    +0.326 C 
ATOM     16  OXT UNL     1       6.655   2.608  23.862  0.00  0.00    -0.249 OA
BRANCH  15  17
ATOM     17  O   UNL     1       6.322   0.798  22.562  0.00  0.00    -0.479 OA
ATOM     18  H   UNL     1       6.825   0.043  22.198  0.00  0.00    +0.295 HD
ENDBRANCH  15  17
ENDBRANCH   1  15
TORSDOF 3
ENDMDL
MODEL 8
REMARK VINA RESULT:      -5.3      2.595      5.594
REMARK  Name = 
REMARK  3 active torsions:
REMARK  status: ('A' for Active; 'I' for Inactive)
REMARK    1  A    between atoms: O_1  and  C_2
REMARK    2  A    between atoms: C_2  and  CA_4
REMARK    3  A    between atoms: C_10  and  CA_12
REMARK                            x       y       z     vdW  Elec       q    Type
REMARK                         _______ _______ _______ _____ _____    ______ ____
ROOT
ATOM      1  CA  UNL     1       8.267  -0.597  22.783  0.00  0.00    +0.195 C 
ATOM      2  N   UNL     1       8.469  -1.722  23.724  0.00  0.00    -0.276 N 
ATOM      3  C   UNL     1       8.057  -3.039  23.597  0.00  0.00    +0.237 C 
ATOM      4  O   UNL     1       8.359  -3.855  24.472  0.00  0.00    -0.274 OA
ATOM      5  C   UNL     1       9.131  -1.337  24.966  0.00  0.00    +0.178 C 
ATOM      6  SG  UNL     1       9.189   0.465  25.013  0.00  0.00    -0.139 S 
ATOM      7  CB  UNL     1       8.053   0.662  23.618  0.00  0.00    +0.104 C 
ENDROOT
BRANCH   3   8
ATOM      8  CA  UNL     1       7.276  -3.488  22.335  0.00  0.00    +0.159 C 
ATOM      9  N   UNL     1       7.096  -4.922  22.297  0.00  0.00    -0.304 N 
ATOM     10  H   UNL     1       7.846  -5.603  22.349  0.00  0.00    +0.149 HD
ATOM     11  C   UNL     1       5.840  -5.312  22.722  0.00  0.00    +0.214 C 
ATOM     12  O   UNL     1       5.489  -6.459  22.932  0.00  0.00    -0.276 OA
ATOM     13  C   UNL     1       5.012  -4.074  22.925  0.00  0.00    +0.098 C 
ATOM     14  C   UNL     1       5.843  -2.985  22.247  0.00  0.00    +0.041 C 
ENDBRANCH   3   8
BRANCH   1  15
ATOM     15  C   UNL     1       9.430  -0.371  21.805  0.00  0.00    +0.326 C 
ATOM     16  OXT UNL     1       9.794   0.737  21.440  0.00  0.00    -0.249 OA
BRANCH  15  17
ATOM     17  O   UNL     1       9.997  -1.505  21.336  0.00  0.00    -0.479 OA
ATOM     18  H   UNL     1      10.939  -1.590  21.585  0.00  0.00    +0.295 HD
ENDBRANCH  15  17
ENDBRANCH   1  15
TORSDOF 3
ENDMDL
MODEL 9
REMARK VINA RESULT:      -5.3      2.460      3.260
REMARK  Name = 
REMARK  3 active torsions:
REMARK  status: ('A' for Active; 'I' for Inactive)
REMARK    1  A    between atoms: O_1  and  C_2
REMARK    2  A    between atoms: C_2  and  CA_4
REMARK    3  A    between atoms: C_10  and  CA_12
REMARK                            x       y       z     vdW  Elec       q    Type
REMARK                         _______ _______ _______ _____ _____    ______ ____
ROOT
ATOM      1  CA  UNL     1       7.242  -2.818  22.636  0.00  0.00    +0.195 C 
ATOM      2  N   UNL     1       8.439  -2.381  23.389  0.00  0.00    -0.276 N 
ATOM      3  C   UNL     1       9.160  -1.204  23.257  0.00  0.00    +0.237 C 
ATOM      4  O   UNL     1      10.113  -0.991  24.011  0.00  0.00    -0.274 OA
ATOM      5  C   UNL     1       8.935  -3.376  24.333  0.00  0.00    +0.178 C 
ATOM      6  SG  UNL     1       8.057  -4.918  24.007  0.00  0.00    -0.139 S 
ATOM      7  CB  UNL     1       7.348  -4.329  22.450  0.00  0.00    +0.104 C 
ENDROOT
BRANCH   3   8
ATOM      8  CA  UNL     1       8.728  -0.144  22.212  0.00  0.00    +0.159 C 
ATOM      9  N   UNL     1       7.771   0.791  22.760  0.00  0.00    -0.304 N 
ATOM     10  H   UNL     1       6.891   0.534  23.193  0.00  0.00    +0.149 HD
ATOM     11  C   UNL     1       8.352   1.986  23.139  0.00  0.00    +0.214 C 
ATOM     12  O   UNL     1       7.801   2.873  23.766  0.00  0.00    -0.276 OA
ATOM     13  C   UNL     1       9.786   1.970  22.689  0.00  0.00    +0.098 C 
ATOM     14  C   UNL     1       9.837   0.781  21.731  0.00  0.00    +0.041 C 
ENDBRANCH   3   8
BRANCH   1  15
ATOM     15  C   UNL     1       5.906  -2.479  23.317  0.00  0.00    +0.326 C 
ATOM     16  OXT UNL     1       4.958  -3.249  23.354  0.00  0.00    -0.249 OA
BRANCH  15  17
ATOM     17  O   UNL     1       5.841  -1.233  23.836  0.00  0.00    -0.479 OA
ATOM     18  H   UNL     1       6.377  -0.584  23.337  0.00  0.00    +0.295 HD
ENDBRANCH  15  17
ENDBRANCH   1  15
TORSDOF 3
ENDMDL
