MODEL 1
REMARK VINA RESULT:      -4.3      0.000      0.000
REMARK  Name = 
REMARK  7 active torsions:
REMARK  status: ('A' for Active; 'I' for Inactive)
REMARK    1  A    between atoms: N_1  and  C_2
REMARK    2  A    between atoms: C_2  and  C_4
REMARK    3  A    between atoms: C_2  and  C_10
REMARK    4  A    between atoms: C_4  and  C_5
REMARK    5  A    between atoms: C_5  and  S_6
REMARK    6  A    between atoms: S_6  and  C_7
REMARK    7  A    between atoms: C_10  and  O_11
REMARK                            x       y       z     vdW  Elec       q    Type
REMARK                         _______ _______ _______ _____ _____    ______ ____
ROOT
ATOM      1  C   UNK     1       7.925  -5.508  25.706  0.00  0.00    +0.161 C 
ENDROOT
BRANCH   1   2
ATOM      2  N   UNK     1       8.164  -5.563  27.180  0.00  0.00    -0.318 NA
ATOM      3  H   UNK     1       9.166  -5.701  27.347  0.00  0.00    +0.119 HD
ATOM      4  H   UNK     1       7.965  -4.637  27.570  0.00  0.00    +0.119 HD
ENDBRANCH   1   2
BRANCH   1   5
ATOM      5  C   UNK     1       9.207  -4.981  25.029  0.00  0.00    +0.322 C 
ATOM      6  O   UNK     1       9.259  -4.055  24.236  0.00  0.00    -0.249 OA
BRANCH   5   7
ATOM      7  O   UNK     1      10.298  -5.692  25.419  0.00  0.00    -0.480 OA
ATOM      8  H   UNK     1      10.449  -5.442  26.366  0.00  0.00    +0.295 HD
ENDBRANCH   5   7
ENDBRANCH   1   5
BRANCH   1   9
ATOM      9  C   UNK     1       6.742  -4.605  25.333  0.00  0.00    +0.041 C 
BRANCH   9  10
ATOM     10  C   UNK     1       5.735  -5.282  24.404  0.00  0.00    +0.076 C 
BRANCH  10  11
ATOM     11  S   UNK     1       5.877  -4.569  22.737  0.00  0.00    -0.092 S 
BRANCH  11  12
ATOM     12  C   UNK     1       6.465  -6.038  21.883  0.00  0.00    +0.400 C 
ATOM     13  F   UNK     1       7.771  -6.258  22.185  0.00  0.00    -0.197 F 
ATOM     14  F   UNK     1       6.405  -5.852  20.541  0.00  0.00    -0.197 F 
ENDBRANCH  11  12
ENDBRANCH  10  11
ENDBRANCH   9  10
ENDBRANCH   1   9
TORSDOF 7
ENDMDL
MODEL 2
REMARK VINA RESULT:      -4.2      3.643      4.042
REMARK  Name = 
REMARK  7 active torsions:
REMARK  status: ('A' for Active; 'I' for Inactive)
REMARK    1  A    between atoms: N_1  and  C_2
REMARK    2  A    between atoms: C_2  and  C_4
REMARK    3  A    between atoms: C_2  and  C_10
REMARK    4  A    between atoms: C_4  and  C_5
REMARK    5  A    between atoms: C_5  and  S_6
REMARK    6  A    between atoms: S_6  and  C_7
REMARK    7  A    between atoms: C_10  and  O_11
REMARK                            x       y       z     vdW  Elec       q    Type
REMARK                         _______ _______ _______ _____ _____    ______ ____
ROOT
ATOM      1  C   UNK     1       9.148  -4.583  25.627  0.00  0.00    +0.161 C 
ENDROOT
BRANCH   1   2
ATOM      2  N   UNK     1      10.192  -5.620  25.361  0.00  0.00    -0.318 NA
ATOM      3  H   UNK     1      10.306  -6.197  26.201  0.00  0.00    +0.119 HD
ATOM      4  H   UNK     1       9.827  -6.266  24.654  0.00  0.00    +0.119 HD
ENDBRANCH   1   2
BRANCH   1   5
ATOM      5  C   UNK     1       7.879  -5.298  26.137  0.00  0.00    +0.322 C 
ATOM      6  O   UNK     1       6.835  -5.412  25.517  0.00  0.00    -0.249 OA
BRANCH   5   7
ATOM      7  O   UNK     1       8.061  -5.789  27.391  0.00  0.00    -0.480 OA
ATOM      8  H   UNK     1       8.990  -5.548  27.636  0.00  0.00    +0.295 HD
ENDBRANCH   5   7
ENDBRANCH   1   5
BRANCH   1   9
ATOM      9  C   UNK     1       8.805  -3.758  24.381  0.00  0.00    +0.041 C 
BRANCH   9  10
ATOM     10  C   UNK     1       9.254  -2.301  24.478  0.00  0.00    +0.076 C 
BRANCH  10  11
ATOM     11  S   UNK     1       8.405  -1.320  23.205  0.00  0.00    -0.092 S 
BRANCH  11  12
ATOM     12  C   UNK     1       9.648  -1.451  21.912  0.00  0.00    +0.400 C 
ATOM     13  F   UNK     1      10.839  -1.818  22.451  0.00  0.00    -0.197 F 
ATOM     14  F   UNK     1       9.844  -0.241  21.330  0.00  0.00    -0.197 F 
ENDBRANCH  11  12
ENDBRANCH  10  11
ENDBRANCH   9  10
ENDBRANCH   1   9
TORSDOF 7
ENDMDL
MODEL 3
REMARK VINA RESULT:      -4.2      2.906      3.433
REMARK  Name = 
REMARK  7 active torsions:
REMARK  status: ('A' for Active; 'I' for Inactive)
REMARK    1  A    between atoms: N_1  and  C_2
REMARK    2  A    between atoms: C_2  and  C_4
REMARK    3  A    between atoms: C_2  and  C_10
REMARK    4  A    between atoms: C_4  and  C_5
REMARK    5  A    between atoms: C_5  and  S_6
REMARK    6  A    between atoms: S_6  and  C_7
REMARK    7  A    between atoms: C_10  and  O_11
REMARK                            x       y       z     vdW  Elec       q    Type
REMARK                         _______ _______ _______ _____ _____    ______ ____
ROOT
ATOM      1  C   UNK     1       7.976  -4.787  26.089  0.00  0.00    +0.161 C 
ENDROOT
BRANCH   1   2
ATOM      2  N   UNK     1       7.970  -5.655  27.306  0.00  0.00    -0.318 NA
ATOM      3  H   UNK     1       8.538  -6.489  27.119  0.00  0.00    +0.119 HD
ATOM      4  H   UNK     1       8.474  -5.165  28.051  0.00  0.00    +0.119 HD
ENDBRANCH   1   2
BRANCH   1   5
ATOM      5  C   UNK     1       9.005  -5.361  25.093  0.00  0.00    +0.322 C 
ATOM      6  O   UNK     1       8.801  -5.573  23.908  0.00  0.00    -0.249 OA
BRANCH   5   7
ATOM      7  O   UNK     1      10.191  -5.619  25.703  0.00  0.00    -0.480 OA
ATOM      8  H   UNK     1      10.427  -4.785  26.183  0.00  0.00    +0.295 HD
ENDBRANCH   5   7
ENDBRANCH   1   5
BRANCH   1   9
ATOM      9  C   UNK     1       8.332  -3.329  26.406  0.00  0.00    +0.041 C 
BRANCH   9  10
ATOM     10  C   UNK     1       7.737  -2.332  25.412  0.00  0.00    +0.076 C 
BRANCH  10  11
ATOM     11  S   UNK     1       9.004  -1.115  24.946  0.00  0.00    -0.092 S 
BRANCH  11  12
ATOM     12  C   UNK     1       9.609  -1.934  23.463  0.00  0.00    +0.400 C 
ATOM     13  F   UNK     1       8.595  -2.602  22.857  0.00  0.00    -0.197 F 
ATOM     14  F   UNK     1      10.542  -2.862  23.793  0.00  0.00    -0.197 F 
ENDBRANCH  11  12
ENDBRANCH  10  11
ENDBRANCH   9  10
ENDBRANCH   1   9
TORSDOF 7
ENDMDL
MODEL 4
REMARK VINA RESULT:      -4.1      5.579      6.101
REMARK  Name = 
REMARK  7 active torsions:
REMARK  status: ('A' for Active; 'I' for Inactive)
REMARK    1  A    between atoms: N_1  and  C_2
REMARK    2  A    between atoms: C_2  and  C_4
REMARK    3  A    between atoms: C_2  and  C_10
REMARK    4  A    between atoms: C_4  and  C_5
REMARK    5  A    between atoms: C_5  and  S_6
REMARK    6  A    between atoms: S_6  and  C_7
REMARK    7  A    between atoms: C_10  and  O_11
REMARK                            x       y       z     vdW  Elec       q    Type
REMARK                         _______ _______ _______ _____ _____    ______ ____
ROOT
ATOM      1  C   UNK     1       9.403  -1.037  24.395  0.00  0.00    +0.161 C 
ENDROOT
BRANCH   1   2
ATOM      2  N   UNK     1       8.795  -1.545  25.662  0.00  0.00    -0.318 NA
ATOM      3  H   UNK     1       9.051  -0.911  26.428  0.00  0.00    +0.119 HD
ATOM      4  H   UNK     1       7.777  -1.456  25.587  0.00  0.00    +0.119 HD
ENDBRANCH   1   2
BRANCH   1   5
ATOM      5  C   UNK     1      10.050  -2.230  23.659  0.00  0.00    +0.322 C 
ATOM      6  O   UNK     1      10.073  -3.381  24.063  0.00  0.00    -0.249 OA
BRANCH   5   7
ATOM      7  O   UNK     1      10.613  -1.838  22.486  0.00  0.00    -0.480 OA
ATOM      8  H   UNK     1      10.762  -0.863  22.578  0.00  0.00    +0.295 HD
ENDBRANCH   5   7
ENDBRANCH   1   5
BRANCH   1   9
ATOM      9  C   UNK     1      10.460   0.046  24.640  0.00  0.00    +0.041 C 
BRANCH   9  10
ATOM     10  C   UNK     1       9.999   1.444  24.229  0.00  0.00    +0.076 C 
BRANCH  10  11
ATOM     11  S   UNK     1       8.449   1.318  23.288  0.00  0.00    -0.092 S 
BRANCH  11  12
ATOM     12  C   UNK     1       9.130   1.563  21.642  0.00  0.00    +0.400 C 
ATOM     13  F   UNK     1       9.112   0.394  20.954  0.00  0.00    -0.197 F 
ATOM     14  F   UNK     1      10.430   1.941  21.729  0.00  0.00    -0.197 F 
ENDBRANCH  11  12
ENDBRANCH  10  11
ENDBRANCH   9  10
ENDBRANCH   1   9
TORSDOF 7
ENDMDL
MODEL 5
REMARK VINA RESULT:      -4.1      1.954      2.107
REMARK  Name = 
REMARK  7 active torsions:
REMARK  status: ('A' for Active; 'I' for Inactive)
REMARK    1  A    between atoms: N_1  and  C_2
REMARK    2  A    between atoms: C_2  and  C_4
REMARK    3  A    between atoms: C_2  and  C_10
REMARK    4  A    between atoms: C_4  and  C_5
REMARK    5  A    between atoms: C_5  and  S_6
REMARK    6  A    between atoms: S_6  and  C_7
REMARK    7  A    between atoms: C_10  and  O_11
REMARK                            x       y       z     vdW  Elec       q    Type
REMARK                         _______ _______ _______ _____ _____    ______ ____
ROOT
ATOM      1  C   UNK     1       9.107  -4.592  25.313  0.00  0.00    +0.161 C 
ENDROOT
BRANCH   1   2
ATOM      2  N   UNK     1      10.218  -5.590  25.369  0.00  0.00    -0.318 NA
ATOM      3  H   UNK     1       9.864  -6.455  25.792  0.00  0.00    +0.119 HD
ATOM      4  H   UNK     1      10.459  -5.855  24.409  0.00  0.00    +0.119 HD
ENDBRANCH   1   2
BRANCH   1   5
ATOM      5  C   UNK     1       8.233  -4.773  26.572  0.00  0.00    +0.322 C 
ATOM      6  O   UNK     1       7.652  -3.878  27.163  0.00  0.00    -0.249 OA
BRANCH   5   7
ATOM      7  O   UNK     1       8.192  -6.074  26.960  0.00  0.00    -0.480 OA
ATOM      8  H   UNK     1       7.968  -6.586  26.142  0.00  0.00    +0.295 HD
ENDBRANCH   5   7
ENDBRANCH   1   5
BRANCH   1   9
ATOM      9  C   UNK     1       8.237  -4.748  24.060  0.00  0.00    +0.041 C 
BRANCH   9  10
ATOM     10  C   UNK     1       7.529  -3.457  23.651  0.00  0.00    +0.076 C 
BRANCH  10  11
ATOM     11  S   UNK     1       6.590  -3.740  22.120  0.00  0.00    -0.092 S 
BRANCH  11  12
ATOM     12  C   UNK     1       6.672  -5.537  22.102  0.00  0.00    +0.400 C 
ATOM     13  F   UNK     1       7.401  -5.956  21.036  0.00  0.00    -0.197 F 
ATOM     14  F   UNK     1       5.429  -6.058  21.949  0.00  0.00    -0.197 F 
ENDBRANCH  11  12
ENDBRANCH  10  11
ENDBRANCH   9  10
ENDBRANCH   1   9
TORSDOF 7
ENDMDL
MODEL 6
REMARK VINA RESULT:      -4.1      9.347      9.849
REMARK  Name = 
REMARK  7 active torsions:
REMARK  status: ('A' for Active; 'I' for Inactive)
REMARK    1  A    between atoms: N_1  and  C_2
REMARK    2  A    between atoms: C_2  and  C_4
REMARK    3  A    between atoms: C_2  and  C_10
REMARK    4  A    between atoms: C_4  and  C_5
REMARK    5  A    between atoms: C_5  and  S_6
REMARK    6  A    between atoms: S_6  and  C_7
REMARK    7  A    between atoms: C_10  and  O_11
REMARK                            x       y       z     vdW  Elec       q    Type
REMARK                         _______ _______ _______ _____ _____    ______ ____
ROOT
ATOM      1  C   UNK     1      11.882   4.983  23.519  0.00  0.00    +0.161 C 
ENDROOT
BRANCH   1   2
ATOM      2  N   UNK     1      10.782   5.891  23.070  0.00  0.00    -0.318 NA
ATOM      3  H   UNK     1      10.176   6.097  23.871  0.00  0.00    +0.119 HD
ATOM      4  H   UNK     1      11.195   6.796  22.823  0.00  0.00    +0.119 HD
ENDBRANCH   1   2
BRANCH   1   5
ATOM      5  C   UNK     1      13.127   5.270  22.654  0.00  0.00    +0.322 C 
ATOM      6  O   UNK     1      13.110   5.671  21.502  0.00  0.00    -0.249 OA
BRANCH   5   7
ATOM      7  O   UNK     1      14.272   5.009  23.337  0.00  0.00    -0.480 OA
ATOM      8  H   UNK     1      14.000   4.436  24.098  0.00  0.00    +0.295 HD
ENDBRANCH   5   7
ENDBRANCH   1   5
BRANCH   1   9
ATOM      9  C   UNK     1      11.508   3.501  23.401  0.00  0.00    +0.041 C 
BRANCH   9  10
ATOM     10  C   UNK     1      10.008   3.243  23.544  0.00  0.00    +0.076 C 
BRANCH  10  11
ATOM     11  S   UNK     1       9.739   1.534  24.103  0.00  0.00    -0.092 S 
BRANCH  11  12
ATOM     12  C   UNK     1      10.057   0.702  22.541  0.00  0.00    +0.400 C 
ATOM     13  F   UNK     1       9.818   1.550  21.508  0.00  0.00    -0.197 F 
ATOM     14  F   UNK     1       9.206  -0.343  22.389  0.00  0.00    -0.197 F 
ENDBRANCH  11  12
ENDBRANCH  10  11
ENDBRANCH   9  10
ENDBRANCH   1   9
TORSDOF 7
ENDMDL
MODEL 7
REMARK VINA RESULT:      -4.0      3.877      4.436
REMARK  Name = 
REMARK  7 active torsions:
REMARK  status: ('A' for Active; 'I' for Inactive)
REMARK    1  A    between atoms: N_1  and  C_2
REMARK    2  A    between atoms: C_2  and  C_4
REMARK    3  A    between atoms: C_2  and  C_10
REMARK    4  A    between atoms: C_4  and  C_5
REMARK    5  A    between atoms: C_5  and  S_6
REMARK    6  A    between atoms: S_6  and  C_7
REMARK    7  A    between atoms: C_10  and  O_11
REMARK                            x       y       z     vdW  Elec       q    Type
REMARK                         _______ _______ _______ _____ _____    ______ ____
ROOT
ATOM      1  C   UNK     1       9.192  -4.523  25.395  0.00  0.00    +0.161 C 
ENDROOT
BRANCH   1   2
ATOM      2  N   UNK     1      10.229  -5.599  25.394  0.00  0.00    -0.318 NA
ATOM      3  H   UNK     1      10.053  -6.227  24.602  0.00  0.00    +0.119 HD
ATOM      4  H   UNK     1      11.135  -5.169  25.182  0.00  0.00    +0.119 HD
ENDBRANCH   1   2
BRANCH   1   5
ATOM      5  C   UNK     1       8.248  -4.765  26.592  0.00  0.00    +0.322 C 
ATOM      6  O   UNK     1       7.626  -3.901  27.188  0.00  0.00    -0.249 OA
BRANCH   5   7
ATOM      7  O   UNK     1       8.196  -6.083  26.920  0.00  0.00    -0.480 OA
ATOM      8  H   UNK     1       8.281  -6.112  27.906  0.00  0.00    +0.295 HD
ENDBRANCH   5   7
ENDBRANCH   1   5
BRANCH   1   9
ATOM      9  C   UNK     1       8.374  -4.490  24.099  0.00  0.00    +0.041 C 
BRANCH   9  10
ATOM     10  C   UNK     1       8.271  -3.095  23.484  0.00  0.00    +0.076 C 
BRANCH  10  11
ATOM     11  S   UNK     1       9.866  -2.240  23.655  0.00  0.00    -0.092 S 
BRANCH  11  12
ATOM     12  C   UNK     1       9.298  -0.832  24.618  0.00  0.00    +0.400 C 
ATOM     13  F   UNK     1      10.355  -0.215  25.205  0.00  0.00    -0.197 F 
ATOM     14  F   UNK     1       8.488  -1.252  25.622  0.00  0.00    -0.197 F 
ENDBRANCH  11  12
ENDBRANCH  10  11
ENDBRANCH   9  10
ENDBRANCH   1   9
TORSDOF 7
ENDMDL
MODEL 8
REMARK VINA RESULT:      -4.0      6.294      6.835
REMARK  Name = 
REMARK  7 active torsions:
REMARK  status: ('A' for Active; 'I' for Inactive)
REMARK    1  A    between atoms: N_1  and  C_2
REMARK    2  A    between atoms: C_2  and  C_4
REMARK    3  A    between atoms: C_2  and  C_10
REMARK    4  A    between atoms: C_4  and  C_5
REMARK    5  A    between atoms: C_5  and  S_6
REMARK    6  A    between atoms: S_6  and  C_7
REMARK    7  A    between atoms: C_10  and  O_11
REMARK                            x       y       z     vdW  Elec       q    Type
REMARK                         _______ _______ _______ _____ _____    ______ ____
ROOT
ATOM      1  C   UNK     1       9.996   1.995  24.055  0.00  0.00    +0.161 C 
ENDROOT
BRANCH   1   2
ATOM      2  N   UNK     1       8.906   2.054  25.076  0.00  0.00    -0.318 NA
ATOM      3  H   UNK     1       8.607   1.097  25.295  0.00  0.00    +0.119 HD
ATOM      4  H   UNK     1       9.307   2.402  25.952  0.00  0.00    +0.119 HD
ENDBRANCH   1   2
BRANCH   1   5
ATOM      5  C   UNK     1       9.377   2.283  22.672  0.00  0.00    +0.322 C 
ATOM      6  O   UNK     1       8.188   2.448  22.450  0.00  0.00    -0.249 OA
BRANCH   5   7
ATOM      7  O   UNK     1      10.330   2.323  21.704  0.00  0.00    -0.480 OA
ATOM      8  H   UNK     1      10.173   1.519  21.146  0.00  0.00    +0.295 HD
ENDBRANCH   5   7
ENDBRANCH   1   5
BRANCH   1   9
ATOM      9  C   UNK     1      10.703   0.634  24.025  0.00  0.00    +0.041 C 
BRANCH   9  10
ATOM     10  C   UNK     1       9.788  -0.530  24.400  0.00  0.00    +0.076 C 
BRANCH  10  11
ATOM     11  S   UNK     1      10.050  -1.904  23.238  0.00  0.00    -0.092 S 
BRANCH  11  12
ATOM     12  C   UNK     1       8.852  -1.413  21.990  0.00  0.00    +0.400 C 
ATOM     13  F   UNK     1       9.445  -0.614  21.067  0.00  0.00    -0.197 F 
ATOM     14  F   UNK     1       7.863  -0.679  22.559  0.00  0.00    -0.197 F 
ENDBRANCH  11  12
ENDBRANCH  10  11
ENDBRANCH   9  10
ENDBRANCH   1   9
TORSDOF 7
ENDMDL
MODEL 9
REMARK VINA RESULT:      -3.9      7.215      7.890
REMARK  Name = 
REMARK  7 active torsions:
REMARK  status: ('A' for Active; 'I' for Inactive)
REMARK    1  A    between atoms: N_1  and  C_2
REMARK    2  A    between atoms: C_2  and  C_4
REMARK    3  A    between atoms: C_2  and  C_10
REMARK    4  A    between atoms: C_4  and  C_5
REMARK    5  A    between atoms: C_5  and  S_6
REMARK    6  A    between atoms: S_6  and  C_7
REMARK    7  A    between atoms: C_10  and  O_11
REMARK                            x       y       z     vdW  Elec       q    Type
REMARK                         _______ _______ _______ _____ _____    ______ ____
ROOT
ATOM      1  C   UNK     1       8.951   1.293  21.318  0.00  0.00    +0.161 C 
ENDROOT
BRANCH   1   2
ATOM      2  N   UNK     1      10.144   2.107  21.703  0.00  0.00    -0.318 NA
ATOM      3  H   UNK     1      10.589   1.675  22.520  0.00  0.00    +0.119 HD
ATOM      4  H   UNK     1      10.842   2.024  20.958  0.00  0.00    +0.119 HD
ENDBRANCH   1   2
BRANCH   1   5
ATOM      5  C   UNK     1       7.752   1.763  22.168  0.00  0.00    +0.322 C 
ATOM      6  O   UNK     1       6.791   1.077  22.475  0.00  0.00    -0.249 OA
BRANCH   5   7
ATOM      7  O   UNK     1       7.889   3.064  22.535  0.00  0.00    -0.480 OA
ATOM      8  H   UNK     1       7.001   3.475  22.382  0.00  0.00    +0.295 HD
ENDBRANCH   5   7
ENDBRANCH   1   5
BRANCH   1   9
ATOM      9  C   UNK     1       9.170  -0.210  21.531  0.00  0.00    +0.041 C 
BRANCH   9  10
ATOM     10  C   UNK     1      10.331  -0.524  22.474  0.00  0.00    +0.076 C 
BRANCH  10  11
ATOM     11  S   UNK     1       9.679  -0.911  24.126  0.00  0.00    -0.092 S 
BRANCH  11  12
ATOM     12  C   UNK     1      10.433   0.453  25.022  0.00  0.00    +0.400 C 
ATOM     13  F   UNK     1       9.663   1.565  24.908  0.00  0.00    -0.197 F 
ATOM     14  F   UNK     1      11.637   0.759  24.477  0.00  0.00    -0.197 F 
ENDBRANCH  11  12
ENDBRANCH  10  11
ENDBRANCH   9  10
ENDBRANCH   1   9
TORSDOF 7
ENDMDL
