MODEL 1
REMARK VINA RESULT:      -7.1      0.000      0.000
REMARK  Name = 
REMARK  3 active torsions:
REMARK  status: ('A' for Active; 'I' for Inactive)
REMARK    1  A    between atoms: C_1  and  C_2
REMARK    2  A    between atoms: C_5  and  C_7
REMARK    3  A    between atoms: C_12  and  N_13
REMARK                            x       y       z     vdW  Elec       q    Type
REMARK                         _______ _______ _______ _____ _____    ______ ____
ROOT
ATOM      1  C   UNL     1       6.425  -3.367  23.140  0.00  0.00    +0.040 A 
ATOM      2  C   UNL     1       7.359  -4.244  23.730  0.00  0.00    +0.043 A 
ATOM      3  C   UNL     1       7.726  -5.401  23.005  0.00  0.00    +0.024 A 
ATOM      4  C   UNL     1       7.062  -5.788  21.842  0.00  0.00    +0.002 A 
ATOM      5  C   UNL     1       6.057  -4.986  21.333  0.00  0.00    +0.001 A 
ATOM      6  C   UNL     1       5.770  -3.776  21.956  0.00  0.00    +0.013 A 
ENDROOT
BRANCH   2   7
ATOM      7  N   UNL     1       7.986  -3.967  24.985  0.00  0.00    -0.298 N 
ATOM      8  H   UNL     1       7.322  -4.125  25.747  0.00  0.00    +0.154 HD
ATOM      9  C   UNL     1       8.609  -2.727  25.287  0.00  0.00    +0.135 A 
ATOM     10  C   UNL     1       9.403  -1.987  24.383  0.00  0.00    +0.059 A 
ATOM     11  C   UNL     1       9.954  -2.182  23.082  0.00  0.00    +0.032 A 
ATOM     12  C   UNL     1      10.517  -0.991  22.676  0.00  0.00    +0.085 A 
ATOM     13  N   UNL     1      10.347  -0.086  23.690  0.00  0.00    -0.346 N 
ATOM     14  H   UNL     1      10.617   0.888  23.675  0.00  0.00    +0.167 HD
ATOM     15  C   UNL     1       9.729  -0.691  24.751  0.00  0.00    +0.143 A 
ATOM     16  N   UNL     1       9.460  -0.096  25.921  0.00  0.00    -0.218 NA
ATOM     17  C   UNL     1       8.807  -0.927  26.751  0.00  0.00    +0.225 A 
ATOM     18  N   UNL     1       8.360  -2.175  26.505  0.00  0.00    -0.220 NA
ENDBRANCH   2   7
BRANCH   1  23
ATOM     19  C   UNL     1       6.427   1.512  24.116  0.00  0.00    +0.088 C 
ATOM     20  C   UNL     1       6.027   0.092  24.108  0.00  0.00    +0.128 A 
ATOM     21  N   UNL     1       6.436  -0.830  23.177  0.00  0.00    -0.325 N 
ATOM     22  H   UNL     1       7.012  -0.674  22.361  0.00  0.00    +0.169 HD
ATOM     23  C   UNL     1       6.036  -2.053  23.649  0.00  0.00    +0.163 A 
ATOM     24  N   UNL     1       5.290  -1.848  24.720  0.00  0.00    -0.129 NA
ATOM     25  N   UNL     1       5.288  -0.513  25.009  0.00  0.00    -0.135 NA
ENDBRANCH   1  23
TORSDOF 2
ENDMDL
MODEL 2
REMARK VINA RESULT:      -7.0      1.944      3.745
REMARK  Name = 
REMARK  3 active torsions:
REMARK  status: ('A' for Active; 'I' for Inactive)
REMARK    1  A    between atoms: C_1  and  C_2
REMARK    2  A    between atoms: C_5  and  C_7
REMARK    3  A    between atoms: C_12  and  N_13
REMARK                            x       y       z     vdW  Elec       q    Type
REMARK                         _______ _______ _______ _____ _____    ______ ____
ROOT
ATOM      1  C   UNL     1       6.737  -4.786  23.778  0.00  0.00    +0.040 A 
ATOM      2  C   UNL     1       6.302  -3.561  23.228  0.00  0.00    +0.043 A 
ATOM      3  C   UNL     1       5.886  -3.557  21.877  0.00  0.00    +0.024 A 
ATOM      4  C   UNL     1       6.075  -4.656  21.040  0.00  0.00    +0.002 A 
ATOM      5  C   UNL     1       6.620  -5.818  21.555  0.00  0.00    +0.001 A 
ATOM      6  C   UNL     1       6.912  -5.890  22.913  0.00  0.00    +0.013 A 
ENDROOT
BRANCH   2   7
ATOM      7  N   UNL     1       6.205  -2.363  24.002  0.00  0.00    -0.298 N 
ATOM      8  H   UNL     1       5.230  -2.061  24.052  0.00  0.00    +0.154 HD
ATOM      9  C   UNL     1       6.945  -1.186  23.711  0.00  0.00    +0.135 A 
ATOM     10  C   UNL     1       8.295  -1.170  23.295  0.00  0.00    +0.059 A 
ATOM     11  C   UNL     1       9.353  -2.117  23.159  0.00  0.00    +0.032 A 
ATOM     12  C   UNL     1      10.411  -1.486  22.539  0.00  0.00    +0.085 A 
ATOM     13  N   UNL     1      10.042  -0.186  22.312  0.00  0.00    -0.346 N 
ATOM     14  H   UNL     1      10.589   0.517  21.835  0.00  0.00    +0.167 HD
ATOM     15  C   UNL     1       8.789   0.034  22.818  0.00  0.00    +0.143 A 
ATOM     16  N   UNL     1       8.155   1.214  22.804  0.00  0.00    -0.218 NA
ATOM     17  C   UNL     1       6.923   1.110  23.331  0.00  0.00    +0.225 A 
ATOM     18  N   UNL     1       6.286   0.002  23.759  0.00  0.00    -0.220 NA
ENDBRANCH   2   7
BRANCH   1  23
ATOM     19  C   UNL     1       6.304  -6.081  28.562  0.00  0.00    +0.088 C 
ATOM     20  C   UNL     1       6.881  -5.581  27.300  0.00  0.00    +0.128 A 
ATOM     21  N   UNL     1       6.386  -5.858  26.051  0.00  0.00    -0.325 N 
ATOM     22  H   UNL     1       5.611  -6.460  25.810  0.00  0.00    +0.169 HD
ATOM     23  C   UNL     1       7.054  -5.034  25.183  0.00  0.00    +0.163 A 
ATOM     24  N   UNL     1       8.006  -4.419  25.863  0.00  0.00    -0.129 NA
ATOM     25  N   UNL     1       7.896  -4.756  27.181  0.00  0.00    -0.135 NA
ENDBRANCH   1  23
TORSDOF 2
ENDMDL
MODEL 3
REMARK VINA RESULT:      -6.9      2.448      4.359
REMARK  Name = 
REMARK  3 active torsions:
REMARK  status: ('A' for Active; 'I' for Inactive)
REMARK    1  A    between atoms: C_1  and  C_2
REMARK    2  A    between atoms: C_5  and  C_7
REMARK    3  A    between atoms: C_12  and  N_13
REMARK                            x       y       z     vdW  Elec       q    Type
REMARK                         _______ _______ _______ _____ _____    ______ ____
ROOT
ATOM      1  C   UNL     1       6.952  -4.708  24.619  0.00  0.00    +0.040 A 
ATOM      2  C   UNL     1       8.135  -4.095  24.151  0.00  0.00    +0.043 A 
ATOM      3  C   UNL     1       9.270  -4.129  24.992  0.00  0.00    +0.024 A 
ATOM      4  C   UNL     1       9.201  -4.564  26.315  0.00  0.00    +0.002 A 
ATOM      5  C   UNL     1       8.003  -5.049  26.809  0.00  0.00    +0.001 A 
ATOM      6  C   UNL     1       6.906  -5.151  25.959  0.00  0.00    +0.013 A 
ENDROOT
BRANCH   2   7
ATOM      7  N   UNL     1       8.235  -3.515  22.849  0.00  0.00    -0.298 N 
ATOM      8  H   UNL     1       9.079  -3.855  22.382  0.00  0.00    +0.154 HD
ATOM      9  C   UNL     1       8.223  -2.113  22.617  0.00  0.00    +0.135 A 
ATOM     10  C   UNL     1       7.387  -1.197  23.293  0.00  0.00    +0.059 A 
ATOM     11  C   UNL     1       6.295  -1.264  24.209  0.00  0.00    +0.032 A 
ATOM     12  C   UNL     1       6.010   0.019  24.625  0.00  0.00    +0.085 A 
ATOM     13  N   UNL     1       6.874   0.865  23.981  0.00  0.00    -0.346 N 
ATOM     14  H   UNL     1       6.940   1.865  24.109  0.00  0.00    +0.167 HD
ATOM     15  C   UNL     1       7.672   0.150  23.127  0.00  0.00    +0.143 A 
ATOM     16  N   UNL     1       8.591   0.682  22.312  0.00  0.00    -0.218 NA
ATOM     17  C   UNL     1       9.247  -0.271  21.629  0.00  0.00    +0.225 A 
ATOM     18  N   UNL     1       9.132  -1.609  21.742  0.00  0.00    -0.220 NA
ENDBRANCH   2   7
BRANCH   1  23
ATOM     19  C   UNL     1       2.164  -5.376  23.444  0.00  0.00    +0.088 C 
ATOM     20  C   UNL     1       3.626  -5.233  23.308  0.00  0.00    +0.128 A 
ATOM     21  N   UNL     1       4.444  -4.647  24.241  0.00  0.00    -0.325 N 
ATOM     22  H   UNL     1       4.177  -4.200  25.107  0.00  0.00    +0.169 HD
ATOM     23  C   UNL     1       5.729  -4.918  23.847  0.00  0.00    +0.163 A 
ATOM     24  N   UNL     1       5.673  -5.495  22.660  0.00  0.00    -0.129 NA
ATOM     25  N   UNL     1       4.365  -5.695  22.325  0.00  0.00    -0.135 NA
ENDBRANCH   1  23
TORSDOF 2
ENDMDL
MODEL 4
REMARK VINA RESULT:      -6.8      1.939      4.313
REMARK  Name = 
REMARK  3 active torsions:
REMARK  status: ('A' for Active; 'I' for Inactive)
REMARK    1  A    between atoms: C_1  and  C_2
REMARK    2  A    between atoms: C_5  and  C_7
REMARK    3  A    between atoms: C_12  and  N_13
REMARK                            x       y       z     vdW  Elec       q    Type
REMARK                         _______ _______ _______ _____ _____    ______ ____
ROOT
ATOM      1  C   UNL     1       7.364   0.735  23.386  0.00  0.00    +0.040 A 
ATOM      2  C   UNL     1       8.394  -0.203  23.609  0.00  0.00    +0.043 A 
ATOM      3  C   UNL     1       9.542  -0.129  22.787  0.00  0.00    +0.024 A 
ATOM      4  C   UNL     1       9.596   0.696  21.664  0.00  0.00    +0.002 A 
ATOM      5  C   UNL     1       8.527   1.526  21.376  0.00  0.00    +0.001 A 
ATOM      6  C   UNL     1       7.444   1.567  22.248  0.00  0.00    +0.013 A 
ENDROOT
BRANCH   2   7
ATOM      7  N   UNL     1       8.343  -1.162  24.668  0.00  0.00    -0.298 N 
ATOM      8  H   UNL     1       9.155  -1.047  25.280  0.00  0.00    +0.154 HD
ATOM      9  C   UNL     1       8.240  -2.561  24.447  0.00  0.00    +0.135 A 
ATOM     10  C   UNL     1       7.429  -3.159  23.458  0.00  0.00    +0.059 A 
ATOM     11  C   UNL     1       6.432  -2.731  22.531  0.00  0.00    +0.032 A 
ATOM     12  C   UNL     1       6.126  -3.798  21.713  0.00  0.00    +0.085 A 
ATOM     13  N   UNL     1       6.883  -4.864  22.122  0.00  0.00    -0.346 N 
ATOM     14  H   UNL     1       6.912  -5.778  21.692  0.00  0.00    +0.167 HD
ATOM     15  C   UNL     1       7.630  -4.509  23.214  0.00  0.00    +0.143 A 
ATOM     16  N   UNL     1       8.441  -5.335  23.887  0.00  0.00    -0.218 NA
ATOM     17  C   UNL     1       9.076  -4.691  24.881  0.00  0.00    +0.225 A 
ATOM     18  N   UNL     1       9.038  -3.378  25.186  0.00  0.00    -0.220 NA
ENDBRANCH   2   7
BRANCH   1  23
ATOM     19  C   UNL     1       3.988   2.811  26.394  0.00  0.00    +0.088 C 
ATOM     20  C   UNL     1       4.687   1.815  25.561  0.00  0.00    +0.128 A 
ATOM     21  N   UNL     1       5.608   2.117  24.590  0.00  0.00    -0.325 N 
ATOM     22  H   UNL     1       5.903   3.031  24.277  0.00  0.00    +0.169 HD
ATOM     23  C   UNL     1       6.178   0.926  24.220  0.00  0.00    +0.163 A 
ATOM     24  N   UNL     1       5.515  -0.044  24.824  0.00  0.00    -0.129 NA
ATOM     25  N   UNL     1       4.589   0.509  25.662  0.00  0.00    -0.135 NA
ENDBRANCH   1  23
TORSDOF 2
ENDMDL
MODEL 5
REMARK VINA RESULT:      -6.8      3.628      5.274
REMARK  Name = 
REMARK  3 active torsions:
REMARK  status: ('A' for Active; 'I' for Inactive)
REMARK    1  A    between atoms: C_1  and  C_2
REMARK    2  A    between atoms: C_5  and  C_7
REMARK    3  A    between atoms: C_12  and  N_13
REMARK                            x       y       z     vdW  Elec       q    Type
REMARK                         _______ _______ _______ _____ _____    ______ ____
ROOT
ATOM      1  C   UNL     1       6.655  -4.736  24.172  0.00  0.00    +0.040 A 
ATOM      2  C   UNL     1       6.240  -5.589  25.217  0.00  0.00    +0.043 A 
ATOM      3  C   UNL     1       5.065  -6.349  25.018  0.00  0.00    +0.024 A 
ATOM      4  C   UNL     1       4.220  -6.138  23.929  0.00  0.00    +0.002 A 
ATOM      5  C   UNL     1       4.569  -5.207  22.968  0.00  0.00    +0.001 A 
ATOM      6  C   UNL     1       5.787  -4.544  23.073  0.00  0.00    +0.013 A 
ENDROOT
BRANCH   2   7
ATOM      7  N   UNL     1       6.997  -5.756  26.418  0.00  0.00    -0.298 N 
ATOM      8  H   UNL     1       7.399  -6.695  26.447  0.00  0.00    +0.154 HD
ATOM      9  C   UNL     1       6.457  -5.543  27.714  0.00  0.00    +0.135 A 
ATOM     10  C   UNL     1       5.578  -4.490  28.054  0.00  0.00    +0.059 A 
ATOM     11  C   UNL     1       5.065  -3.318  27.423  0.00  0.00    +0.032 A 
ATOM     12  C   UNL     1       4.103  -2.777  28.249  0.00  0.00    +0.085 A 
ATOM     13  N   UNL     1       4.027  -3.565  29.368  0.00  0.00    -0.346 N 
ATOM     14  H   UNL     1       3.383  -3.450  30.138  0.00  0.00    +0.167 HD
ATOM     15  C   UNL     1       4.955  -4.569  29.290  0.00  0.00    +0.143 A 
ATOM     16  N   UNL     1       5.174  -5.484  30.243  0.00  0.00    -0.218 NA
ATOM     17  C   UNL     1       6.113  -6.367  29.864  0.00  0.00    +0.225 A 
ATOM     18  N   UNL     1       6.743  -6.460  28.676  0.00  0.00    -0.220 NA
ENDBRANCH   2   7
BRANCH   1  23
ATOM     19  C   UNL     1      10.180  -1.515  22.773  0.00  0.00    +0.088 C 
ATOM     20  C   UNL     1       9.488  -2.594  23.504  0.00  0.00    +0.128 A 
ATOM     21  N   UNL     1       8.127  -2.772  23.530  0.00  0.00    -0.325 N 
ATOM     22  H   UNL     1       7.417  -2.188  23.110  0.00  0.00    +0.169 HD
ATOM     23  C   UNL     1       7.912  -3.992  24.115  0.00  0.00    +0.163 A 
ATOM     24  N   UNL     1       9.075  -4.439  24.556  0.00  0.00    -0.129 NA
ATOM     25  N   UNL     1      10.056  -3.571  24.172  0.00  0.00    -0.135 NA
ENDBRANCH   1  23
TORSDOF 2
ENDMDL
MODEL 6
REMARK VINA RESULT:      -6.6      3.038      4.797
REMARK  Name = 
REMARK  3 active torsions:
REMARK  status: ('A' for Active; 'I' for Inactive)
REMARK    1  A    between atoms: C_1  and  C_2
REMARK    2  A    between atoms: C_5  and  C_7
REMARK    3  A    between atoms: C_12  and  N_13
REMARK                            x       y       z     vdW  Elec       q    Type
REMARK                         _______ _______ _______ _____ _____    ______ ____
ROOT
ATOM      1  C   UNL     1       6.326  -3.350  23.510  0.00  0.00    +0.040 A 
ATOM      2  C   UNL     1       6.851  -4.378  24.321  0.00  0.00    +0.043 A 
ATOM      3  C   UNL     1       7.315  -5.550  23.681  0.00  0.00    +0.024 A 
ATOM      4  C   UNL     1       7.093  -5.792  22.326  0.00  0.00    +0.002 A 
ATOM      5  C   UNL     1       6.463  -4.829  21.558  0.00  0.00    +0.001 A 
ATOM      6  C   UNL     1       6.118  -3.613  22.138  0.00  0.00    +0.013 A 
ENDROOT
BRANCH   2   7
ATOM      7  N   UNL     1       6.989  -4.243  25.738  0.00  0.00    -0.298 N 
ATOM      8  H   UNL     1       7.980  -4.202  25.987  0.00  0.00    +0.154 HD
ATOM      9  C   UNL     1       6.410  -5.149  26.666  0.00  0.00    +0.135 A 
ATOM     10  C   UNL     1       5.120  -5.712  26.540  0.00  0.00    +0.059 A 
ATOM     11  C   UNL     1       3.990  -5.541  25.687  0.00  0.00    +0.032 A 
ATOM     12  C   UNL     1       3.075  -6.526  25.993  0.00  0.00    +0.085 A 
ATOM     13  N   UNL     1       3.598  -7.275  27.014  0.00  0.00    -0.346 N 
ATOM     14  H   UNL     1       3.180  -8.096  27.429  0.00  0.00    +0.167 HD
ATOM     15  C   UNL     1       4.807  -6.757  27.394  0.00  0.00    +0.143 A 
ATOM     16  N   UNL     1       5.558  -7.227  28.399  0.00  0.00    -0.218 NA
ATOM     17  C   UNL     1       6.710  -6.544  28.506  0.00  0.00    +0.225 A 
ATOM     18  N   UNL     1       7.180  -5.565  27.707  0.00  0.00    -0.220 NA
ENDBRANCH   2   7
BRANCH   1  23
ATOM     19  C   UNL     1       6.401   1.556  24.335  0.00  0.00    +0.088 C 
ATOM     20  C   UNL     1       5.965   0.147  24.348  0.00  0.00    +0.128 A 
ATOM     21  N   UNL     1       6.401  -0.814  23.471  0.00  0.00    -0.325 N 
ATOM     22  H   UNL     1       7.025  -0.698  22.684  0.00  0.00    +0.169 HD
ATOM     23  C   UNL     1       5.944  -2.011  23.956  0.00  0.00    +0.163 A 
ATOM     24  N   UNL     1       5.145  -1.754  24.977  0.00  0.00    -0.129 NA
ATOM     25  N   UNL     1       5.161  -0.411  25.224  0.00  0.00    -0.135 NA
ENDBRANCH   1  23
TORSDOF 2
ENDMDL
MODEL 7
REMARK VINA RESULT:      -6.6      2.023      4.612
REMARK  Name = 
REMARK  3 active torsions:
REMARK  status: ('A' for Active; 'I' for Inactive)
REMARK    1  A    between atoms: C_1  and  C_2
REMARK    2  A    between atoms: C_5  and  C_7
REMARK    3  A    between atoms: C_12  and  N_13
REMARK                            x       y       z     vdW  Elec       q    Type
REMARK                         _______ _______ _______ _____ _____    ______ ____
ROOT
ATOM      1  C   UNL     1       8.067  -0.731  24.490  0.00  0.00    +0.040 A 
ATOM      2  C   UNL     1       8.564  -1.474  23.398  0.00  0.00    +0.043 A 
ATOM      3  C   UNL     1       9.862  -1.169  22.930  0.00  0.00    +0.024 A 
ATOM      4  C   UNL     1      10.568  -0.052  23.378  0.00  0.00    +0.002 A 
ATOM      5  C   UNL     1      10.019   0.749  24.363  0.00  0.00    +0.001 A 
ATOM      6  C   UNL     1       8.802   0.391  24.933  0.00  0.00    +0.013 A 
ENDROOT
BRANCH   2   7
ATOM      7  N   UNL     1       7.835  -2.554  22.809  0.00  0.00    -0.298 N 
ATOM      8  H   UNL     1       7.007  -2.192  22.331  0.00  0.00    +0.154 HD
ATOM      9  C   UNL     1       7.377  -3.678  23.546  0.00  0.00    +0.135 A 
ATOM     10  C   UNL     1       8.117  -4.330  24.558  0.00  0.00    +0.059 A 
ATOM     11  C   UNL     1       9.443  -4.268  25.080  0.00  0.00    +0.032 A 
ATOM     12  C   UNL     1       9.498  -5.075  26.196  0.00  0.00    +0.085 A 
ATOM     13  N   UNL     1       8.261  -5.642  26.359  0.00  0.00    -0.346 N 
ATOM     14  H   UNL     1       7.976  -6.250  27.113  0.00  0.00    +0.167 HD
ATOM     15  C   UNL     1       7.434  -5.247  25.341  0.00  0.00    +0.143 A 
ATOM     16  N   UNL     1       6.171  -5.660  25.178  0.00  0.00    -0.218 NA
ATOM     17  C   UNL     1       5.598  -5.067  24.117  0.00  0.00    +0.225 A 
ATOM     18  N   UNL     1       6.107  -4.109  23.318  0.00  0.00    -0.220 NA
ENDBRANCH   2   7
BRANCH   1  23
ATOM     19  C   UNL     1       4.772  -2.696  27.658  0.00  0.00    +0.088 C 
ATOM     20  C   UNL     1       5.351  -1.858  26.592  0.00  0.00    +0.128 A 
ATOM     21  N   UNL     1       6.692  -1.613  26.432  0.00  0.00    -0.325 N 
ATOM     22  H   UNL     1       7.453  -1.917  27.023  0.00  0.00    +0.169 HD
ATOM     23  C   UNL     1       6.826  -0.993  25.216  0.00  0.00    +0.163 A 
ATOM     24  N   UNL     1       5.613  -0.741  24.756  0.00  0.00    -0.129 NA
ATOM     25  N   UNL     1       4.695  -1.282  25.610  0.00  0.00    -0.135 NA
ENDBRANCH   1  23
TORSDOF 2
ENDMDL
MODEL 8
REMARK VINA RESULT:      -6.6      2.043      4.651
REMARK  Name = 
REMARK  3 active torsions:
REMARK  status: ('A' for Active; 'I' for Inactive)
REMARK    1  A    between atoms: C_1  and  C_2
REMARK    2  A    between atoms: C_5  and  C_7
REMARK    3  A    between atoms: C_12  and  N_13
REMARK                            x       y       z     vdW  Elec       q    Type
REMARK                         _______ _______ _______ _____ _____    ______ ____
ROOT
ATOM      1  C   UNL     1       8.485  -1.929  22.775  0.00  0.00    +0.040 A 
ATOM      2  C   UNL     1       9.383  -2.030  23.859  0.00  0.00    +0.043 A 
ATOM      3  C   UNL     1      10.251  -0.940  24.099  0.00  0.00    +0.024 A 
ATOM      4  C   UNL     1      10.377   0.119  23.201  0.00  0.00    +0.002 A 
ATOM      5  C   UNL     1       9.581   0.150  22.070  0.00  0.00    +0.001 A 
ATOM      6  C   UNL     1       8.625  -0.843  21.882  0.00  0.00    +0.013 A 
ENDROOT
BRANCH   2   7
ATOM      7  N   UNL     1       9.392  -3.150  24.747  0.00  0.00    -0.298 N 
ATOM      8  H   UNL     1       9.641  -3.998  24.233  0.00  0.00    +0.154 HD
ATOM      9  C   UNL     1       8.278  -3.517  25.549  0.00  0.00    +0.135 A 
ATOM     10  C   UNL     1       7.441  -2.602  26.225  0.00  0.00    +0.059 A 
ATOM     11  C   UNL     1       7.429  -1.199  26.485  0.00  0.00    +0.032 A 
ATOM     12  C   UNL     1       6.226  -0.888  27.084  0.00  0.00    +0.085 A 
ATOM     13  N   UNL     1       5.517  -2.053  27.217  0.00  0.00    -0.346 N 
ATOM     14  H   UNL     1       4.580  -2.144  27.584  0.00  0.00    +0.167 HD
ATOM     15  C   UNL     1       6.264  -3.105  26.757  0.00  0.00    +0.143 A 
ATOM     16  N   UNL     1       5.881  -4.387  26.790  0.00  0.00    -0.218 NA
ATOM     17  C   UNL     1       6.803  -5.185  26.227  0.00  0.00    +0.225 A 
ATOM     18  N   UNL     1       7.947  -4.834  25.607  0.00  0.00    -0.220 NA
ENDBRANCH   2   7
BRANCH   1  23
ATOM     19  C   UNL     1       6.051  -5.942  21.126  0.00  0.00    +0.088 C 
ATOM     20  C   UNL     1       6.314  -4.618  21.720  0.00  0.00    +0.128 A 
ATOM     21  N   UNL     1       7.527  -4.210  22.215  0.00  0.00    -0.325 N 
ATOM     22  H   UNL     1       8.379  -4.749  22.289  0.00  0.00    +0.169 HD
ATOM     23  C   UNL     1       7.410  -2.866  22.457  0.00  0.00    +0.163 A 
ATOM     24  N   UNL     1       6.146  -2.531  22.267  0.00  0.00    -0.129 NA
ATOM     25  N   UNL     1       5.464  -3.620  21.805  0.00  0.00    -0.135 NA
ENDBRANCH   1  23
TORSDOF 2
ENDMDL
MODEL 9
REMARK VINA RESULT:      -6.5      1.995      4.693
REMARK  Name = 
REMARK  3 active torsions:
REMARK  status: ('A' for Active; 'I' for Inactive)
REMARK    1  A    between atoms: C_1  and  C_2
REMARK    2  A    between atoms: C_5  and  C_7
REMARK    3  A    between atoms: C_12  and  N_13
REMARK                            x       y       z     vdW  Elec       q    Type
REMARK                         _______ _______ _______ _____ _____    ______ ____
ROOT
ATOM      1  C   UNL     1       7.886  -1.513  22.525  0.00  0.00    +0.040 A 
ATOM      2  C   UNL     1       7.283  -0.281  22.856  0.00  0.00    +0.043 A 
ATOM      3  C   UNL     1       7.887   0.900  22.368  0.00  0.00    +0.024 A 
ATOM      4  C   UNL     1       9.137   0.893  21.751  0.00  0.00    +0.002 A 
ATOM      5  C   UNL     1       9.785  -0.311  21.541  0.00  0.00    +0.001 A 
ATOM      6  C   UNL     1       9.149  -1.497  21.892  0.00  0.00    +0.013 A 
ENDROOT
BRANCH   2   7
ATOM      7  N   UNL     1       6.063  -0.198  23.597  0.00  0.00    -0.298 N 
ATOM      8  H   UNL     1       5.381   0.362  23.081  0.00  0.00    +0.154 HD
ATOM      9  C   UNL     1       5.995   0.275  24.935  0.00  0.00    +0.135 A 
ATOM     10  C   UNL     1       6.941  -0.026  25.941  0.00  0.00    +0.059 A 
ATOM     11  C   UNL     1       8.070  -0.887  26.084  0.00  0.00    +0.032 A 
ATOM     12  C   UNL     1       8.678  -0.593  27.286  0.00  0.00    +0.085 A 
ATOM     13  N   UNL     1       7.949   0.399  27.888  0.00  0.00    -0.346 N 
ATOM     14  H   UNL     1       8.167   0.855  28.762  0.00  0.00    +0.167 HD
ATOM     15  C   UNL     1       6.863   0.709  27.113  0.00  0.00    +0.143 A 
ATOM     16  N   UNL     1       5.922   1.604  27.440  0.00  0.00    -0.218 NA
ATOM     17  C   UNL     1       5.007   1.726  26.463  0.00  0.00    +0.225 A 
ATOM     18  N   UNL     1       4.995   1.140  25.250  0.00  0.00    -0.220 NA
ENDBRANCH   2   7
BRANCH   1  23
ATOM     19  C   UNL     1       6.585  -6.286  21.992  0.00  0.00    +0.088 C 
ATOM     20  C   UNL     1       6.737  -4.939  22.575  0.00  0.00    +0.128 A 
ATOM     21  N   UNL     1       7.674  -4.018  22.179  0.00  0.00    -0.325 N 
ATOM     22  H   UNL     1       8.404  -4.132  21.489  0.00  0.00    +0.169 HD
ATOM     23  C   UNL     1       7.337  -2.841  22.795  0.00  0.00    +0.163 A 
ATOM     24  N   UNL     1       6.350  -3.094  23.636  0.00  0.00    -0.129 NA
ATOM     25  N   UNL     1       5.973  -4.399  23.496  0.00  0.00    -0.135 NA
ENDBRANCH   1  23
TORSDOF 2
ENDMDL
