MODEL 1
REMARK VINA RESULT:      -7.1      0.000      0.000
REMARK  Name = 
REMARK  10 active torsions:
REMARK  status: ('A' for Active; 'I' for Inactive)
REMARK    1  A    between atoms: C_1  and  O_2
REMARK    2  A    between atoms: O_2  and  C_3
REMARK    3  A    between atoms: C_3  and  C_5
REMARK    4  A    between atoms: C_5  and  C_7
REMARK    5  A    between atoms: C_5  and  N_22
REMARK    6  A    between atoms: C_7  and  C_8
REMARK    7  A    between atoms: C_11  and  C_14
REMARK    8  A    between atoms: C_15  and  C_16
REMARK    9  A    between atoms: C_23  and  C_25
REMARK   10  A    between atoms: C_25  and  C_26
REMARK                            x       y       z     vdW  Elec       q    Type
REMARK                         _______ _______ _______ _____ _____    ______ ____
ROOT
ATOM      1  C   UNL     1       9.897   4.693  23.554  0.00  0.00    +0.186 C 
ENDROOT
BRANCH   1   2
ATOM      2  N   UNL     1       8.892   4.111  24.450  0.00  0.00    -0.302 N 
ATOM      3  H   UNL     1       9.121   4.014  25.433  0.00  0.00    +0.150 HD
ATOM      4  C   UNL     1       7.626   3.823  24.002  0.00  0.00    +0.214 C 
ATOM      5  O   UNL     1       7.255   4.073  22.861  0.00  0.00    -0.276 OA
BRANCH   4   6
ATOM      6  C   UNL     1       6.723   3.205  25.052  0.00  0.00    +0.102 C 
BRANCH   6   7
ATOM      7  C   UNL     1       6.800   1.672  25.149  0.00  0.00    +0.030 C 
ATOM      8  C   UNL     1       7.201   1.153  26.544  0.00  0.00    +0.191 C 
ATOM      9  N   UNL     1       7.301  -0.313  26.495  0.00  0.00    -0.225 N 
ATOM     10  C   UNL     1       8.399  -1.005  26.904  0.00  0.00    +0.362 C 
ATOM     11  N   UNL     1       8.765  -2.167  26.492  0.00  0.00    -0.133 NA
ATOM     12  H   UNL     1       8.127  -2.461  25.752  0.00  0.00    +0.306 HD
ATOM     13  N   UNL     1       9.160  -0.411  27.845  0.00  0.00    -0.252 N 
ATOM     14  H   UNL     1       9.839  -1.083  28.190  0.00  0.00    +0.241 HD
ATOM     15  H   UNL     1       8.610  -0.028  28.601  0.00  0.00    +0.241 HD
ATOM     16  C   UNL     1       6.049  -0.976  26.122  0.00  0.00    +0.187 C 
ATOM     17  C   UNL     1       5.624  -0.522  24.729  0.00  0.00    +0.035 C 
ATOM     18  C   UNL     1       5.502   1.001  24.667  0.00  0.00    +0.010 C 
ENDBRANCH   6   7
ENDBRANCH   4   6
ENDBRANCH   1   2
BRANCH   1  19
ATOM     19  C   UNL     1      10.441   5.949  24.235  0.00  0.00    +0.328 C 
ATOM     20  O   UNL     1       9.741   6.840  24.702  0.00  0.00    -0.249 OA
BRANCH  19  22
ATOM     21  C   UNL     1      12.447   6.766  25.146  0.00  0.00    +0.280 C 
ATOM     22  O   UNL     1      11.800   6.002  24.128  0.00  0.00    -0.467 OA
ENDBRANCH  19  22
ENDBRANCH   1  19
BRANCH   1  23
ATOM     23  C   UNL     1      11.047   3.706  23.263  0.00  0.00    +0.069 C 
BRANCH  23  24
ATOM     24  C   UNL     1      10.576   2.271  23.133  0.00  0.00    -0.045 A 
ATOM     25  C   UNL     1      10.725   1.376  24.202  0.00  0.00    +0.005 A 
ATOM     26  C   UNL     1      10.186   0.088  24.133  0.00  0.00    +0.017 A 
ATOM     27  C   UNL     1       9.498  -0.324  22.991  0.00  0.00    +0.025 A 
ATOM     28  C   UNL     1       9.397   0.540  21.899  0.00  0.00    +0.017 A 
ATOM     29  C   UNL     1       9.929   1.832  21.970  0.00  0.00    +0.005 A 
BRANCH  27  30
ATOM     30  C   UNL     1       8.841  -1.595  22.970  0.00  0.00    -0.061 C 
ATOM     31  C   UNL     1       8.218  -2.623  22.959  0.00  0.00    -0.061 C 
BRANCH  31  32
ATOM     32  C   UNL     1       7.417  -3.808  22.953  0.00  0.00    +0.025 A 
ATOM     33  C   UNL     1       6.843  -4.274  24.139  0.00  0.00    +0.017 A 
ATOM     34  C   UNL     1       6.037  -5.414  24.127  0.00  0.00    +0.001 A 
ATOM     35  C   UNL     1       5.804  -6.092  22.929  0.00  0.00    +0.000 A 
ATOM     36  C   UNL     1       6.377  -5.630  21.745  0.00  0.00    +0.001 A 
ATOM     37  C   UNL     1       7.183  -4.490  21.756  0.00  0.00    +0.017 A 
ENDBRANCH  31  32
ENDBRANCH  27  30
ENDBRANCH  23  24
ENDBRANCH   1  23
TORSDOF 9
ENDMDL
MODEL 2
REMARK VINA RESULT:      -6.8      1.300      1.817
REMARK  Name = 
REMARK  10 active torsions:
REMARK  status: ('A' for Active; 'I' for Inactive)
REMARK    1  A    between atoms: C_1  and  O_2
REMARK    2  A    between atoms: O_2  and  C_3
REMARK    3  A    between atoms: C_3  and  C_5
REMARK    4  A    between atoms: C_5  and  C_7
REMARK    5  A    between atoms: C_5  and  N_22
REMARK    6  A    between atoms: C_7  and  C_8
REMARK    7  A    between atoms: C_11  and  C_14
REMARK    8  A    between atoms: C_15  and  C_16
REMARK    9  A    between atoms: C_23  and  C_25
REMARK   10  A    between atoms: C_25  and  C_26
REMARK                            x       y       z     vdW  Elec       q    Type
REMARK                         _______ _______ _______ _____ _____    ______ ____
ROOT
ATOM      1  C   UNL     1       9.896   4.458  23.447  0.00  0.00    +0.186 C 
ENDROOT
BRANCH   1   2
ATOM      2  N   UNL     1       8.796   4.121  24.357  0.00  0.00    -0.302 N 
ATOM      3  H   UNL     1       8.984   4.100  25.353  0.00  0.00    +0.150 HD
ATOM      4  C   UNL     1       7.513   3.964  23.890  0.00  0.00    +0.214 C 
ATOM      5  O   UNL     1       7.211   4.138  22.716  0.00  0.00    -0.276 OA
BRANCH   4   6
ATOM      6  C   UNL     1       6.505   3.593  24.962  0.00  0.00    +0.102 C 
BRANCH   6   7
ATOM      7  C   UNL     1       6.979   2.513  25.948  0.00  0.00    +0.030 C 
ATOM      8  C   UNL     1       6.371   2.644  27.358  0.00  0.00    +0.191 C 
ATOM      9  N   UNL     1       6.943   1.600  28.222  0.00  0.00    -0.225 N 
ATOM     10  C   UNL     1       7.529   1.857  29.422  0.00  0.00    +0.362 C 
ATOM     11  N   UNL     1       8.428   1.141  30.000  0.00  0.00    -0.133 NA
ATOM     12  H   UNL     1       8.681   0.375  29.374  0.00  0.00    +0.306 HD
ATOM     13  N   UNL     1       7.108   2.964  30.066  0.00  0.00    -0.252 N 
ATOM     14  H   UNL     1       7.482   2.957  31.010  0.00  0.00    +0.241 HD
ATOM     15  H   UNL     1       6.100   3.045  30.075  0.00  0.00    +0.241 HD
ATOM     16  C   UNL     1       6.678   0.238  27.752  0.00  0.00    +0.187 C 
ATOM     17  C   UNL     1       7.291   0.044  26.369  0.00  0.00    +0.035 C 
ATOM     18  C   UNL     1       6.768   1.095  25.389  0.00  0.00    +0.010 C 
ENDBRANCH   6   7
ENDBRANCH   4   6
ENDBRANCH   1   2
BRANCH   1  19
ATOM     19  C   UNL     1      10.443   5.819  23.879  0.00  0.00    +0.328 C 
ATOM     20  O   UNL     1       9.759   6.828  24.012  0.00  0.00    -0.249 OA
BRANCH  19  22
ATOM     21  C   UNL     1      12.363   6.654  24.945  0.00  0.00    +0.280 C 
ATOM     22  O   UNL     1      11.804   5.785  23.959  0.00  0.00    -0.467 OA
ENDBRANCH  19  22
ENDBRANCH   1  19
BRANCH   1  23
ATOM     23  C   UNL     1      11.017   3.399  23.484  0.00  0.00    +0.069 C 
BRANCH  23  24
ATOM     24  C   UNL     1      10.503   1.987  23.283  0.00  0.00    -0.045 A 
ATOM     25  C   UNL     1      10.634   1.032  24.302  0.00  0.00    +0.005 A 
ATOM     26  C   UNL     1      10.057  -0.234  24.170  0.00  0.00    +0.017 A 
ATOM     27  C   UNL     1       9.349  -0.565  23.014  0.00  0.00    +0.025 A 
ATOM     28  C   UNL     1       9.265   0.358  21.970  0.00  0.00    +0.017 A 
ATOM     29  C   UNL     1       9.836   1.628  22.104  0.00  0.00    +0.005 A 
BRANCH  27  30
ATOM     30  C   UNL     1       8.655  -1.813  22.932  0.00  0.00    -0.061 C 
ATOM     31  C   UNL     1       8.016  -2.831  22.913  0.00  0.00    -0.061 C 
BRANCH  31  32
ATOM     32  C   UNL     1       7.208  -4.012  22.935  0.00  0.00    +0.025 A 
ATOM     33  C   UNL     1       7.202  -4.879  21.838  0.00  0.00    +0.017 A 
ATOM     34  C   UNL     1       6.437  -6.046  21.873  0.00  0.00    +0.001 A 
ATOM     35  C   UNL     1       5.675  -6.350  23.003  0.00  0.00    +0.000 A 
ATOM     36  C   UNL     1       5.679  -5.485  24.097  0.00  0.00    +0.001 A 
ATOM     37  C   UNL     1       6.444  -4.317  24.064  0.00  0.00    +0.017 A 
ENDBRANCH  31  32
ENDBRANCH  27  30
ENDBRANCH  23  24
ENDBRANCH   1  23
TORSDOF 9
ENDMDL
MODEL 3
REMARK VINA RESULT:      -6.7      3.921      8.305
REMARK  Name = 
REMARK  10 active torsions:
REMARK  status: ('A' for Active; 'I' for Inactive)
REMARK    1  A    between atoms: C_1  and  O_2
REMARK    2  A    between atoms: O_2  and  C_3
REMARK    3  A    between atoms: C_3  and  C_5
REMARK    4  A    between atoms: C_5  and  C_7
REMARK    5  A    between atoms: C_5  and  N_22
REMARK    6  A    between atoms: C_7  and  C_8
REMARK    7  A    between atoms: C_11  and  C_14
REMARK    8  A    between atoms: C_15  and  C_16
REMARK    9  A    between atoms: C_23  and  C_25
REMARK   10  A    between atoms: C_25  and  C_26
REMARK                            x       y       z     vdW  Elec       q    Type
REMARK                         _______ _______ _______ _____ _____    ______ ____
ROOT
ATOM      1  C   UNL     1       6.606  -5.185  23.042  0.00  0.00    +0.186 C 
ENDROOT
BRANCH   1   2
ATOM      2  N   UNL     1       6.835  -4.579  24.358  0.00  0.00    -0.302 N 
ATOM      3  H   UNL     1       6.056  -4.127  24.822  0.00  0.00    +0.150 HD
ATOM      4  C   UNL     1       8.037  -4.729  25.007  0.00  0.00    +0.214 C 
ATOM      5  O   UNL     1       8.954  -5.403  24.555  0.00  0.00    -0.276 OA
BRANCH   4   6
ATOM      6  C   UNL     1       8.110  -4.018  26.346  0.00  0.00    +0.102 C 
BRANCH   6   7
ATOM      7  C   UNL     1       7.592  -2.571  26.337  0.00  0.00    +0.030 C 
ATOM      8  C   UNL     1       6.288  -2.368  27.134  0.00  0.00    +0.191 C 
ATOM      9  N   UNL     1       5.862  -0.968  27.001  0.00  0.00    -0.225 N 
ATOM     10  C   UNL     1       4.618  -0.597  26.592  0.00  0.00    +0.362 C 
ATOM     11  N   UNL     1       4.304   0.509  26.016  0.00  0.00    -0.133 NA
ATOM     12  H   UNL     1       5.159   1.042  25.854  0.00  0.00    +0.306 HD
ATOM     13  N   UNL     1       3.625  -1.476  26.833  0.00  0.00    -0.252 N 
ATOM     14  H   UNL     1       2.735  -1.025  26.645  0.00  0.00    +0.241 HD
ATOM     15  H   UNL     1       3.656  -1.844  27.774  0.00  0.00    +0.241 HD
ATOM     16  C   UNL     1       6.842  -0.004  27.508  0.00  0.00    +0.187 C 
ATOM     17  C   UNL     1       8.145  -0.139  26.726  0.00  0.00    +0.035 C 
ATOM     18  C   UNL     1       8.672  -1.573  26.790  0.00  0.00    +0.010 C 
ENDBRANCH   6   7
ENDBRANCH   4   6
ENDBRANCH   1   2
BRANCH   1  19
ATOM     19  C   UNL     1       5.167  -5.701  23.022  0.00  0.00    +0.328 C 
ATOM     20  O   UNL     1       4.211  -5.065  22.594  0.00  0.00    -0.249 OA
BRANCH  19  22
ATOM     21  C   UNL     1       4.133  -6.931  24.736  0.00  0.00    +0.280 C 
ATOM     22  O   UNL     1       5.079  -6.899  23.668  0.00  0.00    -0.467 OA
ENDBRANCH  19  22
ENDBRANCH   1  19
BRANCH   1  23
ATOM     23  C   UNL     1       6.823  -4.172  21.898  0.00  0.00    +0.069 C 
BRANCH  23  24
ATOM     24  C   UNL     1       7.356  -2.838  22.382  0.00  0.00    -0.045 A 
ATOM     25  C   UNL     1       8.728  -2.557  22.319  0.00  0.00    +0.005 A 
ATOM     26  C   UNL     1       9.212  -1.287  22.650  0.00  0.00    +0.017 A 
ATOM     27  C   UNL     1       8.329  -0.286  23.057  0.00  0.00    +0.025 A 
ATOM     28  C   UNL     1       6.969  -0.575  23.180  0.00  0.00    +0.017 A 
ATOM     29  C   UNL     1       6.483  -1.843  22.841  0.00  0.00    +0.005 A 
BRANCH  27  30
ATOM     30  C   UNL     1       8.807   1.044  23.275  0.00  0.00    -0.061 C 
ATOM     31  C   UNL     1       9.283   2.136  23.438  0.00  0.00    -0.061 C 
BRANCH  31  32
ATOM     32  C   UNL     1       9.914   3.408  23.615  0.00  0.00    +0.025 A 
ATOM     33  C   UNL     1      11.252   3.585  23.252  0.00  0.00    +0.017 A 
ATOM     34  C   UNL     1      11.858   4.835  23.397  0.00  0.00    +0.001 A 
ATOM     35  C   UNL     1      11.128   5.910  23.906  0.00  0.00    +0.000 A 
ATOM     36  C   UNL     1       9.793   5.735  24.270  0.00  0.00    +0.001 A 
ATOM     37  C   UNL     1       9.186   4.486  24.126  0.00  0.00    +0.017 A 
ENDBRANCH  31  32
ENDBRANCH  27  30
ENDBRANCH  23  24
ENDBRANCH   1  23
TORSDOF 9
ENDMDL
MODEL 4
REMARK VINA RESULT:      -6.7      3.552      8.634
REMARK  Name = 
REMARK  10 active torsions:
REMARK  status: ('A' for Active; 'I' for Inactive)
REMARK    1  A    between atoms: C_1  and  O_2
REMARK    2  A    between atoms: O_2  and  C_3
REMARK    3  A    between atoms: C_3  and  C_5
REMARK    4  A    between atoms: C_5  and  C_7
REMARK    5  A    between atoms: C_5  and  N_22
REMARK    6  A    between atoms: C_7  and  C_8
REMARK    7  A    between atoms: C_11  and  C_14
REMARK    8  A    between atoms: C_15  and  C_16
REMARK    9  A    between atoms: C_23  and  C_25
REMARK   10  A    between atoms: C_25  and  C_26
REMARK                            x       y       z     vdW  Elec       q    Type
REMARK                         _______ _______ _______ _____ _____    ______ ____
ROOT
ATOM      1  C   UNL     1       5.931  -4.282  25.632  0.00  0.00    +0.186 C 
ENDROOT
BRANCH   1   2
ATOM      2  N   UNL     1       6.695  -4.144  24.388  0.00  0.00    -0.302 N 
ATOM      3  H   UNL     1       7.489  -4.757  24.240  0.00  0.00    +0.150 HD
ATOM      4  C   UNL     1       6.276  -3.298  23.389  0.00  0.00    +0.214 C 
ATOM      5  O   UNL     1       5.235  -2.657  23.459  0.00  0.00    -0.276 OA
BRANCH   4   6
ATOM      6  C   UNL     1       7.196  -3.260  22.184  0.00  0.00    +0.102 C 
BRANCH   6   7
ATOM      7  C   UNL     1       8.279  -2.169  22.232  0.00  0.00    +0.030 C 
ATOM      8  C   UNL     1       7.759  -0.791  22.689  0.00  0.00    +0.191 C 
ATOM      9  N   UNL     1       8.865   0.176  22.635  0.00  0.00    -0.225 N 
ATOM     10  C   UNL     1       8.793   1.363  21.975  0.00  0.00    +0.362 C 
ATOM     11  N   UNL     1       9.781   2.025  21.486  0.00  0.00    -0.133 NA
ATOM     12  H   UNL     1      10.632   1.477  21.619  0.00  0.00    +0.306 HD
ATOM     13  N   UNL     1       7.561   1.894  21.838  0.00  0.00    -0.252 N 
ATOM     14  H   UNL     1       7.650   2.844  21.490  0.00  0.00    +0.241 HD
ATOM     15  H   UNL     1       7.033   1.871  22.700  0.00  0.00    +0.241 HD
ATOM     16  C   UNL     1       9.997  -0.176  23.497  0.00  0.00    +0.187 C 
ATOM     17  C   UNL     1      10.573  -1.521  23.062  0.00  0.00    +0.035 C 
ATOM     18  C   UNL     1       9.493  -2.603  23.071  0.00  0.00    +0.010 C 
ENDBRANCH   6   7
ENDBRANCH   4   6
ENDBRANCH   1   2
BRANCH   1  19
ATOM     19  C   UNL     1       5.696  -5.776  25.859  0.00  0.00    +0.328 C 
ATOM     20  O   UNL     1       6.074  -6.392  26.849  0.00  0.00    -0.249 OA
BRANCH  19  22
ATOM     21  C   UNL     1       3.997  -7.164  25.019  0.00  0.00    +0.280 C 
ATOM     22  O   UNL     1       5.136  -6.346  24.754  0.00  0.00    -0.467 OA
ENDBRANCH  19  22
ENDBRANCH   1  19
BRANCH   1  23
ATOM     23  C   UNL     1       6.679  -3.673  26.836  0.00  0.00    +0.069 C 
BRANCH  23  24
ATOM     24  C   UNL     1       6.969  -2.194  26.666  0.00  0.00    -0.045 A 
ATOM     25  C   UNL     1       8.292  -1.734  26.602  0.00  0.00    +0.005 A 
ATOM     26  C   UNL     1       8.568  -0.392  26.326  0.00  0.00    +0.017 A 
ATOM     27  C   UNL     1       7.522   0.508  26.117  0.00  0.00    +0.025 A 
ATOM     28  C   UNL     1       6.202   0.072  26.237  0.00  0.00    +0.017 A 
ATOM     29  C   UNL     1       5.926  -1.273  26.506  0.00  0.00    +0.005 A 
BRANCH  27  30
ATOM     30  C   UNL     1       7.805   1.851  25.712  0.00  0.00    -0.061 C 
ATOM     31  C   UNL     1       8.116   2.971  25.403  0.00  0.00    -0.061 C 
BRANCH  31  32
ATOM     32  C   UNL     1       8.550   4.292  25.067  0.00  0.00    +0.025 A 
ATOM     33  C   UNL     1       8.071   5.392  25.783  0.00  0.00    +0.017 A 
ATOM     34  C   UNL     1       8.518   6.678  25.473  0.00  0.00    +0.001 A 
ATOM     35  C   UNL     1       9.445   6.868  24.446  0.00  0.00    +0.000 A 
ATOM     36  C   UNL     1       9.923   5.771  23.730  0.00  0.00    +0.001 A 
ATOM     37  C   UNL     1       9.476   4.485  24.038  0.00  0.00    +0.017 A 
ENDBRANCH  31  32
ENDBRANCH  27  30
ENDBRANCH  23  24
ENDBRANCH   1  23
TORSDOF 9
ENDMDL
MODEL 5
REMARK VINA RESULT:      -6.6      4.052      8.637
REMARK  Name = 
REMARK  10 active torsions:
REMARK  status: ('A' for Active; 'I' for Inactive)
REMARK    1  A    between atoms: C_1  and  O_2
REMARK    2  A    between atoms: O_2  and  C_3
REMARK    3  A    between atoms: C_3  and  C_5
REMARK    4  A    between atoms: C_5  and  C_7
REMARK    5  A    between atoms: C_5  and  N_22
REMARK    6  A    between atoms: C_7  and  C_8
REMARK    7  A    between atoms: C_11  and  C_14
REMARK    8  A    between atoms: C_15  and  C_16
REMARK    9  A    between atoms: C_23  and  C_25
REMARK   10  A    between atoms: C_25  and  C_26
REMARK                            x       y       z     vdW  Elec       q    Type
REMARK                         _______ _______ _______ _____ _____    ______ ____
ROOT
ATOM      1  C   UNL     1       7.247  -4.478  22.602  0.00  0.00    +0.186 C 
ENDROOT
BRANCH   1   2
ATOM      2  N   UNL     1       7.257  -4.445  24.069  0.00  0.00    -0.302 N 
ATOM      3  H   UNL     1       6.399  -4.668  24.561  0.00  0.00    +0.150 HD
ATOM      4  C   UNL     1       8.424  -4.244  24.765  0.00  0.00    +0.214 C 
ATOM      5  O   UNL     1       9.512  -4.130  24.213  0.00  0.00    -0.276 OA
BRANCH   4   6
ATOM      6  C   UNL     1       8.250  -4.215  26.271  0.00  0.00    +0.102 C 
BRANCH   6   7
ATOM      7  C   UNL     1       6.795  -4.333  26.755  0.00  0.00    +0.030 C 
ATOM      8  C   UNL     1       6.609  -5.291  27.949  0.00  0.00    +0.191 C 
ATOM      9  N   UNL     1       5.178  -5.368  28.278  0.00  0.00    -0.225 N 
ATOM     10  C   UNL     1       4.493  -6.539  28.380  0.00  0.00    +0.362 C 
ATOM     11  N   UNL     1       3.230  -6.701  28.200  0.00  0.00    -0.133 NA
ATOM     12  H   UNL     1       2.831  -5.811  27.899  0.00  0.00    +0.306 HD
ATOM     13  N   UNL     1       5.216  -7.624  28.719  0.00  0.00    -0.252 N 
ATOM     14  H   UNL     1       4.582  -8.388  28.931  0.00  0.00    +0.241 HD
ATOM     15  H   UNL     1       5.841  -7.445  29.493  0.00  0.00    +0.241 HD
ATOM     16  C   UNL     1       4.590  -4.078  28.652  0.00  0.00    +0.187 C 
ATOM     17  C   UNL     1       4.718  -3.101  27.487  0.00  0.00    +0.035 C 
ATOM     18  C   UNL     1       6.177  -2.957  27.055  0.00  0.00    +0.010 C 
ENDBRANCH   6   7
ENDBRANCH   4   6
ENDBRANCH   1   2
BRANCH   1  19
ATOM     19  C   UNL     1       6.401  -5.679  22.180  0.00  0.00    +0.328 C 
ATOM     20  O   UNL     1       6.854  -6.793  21.938  0.00  0.00    -0.249 OA
BRANCH  19  22
ATOM     21  C   UNL     1       4.196  -5.738  22.991  0.00  0.00    +0.280 C 
ATOM     22  O   UNL     1       5.105  -5.306  21.978  0.00  0.00    -0.467 OA
ENDBRANCH  19  22
ENDBRANCH   1  19
BRANCH   1  23
ATOM     23  C   UNL     1       6.665  -3.181  22.003  0.00  0.00    +0.069 C 
BRANCH  23  24
ATOM     24  C   UNL     1       7.395  -1.935  22.466  0.00  0.00    -0.045 A 
ATOM     25  C   UNL     1       8.679  -1.645  21.983  0.00  0.00    +0.005 A 
ATOM     26  C   UNL     1       9.309  -0.440  22.311  0.00  0.00    +0.017 A 
ATOM     27  C   UNL     1       8.664   0.485  23.132  0.00  0.00    +0.025 A 
ATOM     28  C   UNL     1       7.411   0.179  23.665  0.00  0.00    +0.017 A 
ATOM     29  C   UNL     1       6.777  -1.023  23.331  0.00  0.00    +0.005 A 
BRANCH  27  30
ATOM     30  C   UNL     1       9.254   1.767  23.366  0.00  0.00    -0.061 C 
ATOM     31  C   UNL     1       9.822   2.813  23.541  0.00  0.00    -0.061 C 
BRANCH  31  32
ATOM     32  C   UNL     1      10.558   4.024  23.732  0.00  0.00    +0.025 A 
ATOM     33  C   UNL     1      11.902   4.095  23.356  0.00  0.00    +0.017 A 
ATOM     34  C   UNL     1      12.612   5.287  23.515  0.00  0.00    +0.001 A 
ATOM     35  C   UNL     1      11.979   6.411  24.051  0.00  0.00    +0.000 A 
ATOM     36  C   UNL     1      10.639   6.342  24.427  0.00  0.00    +0.001 A 
ATOM     37  C   UNL     1       9.928   5.150  24.269  0.00  0.00    +0.017 A 
ENDBRANCH  31  32
ENDBRANCH  27  30
ENDBRANCH  23  24
ENDBRANCH   1  23
TORSDOF 9
ENDMDL
MODEL 6
REMARK VINA RESULT:      -6.5      3.343      8.170
REMARK  Name = 
REMARK  10 active torsions:
REMARK  status: ('A' for Active; 'I' for Inactive)
REMARK    1  A    between atoms: C_1  and  O_2
REMARK    2  A    between atoms: O_2  and  C_3
REMARK    3  A    between atoms: C_3  and  C_5
REMARK    4  A    between atoms: C_5  and  C_7
REMARK    5  A    between atoms: C_5  and  N_22
REMARK    6  A    between atoms: C_7  and  C_8
REMARK    7  A    between atoms: C_11  and  C_14
REMARK    8  A    between atoms: C_15  and  C_16
REMARK    9  A    between atoms: C_23  and  C_25
REMARK   10  A    between atoms: C_25  and  C_26
REMARK                            x       y       z     vdW  Elec       q    Type
REMARK                         _______ _______ _______ _____ _____    ______ ____
ROOT
ATOM      1  C   UNL     1       6.972  -4.353  24.365  0.00  0.00    +0.186 C 
ENDROOT
BRANCH   1   2
ATOM      2  N   UNL     1       6.223  -3.126  24.657  0.00  0.00    -0.302 N 
ATOM      3  H   UNL     1       5.508  -2.831  24.003  0.00  0.00    +0.150 HD
ATOM      4  C   UNL     1       6.392  -2.460  25.848  0.00  0.00    +0.214 C 
ATOM      5  O   UNL     1       7.129  -2.870  26.736  0.00  0.00    -0.276 OA
BRANCH   4   6
ATOM      6  C   UNL     1       5.559  -1.199  25.975  0.00  0.00    +0.102 C 
BRANCH   6   7
ATOM      7  C   UNL     1       6.229   0.076  25.436  0.00  0.00    +0.030 C 
ATOM      8  C   UNL     1       5.236   1.130  24.908  0.00  0.00    +0.191 C 
ATOM      9  N   UNL     1       5.994   2.268  24.367  0.00  0.00    -0.225 N 
ATOM     10  C   UNL     1       5.808   2.766  23.114  0.00  0.00    +0.362 C 
ATOM     11  N   UNL     1       6.678   3.398  22.408  0.00  0.00    -0.133 NA
ATOM     12  H   UNL     1       7.561   3.408  22.920  0.00  0.00    +0.306 HD
ATOM     13  N   UNL     1       4.585   2.586  22.578  0.00  0.00    -0.252 N 
ATOM     14  H   UNL     1       4.513   3.140  21.730  0.00  0.00    +0.241 HD
ATOM     15  H   UNL     1       3.842   2.814  23.225  0.00  0.00    +0.241 HD
ATOM     16  C   UNL     1       6.852   2.927  25.355  0.00  0.00    +0.187 C 
ATOM     17  C   UNL     1       7.880   1.932  25.886  0.00  0.00    +0.035 C 
ATOM     18  C   UNL     1       7.192   0.695  26.464  0.00  0.00    +0.010 C 
ENDBRANCH   6   7
ENDBRANCH   4   6
ENDBRANCH   1   2
BRANCH   1  19
ATOM     19  C   UNL     1       5.949  -5.456  24.093  0.00  0.00    +0.328 C 
ATOM     20  O   UNL     1       5.535  -5.755  22.978  0.00  0.00    -0.249 OA
BRANCH  19  22
ATOM     21  C   UNL     1       4.403  -6.902  25.111  0.00  0.00    +0.280 C 
ATOM     22  O   UNL     1       5.465  -5.961  25.263  0.00  0.00    -0.467 OA
ENDBRANCH  19  22
ENDBRANCH   1  19
BRANCH   1  23
ATOM     23  C   UNL     1       7.905  -4.180  23.148  0.00  0.00    +0.069 C 
BRANCH  23  24
ATOM     24  C   UNL     1       8.571  -2.819  23.101  0.00  0.00    -0.045 A 
ATOM     25  C   UNL     1       8.108  -1.833  22.218  0.00  0.00    +0.005 A 
ATOM     26  C   UNL     1       8.638  -0.539  22.254  0.00  0.00    +0.017 A 
ATOM     27  C   UNL     1       9.642  -0.219  23.168  0.00  0.00    +0.025 A 
ATOM     28  C   UNL     1      10.150  -1.210  24.010  0.00  0.00    +0.017 A 
ATOM     29  C   UNL     1       9.615  -2.503  23.980  0.00  0.00    +0.005 A 
BRANCH  27  30
ATOM     30  C   UNL     1      10.095   1.133  23.289  0.00  0.00    -0.061 C 
ATOM     31  C   UNL     1      10.402   2.288  23.418  0.00  0.00    -0.061 C 
BRANCH  31  32
ATOM     32  C   UNL     1      10.701   3.676  23.596  0.00  0.00    +0.025 A 
ATOM     33  C   UNL     1      11.991   4.154  23.346  0.00  0.00    +0.017 A 
ATOM     34  C   UNL     1      12.274   5.513  23.491  0.00  0.00    +0.001 A 
ATOM     35  C   UNL     1      11.269   6.398  23.886  0.00  0.00    +0.000 A 
ATOM     36  C   UNL     1       9.983   5.923  24.137  0.00  0.00    +0.001 A 
ATOM     37  C   UNL     1       9.698   4.564  23.993  0.00  0.00    +0.017 A 
ENDBRANCH  31  32
ENDBRANCH  27  30
ENDBRANCH  23  24
ENDBRANCH   1  23
TORSDOF 9
ENDMDL
MODEL 7
REMARK VINA RESULT:      -6.4      4.262      9.112
REMARK  Name = 
REMARK  10 active torsions:
REMARK  status: ('A' for Active; 'I' for Inactive)
REMARK    1  A    between atoms: C_1  and  O_2
REMARK    2  A    between atoms: O_2  and  C_3
REMARK    3  A    between atoms: C_3  and  C_5
REMARK    4  A    between atoms: C_5  and  C_7
REMARK    5  A    between atoms: C_5  and  N_22
REMARK    6  A    between atoms: C_7  and  C_8
REMARK    7  A    between atoms: C_11  and  C_14
REMARK    8  A    between atoms: C_15  and  C_16
REMARK    9  A    between atoms: C_23  and  C_25
REMARK   10  A    between atoms: C_25  and  C_26
REMARK                            x       y       z     vdW  Elec       q    Type
REMARK                         _______ _______ _______ _____ _____    ______ ____
ROOT
ATOM      1  C   UNL     1       3.861  -5.482  25.168  0.00  0.00    +0.186 C 
ENDROOT
BRANCH   1   2
ATOM      2  N   UNL     1       5.052  -5.823  24.383  0.00  0.00    -0.302 N 
ATOM      3  H   UNL     1       5.668  -6.549  24.733  0.00  0.00    +0.150 HD
ATOM      4  C   UNL     1       5.267  -5.270  23.144  0.00  0.00    +0.214 C 
ATOM      5  O   UNL     1       4.467  -4.510  22.611  0.00  0.00    -0.276 OA
BRANCH   4   6
ATOM      6  C   UNL     1       6.558  -5.714  22.482  0.00  0.00    +0.102 C 
BRANCH   6   7
ATOM      7  C   UNL     1       7.803  -4.910  22.893  0.00  0.00    +0.030 C 
ATOM      8  C   UNL     1       7.630  -3.383  22.773  0.00  0.00    +0.191 C 
ATOM      9  N   UNL     1       8.898  -2.731  23.131  0.00  0.00    -0.225 N 
ATOM     10  C   UNL     1       9.528  -1.825  22.335  0.00  0.00    +0.362 C 
ATOM     11  N   UNL     1      10.788  -1.569  22.320  0.00  0.00    -0.133 NA
ATOM     12  H   UNL     1      11.254  -2.209  22.964  0.00  0.00    +0.306 HD
ATOM     13  N   UNL     1       8.742  -1.123  21.494  0.00  0.00    -0.252 N 
ATOM     14  H   UNL     1       9.288  -0.372  21.084  0.00  0.00    +0.241 HD
ATOM     15  H   UNL     1       7.913  -0.765  21.949  0.00  0.00    +0.241 HD
ATOM     16  C   UNL     1       9.341  -3.018  24.498  0.00  0.00    +0.187 C 
ATOM     17  C   UNL     1       9.562  -4.519  24.661  0.00  0.00    +0.035 C 
ATOM     18  C   UNL     1       8.297  -5.297  24.298  0.00  0.00    +0.010 C 
ENDBRANCH   6   7
ENDBRANCH   4   6
ENDBRANCH   1   2
BRANCH   1  19
ATOM     19  C   UNL     1       3.107  -6.784  25.439  0.00  0.00    +0.328 C 
ATOM     20  O   UNL     1       3.503  -7.895  25.103  0.00  0.00    -0.249 OA
BRANCH  19  22
ATOM     21  C   UNL     1       0.816  -6.457  25.029  0.00  0.00    +0.280 C 
ATOM     22  O   UNL     1       1.881  -6.525  25.978  0.00  0.00    -0.467 OA
ENDBRANCH  19  22
ENDBRANCH   1  19
BRANCH   1  23
ATOM     23  C   UNL     1       4.227  -4.793  26.498  0.00  0.00    +0.069 C 
BRANCH  23  24
ATOM     24  C   UNL     1       5.011  -3.509  26.304  0.00  0.00    -0.045 A 
ATOM     25  C   UNL     1       6.241  -3.324  26.951  0.00  0.00    +0.005 A 
ATOM     26  C   UNL     1       7.025  -2.198  26.684  0.00  0.00    +0.017 A 
ATOM     27  C   UNL     1       6.584  -1.239  25.771  0.00  0.00    +0.025 A 
ATOM     28  C   UNL     1       5.335  -1.386  25.166  0.00  0.00    +0.017 A 
ATOM     29  C   UNL     1       4.553  -2.517  25.428  0.00  0.00    +0.005 A 
BRANCH  27  30
ATOM     30  C   UNL     1       7.440  -0.153  25.405  0.00  0.00    -0.061 C 
ATOM     31  C   UNL     1       8.095   0.797  25.067  0.00  0.00    -0.061 C 
BRANCH  31  32
ATOM     32  C   UNL     1       8.814   1.958  24.640  0.00  0.00    +0.025 A 
ATOM     33  C   UNL     1       9.976   1.822  23.876  0.00  0.00    +0.017 A 
ATOM     34  C   UNL     1      10.660   2.956  23.434  0.00  0.00    +0.001 A 
ATOM     35  C   UNL     1      10.185   4.229  23.755  0.00  0.00    +0.000 A 
ATOM     36  C   UNL     1       9.026   4.366  24.518  0.00  0.00    +0.001 A 
ATOM     37  C   UNL     1       8.341   3.233  24.961  0.00  0.00    +0.017 A 
ENDBRANCH  31  32
ENDBRANCH  27  30
ENDBRANCH  23  24
ENDBRANCH   1  23
TORSDOF 9
ENDMDL
MODEL 8
REMARK VINA RESULT:      -6.3      5.002      9.228
REMARK  Name = 
REMARK  10 active torsions:
REMARK  status: ('A' for Active; 'I' for Inactive)
REMARK    1  A    between atoms: C_1  and  O_2
REMARK    2  A    between atoms: O_2  and  C_3
REMARK    3  A    between atoms: C_3  and  C_5
REMARK    4  A    between atoms: C_5  and  C_7
REMARK    5  A    between atoms: C_5  and  N_22
REMARK    6  A    between atoms: C_7  and  C_8
REMARK    7  A    between atoms: C_11  and  C_14
REMARK    8  A    between atoms: C_15  and  C_16
REMARK    9  A    between atoms: C_23  and  C_25
REMARK   10  A    between atoms: C_25  and  C_26
REMARK                            x       y       z     vdW  Elec       q    Type
REMARK                         _______ _______ _______ _____ _____    ______ ____
ROOT
ATOM      1  C   UNL     1       5.892  -4.299  24.998  0.00  0.00    +0.186 C 
ENDROOT
BRANCH   1   2
ATOM      2  N   UNL     1       4.468  -4.623  24.859  0.00  0.00    -0.302 N 
ATOM      3  H   UNL     1       4.208  -5.591  24.704  0.00  0.00    +0.150 HD
ATOM      4  C   UNL     1       3.501  -3.668  25.059  0.00  0.00    +0.214 C 
ATOM      5  O   UNL     1       3.764  -2.523  25.404  0.00  0.00    -0.276 OA
BRANCH   4   6
ATOM      6  C   UNL     1       2.084  -4.168  24.850  0.00  0.00    +0.102 C 
BRANCH   6   7
ATOM      7  C   UNL     1       1.977  -5.636  24.407  0.00  0.00    +0.030 C 
ATOM      8  C   UNL     1       1.104  -6.507  25.333  0.00  0.00    +0.191 C 
ATOM      9  N   UNL     1       1.128  -7.893  24.844  0.00  0.00    -0.225 N 
ATOM     10  C   UNL     1       1.449  -8.959  25.626  0.00  0.00    +0.362 C 
ATOM     11  N   UNL     1       1.939 -10.079  25.225  0.00  0.00    -0.133 NA
ATOM     12  H   UNL     1       2.111 -10.013  24.221  0.00  0.00    +0.306 HD
ATOM     13  N   UNL     1       1.213  -8.823  26.946  0.00  0.00    -0.252 N 
ATOM     14  H   UNL     1       1.326  -9.725  27.395  0.00  0.00    +0.241 HD
ATOM     15  H   UNL     1       0.299  -8.434  27.136  0.00  0.00    +0.241 HD
ATOM     16  C   UNL     1       0.613  -8.046  23.481  0.00  0.00    +0.187 C 
ATOM     17  C   UNL     1       1.467  -7.229  22.516  0.00  0.00    +0.035 C 
ATOM     18  C   UNL     1       1.519  -5.762  22.944  0.00  0.00    +0.010 C 
ENDBRANCH   6   7
ENDBRANCH   4   6
ENDBRANCH   1   2
BRANCH   1  19
ATOM     19  C   UNL     1       6.556  -5.467  25.729  0.00  0.00    +0.328 C 
ATOM     20  O   UNL     1       5.952  -6.286  26.412  0.00  0.00    -0.249 OA
BRANCH  19  22
ATOM     21  C   UNL     1       8.544  -4.619  26.650  0.00  0.00    +0.280 C 
ATOM     22  O   UNL     1       7.913  -5.388  25.626  0.00  0.00    -0.467 OA
ENDBRANCH  19  22
ENDBRANCH   1  19
BRANCH   1  23
ATOM     23  C   UNL     1       6.567  -4.075  23.629  0.00  0.00    +0.069 C 
BRANCH  23  24
ATOM     24  C   UNL     1       7.173  -2.693  23.486  0.00  0.00    -0.045 A 
ATOM     25  C   UNL     1       6.350  -1.559  23.437  0.00  0.00    +0.005 A 
ATOM     26  C   UNL     1       6.905  -0.276  23.426  0.00  0.00    +0.017 A 
ATOM     27  C   UNL     1       8.290  -0.112  23.457  0.00  0.00    +0.025 A 
ATOM     28  C   UNL     1       9.118  -1.235  23.447  0.00  0.00    +0.017 A 
ATOM     29  C   UNL     1       8.564  -2.520  23.465  0.00  0.00    +0.005 A 
BRANCH  27  30
ATOM     30  C   UNL     1       8.852   1.199  23.572  0.00  0.00    -0.061 C 
ATOM     31  C   UNL     1       9.392   2.272  23.633  0.00  0.00    -0.061 C 
BRANCH  31  32
ATOM     32  C   UNL     1      10.091   3.519  23.675  0.00  0.00    +0.025 A 
ATOM     33  C   UNL     1       9.442   4.674  24.118  0.00  0.00    +0.017 A 
ATOM     34  C   UNL     1      10.134   5.885  24.187  0.00  0.00    +0.001 A 
ATOM     35  C   UNL     1      11.477   5.944  23.812  0.00  0.00    +0.000 A 
ATOM     36  C   UNL     1      12.127   4.793  23.368  0.00  0.00    +0.001 A 
ATOM     37  C   UNL     1      11.436   3.582  23.299  0.00  0.00    +0.017 A 
ENDBRANCH  31  32
ENDBRANCH  27  30
ENDBRANCH  23  24
ENDBRANCH   1  23
TORSDOF 9
ENDMDL
MODEL 9
REMARK VINA RESULT:      -6.3      5.005      9.159
REMARK  Name = 
REMARK  10 active torsions:
REMARK  status: ('A' for Active; 'I' for Inactive)
REMARK    1  A    between atoms: C_1  and  O_2
REMARK    2  A    between atoms: O_2  and  C_3
REMARK    3  A    between atoms: C_3  and  C_5
REMARK    4  A    between atoms: C_5  and  C_7
REMARK    5  A    between atoms: C_5  and  N_22
REMARK    6  A    between atoms: C_7  and  C_8
REMARK    7  A    between atoms: C_11  and  C_14
REMARK    8  A    between atoms: C_15  and  C_16
REMARK    9  A    between atoms: C_23  and  C_25
REMARK   10  A    between atoms: C_25  and  C_26
REMARK                            x       y       z     vdW  Elec       q    Type
REMARK                         _______ _______ _______ _____ _____    ______ ____
ROOT
ATOM      1  C   UNL     1       3.487  -6.122  27.866  0.00  0.00    +0.186 C 
ENDROOT
BRANCH   1   2
ATOM      2  N   UNL     1       4.199  -6.359  26.605  0.00  0.00    -0.302 N 
ATOM      3  H   UNL     1       5.179  -6.613  26.646  0.00  0.00    +0.150 HD
ATOM      4  C   UNL     1       3.530  -6.363  25.404  0.00  0.00    +0.214 C 
ATOM      5  O   UNL     1       2.317  -6.220  25.322  0.00  0.00    -0.276 OA
BRANCH   4   6
ATOM      6  C   UNL     1       4.422  -6.600  24.200  0.00  0.00    +0.102 C 
BRANCH   6   7
ATOM      7  C   UNL     1       5.468  -5.502  23.946  0.00  0.00    +0.030 C 
ATOM      8  C   UNL     1       6.917  -6.023  23.870  0.00  0.00    +0.191 C 
ATOM      9  N   UNL     1       7.824  -4.881  23.687  0.00  0.00    -0.225 N 
ATOM     10  C   UNL     1       8.899  -4.640  24.486  0.00  0.00    +0.362 C 
ATOM     11  N   UNL     1       9.443  -3.496  24.708  0.00  0.00    -0.133 NA
ATOM     12  H   UNL     1       8.891  -2.780  24.233  0.00  0.00    +0.306 HD
ATOM     13  N   UNL     1       9.447  -5.716  25.086  0.00  0.00    -0.252 N 
ATOM     14  H   UNL     1      10.329  -5.442  25.508  0.00  0.00    +0.241 HD
ATOM     15  H   UNL     1       9.574  -6.490  24.449  0.00  0.00    +0.241 HD
ATOM     16  C   UNL     1       7.567  -4.115  22.465  0.00  0.00    +0.187 C 
ATOM     17  C   UNL     1       6.152  -3.545  22.506  0.00  0.00    +0.035 C 
ATOM     18  C   UNL     1       5.123  -4.658  22.707  0.00  0.00    +0.010 C 
ENDBRANCH   6   7
ENDBRANCH   4   6
ENDBRANCH   1   2
BRANCH   1  19
ATOM     19  C   UNL     1       4.145  -7.000  28.931  0.00  0.00    +0.328 C 
ATOM     20  O   UNL     1       3.638  -7.266  30.016  0.00  0.00    -0.249 OA
BRANCH  19  22
ATOM     21  C   UNL     1       6.434  -6.820  29.429  0.00  0.00    +0.280 C 
ATOM     22  O   UNL     1       5.417  -7.327  28.565  0.00  0.00    -0.467 OA
ENDBRANCH  19  22
ENDBRANCH   1  19
BRANCH   1  23
ATOM     23  C   UNL     1       3.545  -4.639  28.288  0.00  0.00    +0.069 C 
BRANCH  23  24
ATOM     24  C   UNL     1       4.422  -3.799  27.380  0.00  0.00    -0.045 A 
ATOM     25  C   UNL     1       3.845  -2.927  26.446  0.00  0.00    +0.005 A 
ATOM     26  C   UNL     1       4.642  -2.063  25.690  0.00  0.00    +0.017 A 
ATOM     27  C   UNL     1       6.028  -2.066  25.855  0.00  0.00    +0.025 A 
ATOM     28  C   UNL     1       6.615  -2.972  26.739  0.00  0.00    +0.017 A 
ATOM     29  C   UNL     1       5.817  -3.832  27.501  0.00  0.00    +0.005 A 
BRANCH  27  30
ATOM     30  C   UNL     1       6.831  -1.097  25.174  0.00  0.00    -0.061 C 
ATOM     31  C   UNL     1       7.563  -0.340  24.593  0.00  0.00    -0.061 C 
BRANCH  31  32
ATOM     32  C   UNL     1       8.481   0.507  23.897  0.00  0.00    +0.025 A 
ATOM     33  C   UNL     1       8.423   0.612  22.504  0.00  0.00    +0.017 A 
ATOM     34  C   UNL     1       9.300   1.462  21.828  0.00  0.00    +0.001 A 
ATOM     35  C   UNL     1      10.238   2.210  22.542  0.00  0.00    +0.000 A 
ATOM     36  C   UNL     1      10.299   2.106  23.931  0.00  0.00    +0.001 A 
ATOM     37  C   UNL     1       9.423   1.255  24.608  0.00  0.00    +0.017 A 
ENDBRANCH  31  32
ENDBRANCH  27  30
ENDBRANCH  23  24
ENDBRANCH   1  23
TORSDOF 9
ENDMDL
