MODEL 1
REMARK VINA RESULT:      -6.4      0.000      0.000
REMARK  Name = 
REMARK  2 active torsions:
REMARK  status: ('A' for Active; 'I' for Inactive)
REMARK    1  A    between atoms: C_1  and  N_2
REMARK    2  A    between atoms: C_8  and  C_15
REMARK                            x       y       z     vdW  Elec       q    Type
REMARK                         _______ _______ _______ _____ _____    ______ ____
ROOT
ATOM      1  C   UNL     1       3.790  -2.607  26.273  0.00  0.00    +0.105 C 
ATOM      2  N   UNL     1       5.070  -1.928  26.405  0.00  0.00    -0.301 NA
ATOM      3  C   UNL     1       6.166  -2.640  25.741  0.00  0.00    +0.116 C 
ATOM      4  C   UNL     1       6.890  -1.890  24.682  0.00  0.00    -0.040 C 
ATOM      5  C   UNL     1       7.933  -2.529  23.781  0.00  0.00    +0.077 C 
ATOM      6  C   UNL     1       8.351  -1.328  22.956  0.00  0.00    -0.028 A 
ATOM      7  C   UNL     1       7.602  -0.205  23.342  0.00  0.00    -0.018 A 
ATOM      8  C   UNL     1       7.783   1.016  22.714  0.00  0.00    +0.008 A 
ATOM      9  C   UNL     1       8.728   1.101  21.686  0.00  0.00    +0.001 A 
ATOM     10  C   UNL     1       9.478  -0.025  21.304  0.00  0.00    +0.000 A 
ATOM     11  C   UNL     1       9.297  -1.252  21.944  0.00  0.00    +0.005 A 
ATOM     12  C   UNL     1       6.696  -0.593  24.411  0.00  0.00    -0.037 C 
ATOM     13  C   UNL     1       5.705   0.254  25.101  0.00  0.00    +0.051 C 
ATOM     14  C   UNL     1       4.982  -0.470  26.258  0.00  0.00    +0.089 C 
ENDROOT
BRANCH   5  15
ATOM     15  C   UNL     1       7.377  -3.672  22.952  0.00  0.00    -0.036 A 
ATOM     16  C   UNL     1       6.436  -3.422  21.944  0.00  0.00    +0.004 A 
ATOM     17  C   UNL     1       5.946  -4.466  21.157  0.00  0.00    +0.000 A 
ATOM     18  C   UNL     1       6.389  -5.771  21.366  0.00  0.00    +0.000 A 
ATOM     19  C   UNL     1       7.320  -6.035  22.365  0.00  0.00    +0.000 A 
ATOM     20  C   UNL     1       7.813  -4.995  23.152  0.00  0.00    +0.004 A 
ENDBRANCH   5  15
TORSDOF 1
ENDMDL
MODEL 2
REMARK VINA RESULT:      -6.0      2.320      2.854
REMARK  Name = 
REMARK  2 active torsions:
REMARK  status: ('A' for Active; 'I' for Inactive)
REMARK    1  A    between atoms: C_1  and  N_2
REMARK    2  A    between atoms: C_8  and  C_15
REMARK                            x       y       z     vdW  Elec       q    Type
REMARK                         _______ _______ _______ _____ _____    ______ ____
ROOT
ATOM      1  C   UNL     1       5.716   0.474  28.244  0.00  0.00    +0.105 C 
ATOM      2  N   UNL     1       7.007   0.873  27.704  0.00  0.00    -0.301 NA
ATOM      3  C   UNL     1       7.870  -0.268  27.386  0.00  0.00    +0.116 C 
ATOM      4  C   UNL     1       8.317  -0.380  25.973  0.00  0.00    -0.040 C 
ATOM      5  C   UNL     1       9.070  -1.585  25.436  0.00  0.00    +0.077 C 
ATOM      6  C   UNL     1       9.297  -1.147  24.003  0.00  0.00    -0.028 A 
ATOM      7  C   UNL     1       8.708   0.111  23.794  0.00  0.00    -0.018 A 
ATOM      8  C   UNL     1       8.757   0.718  22.550  0.00  0.00    +0.008 A 
ATOM      9  C   UNL     1       9.405   0.045  21.509  0.00  0.00    +0.001 A 
ATOM     10  C   UNL     1       9.995  -1.212  21.721  0.00  0.00    +0.000 A 
ATOM     11  C   UNL     1       9.948  -1.817  22.978  0.00  0.00    +0.005 A 
ATOM     12  C   UNL     1       8.099   0.554  25.038  0.00  0.00    -0.037 C 
ATOM     13  C   UNL     1       7.348   1.801  25.278  0.00  0.00    +0.051 C 
ATOM     14  C   UNL     1       6.928   1.988  26.752  0.00  0.00    +0.089 C 
ENDROOT
BRANCH   5  15
ATOM     15  C   UNL     1       8.284  -2.877  25.560  0.00  0.00    -0.036 A 
ATOM     16  C   UNL     1       7.123  -3.074  24.798  0.00  0.00    +0.004 A 
ATOM     17  C   UNL     1       6.414  -4.273  24.883  0.00  0.00    +0.000 A 
ATOM     18  C   UNL     1       6.854  -5.289  25.730  0.00  0.00    +0.000 A 
ATOM     19  C   UNL     1       8.001  -5.108  26.495  0.00  0.00    +0.000 A 
ATOM     20  C   UNL     1       8.713  -3.912  26.410  0.00  0.00    +0.004 A 
ENDBRANCH   5  15
TORSDOF 1
ENDMDL
MODEL 3
REMARK VINA RESULT:      -5.9      3.281      4.852
REMARK  Name = 
REMARK  2 active torsions:
REMARK  status: ('A' for Active; 'I' for Inactive)
REMARK    1  A    between atoms: C_1  and  N_2
REMARK    2  A    between atoms: C_8  and  C_15
REMARK                            x       y       z     vdW  Elec       q    Type
REMARK                         _______ _______ _______ _____ _____    ______ ____
ROOT
ATOM      1  C   UNL     1       5.245   0.570  25.637  0.00  0.00    +0.105 C 
ATOM      2  N   UNL     1       6.269   1.385  26.271  0.00  0.00    -0.301 NA
ATOM      3  C   UNL     1       7.627   1.018  25.860  0.00  0.00    +0.116 C 
ATOM      4  C   UNL     1       8.432   2.091  25.221  0.00  0.00    -0.040 C 
ATOM      5  C   UNL     1       9.789   1.841  24.585  0.00  0.00    +0.077 C 
ATOM      6  C   UNL     1      10.149   3.247  24.150  0.00  0.00    -0.028 A 
ATOM      7  C   UNL     1       9.104   4.127  24.479  0.00  0.00    -0.018 A 
ATOM      8  C   UNL     1       9.184   5.472  24.159  0.00  0.00    +0.008 A 
ATOM      9  C   UNL     1      10.330   5.931  23.502  0.00  0.00    +0.001 A 
ATOM     10  C   UNL     1      11.375   5.049  23.176  0.00  0.00    +0.000 A 
ATOM     11  C   UNL     1      11.293   3.695  23.505  0.00  0.00    +0.005 A 
ATOM     12  C   UNL     1       8.048   3.372  25.135  0.00  0.00    -0.037 C 
ATOM     13  C   UNL     1       6.754   3.879  25.626  0.00  0.00    +0.051 C 
ATOM     14  C   UNL     1       5.917   2.808  26.361  0.00  0.00    +0.089 C 
ENDROOT
BRANCH   5  15
ATOM     15  C   UNL     1       9.730   0.847  23.439  0.00  0.00    -0.036 A 
ATOM     16  C   UNL     1       9.163   1.216  22.211  0.00  0.00    +0.004 A 
ATOM     17  C   UNL     1       9.136   0.317  21.144  0.00  0.00    +0.000 A 
ATOM     18  C   UNL     1       9.673  -0.961  21.289  0.00  0.00    +0.000 A 
ATOM     19  C   UNL     1      10.235  -1.343  22.502  0.00  0.00    +0.000 A 
ATOM     20  C   UNL     1      10.267  -0.447  23.570  0.00  0.00    +0.004 A 
ENDBRANCH   5  15
TORSDOF 1
ENDMDL
MODEL 4
REMARK VINA RESULT:      -5.9      2.326      3.079
REMARK  Name = 
REMARK  2 active torsions:
REMARK  status: ('A' for Active; 'I' for Inactive)
REMARK    1  A    between atoms: C_1  and  N_2
REMARK    2  A    between atoms: C_8  and  C_15
REMARK                            x       y       z     vdW  Elec       q    Type
REMARK                         _______ _______ _______ _____ _____    ______ ____
ROOT
ATOM      1  C   UNL     1       3.732  -5.826  26.544  0.00  0.00    +0.105 C 
ATOM      2  N   UNL     1       5.068  -5.555  27.051  0.00  0.00    -0.301 NA
ATOM      3  C   UNL     1       6.108  -5.705  26.029  0.00  0.00    +0.116 C 
ATOM      4  C   UNL     1       6.937  -4.503  25.754  0.00  0.00    -0.040 C 
ATOM      5  C   UNL     1       7.939  -4.431  24.615  0.00  0.00    +0.077 C 
ATOM      6  C   UNL     1       8.502  -3.041  24.835  0.00  0.00    -0.028 A 
ATOM      7  C   UNL     1       7.857  -2.437  25.927  0.00  0.00    -0.018 A 
ATOM      8  C   UNL     1       8.179  -1.147  26.314  0.00  0.00    +0.008 A 
ATOM      9  C   UNL     1       9.161  -0.462  25.590  0.00  0.00    +0.001 A 
ATOM     10  C   UNL     1       9.806  -1.070  24.499  0.00  0.00    +0.000 A 
ATOM     11  C   UNL     1       9.483  -2.373  24.117  0.00  0.00    +0.005 A 
ATOM     12  C   UNL     1       6.883  -3.371  26.469  0.00  0.00    -0.037 C 
ATOM     13  C   UNL     1       5.960  -3.152  27.598  0.00  0.00    +0.051 C 
ATOM     14  C   UNL     1       5.131  -4.404  27.961  0.00  0.00    +0.089 C 
ENDROOT
BRANCH   5  15
ATOM     15  C   UNL     1       7.299  -4.619  23.252  0.00  0.00    -0.036 A 
ATOM     16  C   UNL     1       7.457  -5.827  22.558  0.00  0.00    +0.004 A 
ATOM     17  C   UNL     1       6.844  -6.018  21.319  0.00  0.00    +0.000 A 
ATOM     18  C   UNL     1       6.067  -5.006  20.756  0.00  0.00    +0.000 A 
ATOM     19  C   UNL     1       5.905  -3.800  21.431  0.00  0.00    +0.000 A 
ATOM     20  C   UNL     1       6.514  -3.607  22.670  0.00  0.00    +0.004 A 
ENDBRANCH   5  15
TORSDOF 1
ENDMDL
MODEL 5
REMARK VINA RESULT:      -5.9      2.250      4.839
REMARK  Name = 
REMARK  2 active torsions:
REMARK  status: ('A' for Active; 'I' for Inactive)
REMARK    1  A    between atoms: C_1  and  N_2
REMARK    2  A    between atoms: C_8  and  C_15
REMARK                            x       y       z     vdW  Elec       q    Type
REMARK                         _______ _______ _______ _____ _____    ______ ____
ROOT
ATOM      1  C   UNL     1       5.055   1.925  26.146  0.00  0.00    +0.105 C 
ATOM      2  N   UNL     1       4.841   0.552  25.713  0.00  0.00    -0.301 NA
ATOM      3  C   UNL     1       5.732   0.153  24.619  0.00  0.00    +0.116 C 
ATOM      4  C   UNL     1       6.616  -1.012  24.884  0.00  0.00    -0.040 C 
ATOM      5  C   UNL     1       7.714  -1.451  23.931  0.00  0.00    +0.077 C 
ATOM      6  C   UNL     1       8.240  -2.669  24.664  0.00  0.00    -0.028 A 
ATOM      7  C   UNL     1       7.539  -2.834  25.870  0.00  0.00    -0.018 A 
ATOM      8  C   UNL     1       7.854  -3.868  26.736  0.00  0.00    +0.008 A 
ATOM      9  C   UNL     1       8.887  -4.741  26.380  0.00  0.00    +0.001 A 
ATOM     10  C   UNL     1       9.586  -4.574  25.172  0.00  0.00    +0.000 A 
ATOM     11  C   UNL     1       9.261  -3.534  24.299  0.00  0.00    +0.005 A 
ATOM     12  C   UNL     1       6.542  -1.780  25.979  0.00  0.00    -0.037 C 
ATOM     13  C   UNL     1       5.600  -1.545  27.089  0.00  0.00    +0.051 C 
ATOM     14  C   UNL     1       4.616  -0.386  26.820  0.00  0.00    +0.089 C 
ENDROOT
BRANCH   5  15
ATOM     15  C   UNL     1       8.763  -0.379  23.702  0.00  0.00    -0.036 A 
ATOM     16  C   UNL     1       8.949   0.167  22.424  0.00  0.00    +0.004 A 
ATOM     17  C   UNL     1       9.889   1.177  22.214  0.00  0.00    +0.000 A 
ATOM     18  C   UNL     1      10.657   1.653  23.276  0.00  0.00    +0.000 A 
ATOM     19  C   UNL     1      10.487   1.118  24.549  0.00  0.00    +0.000 A 
ATOM     20  C   UNL     1       9.547   0.112  24.763  0.00  0.00    +0.004 A 
ENDBRANCH   5  15
TORSDOF 1
ENDMDL
MODEL 6
REMARK VINA RESULT:      -5.8      1.876      5.009
REMARK  Name = 
REMARK  2 active torsions:
REMARK  status: ('A' for Active; 'I' for Inactive)
REMARK    1  A    between atoms: C_1  and  N_2
REMARK    2  A    between atoms: C_8  and  C_15
REMARK                            x       y       z     vdW  Elec       q    Type
REMARK                         _______ _______ _______ _____ _____    ______ ____
ROOT
ATOM      1  C   UNL     1       6.380  -5.761  21.059  0.00  0.00    +0.105 C 
ATOM      2  N   UNL     1       6.271  -5.871  22.505  0.00  0.00    -0.301 NA
ATOM      3  C   UNL     1       7.290  -5.092  23.215  0.00  0.00    +0.116 C 
ATOM      4  C   UNL     1       6.789  -4.053  24.151  0.00  0.00    -0.040 C 
ATOM      5  C   UNL     1       7.699  -3.047  24.836  0.00  0.00    +0.077 C 
ATOM      6  C   UNL     1       6.687  -2.292  25.675  0.00  0.00    -0.028 A 
ATOM      7  C   UNL     1       5.400  -2.804  25.439  0.00  0.00    -0.018 A 
ATOM      8  C   UNL     1       4.295  -2.261  26.072  0.00  0.00    +0.008 A 
ATOM      9  C   UNL     1       4.493  -1.190  26.949  0.00  0.00    +0.001 A 
ATOM     10  C   UNL     1       5.782  -0.681  27.185  0.00  0.00    +0.000 A 
ATOM     11  C   UNL     1       6.893  -1.235  26.549  0.00  0.00    +0.005 A 
ATOM     12  C   UNL     1       5.500  -3.892  24.479  0.00  0.00    -0.037 C 
ATOM     13  C   UNL     1       4.400  -4.700  23.919  0.00  0.00    +0.051 C 
ATOM     14  C   UNL     1       4.887  -5.839  22.996  0.00  0.00    +0.089 C 
ENDROOT
BRANCH   5  15
ATOM     15  C   UNL     1       8.453  -2.168  23.855  0.00  0.00    -0.036 A 
ATOM     16  C   UNL     1       9.819  -2.381  23.621  0.00  0.00    +0.004 A 
ATOM     17  C   UNL     1      10.510  -1.597  22.696  0.00  0.00    +0.000 A 
ATOM     18  C   UNL     1       9.847  -0.591  21.994  0.00  0.00    +0.000 A 
ATOM     19  C   UNL     1       8.493  -0.365  22.219  0.00  0.00    +0.000 A 
ATOM     20  C   UNL     1       7.799  -1.148  23.140  0.00  0.00    +0.004 A 
ENDBRANCH   5  15
TORSDOF 1
ENDMDL
MODEL 7
REMARK VINA RESULT:      -5.8      3.451      6.371
REMARK  Name = 
REMARK  2 active torsions:
REMARK  status: ('A' for Active; 'I' for Inactive)
REMARK    1  A    between atoms: C_1  and  N_2
REMARK    2  A    between atoms: C_8  and  C_15
REMARK                            x       y       z     vdW  Elec       q    Type
REMARK                         _______ _______ _______ _____ _____    ______ ____
ROOT
ATOM      1  C   UNL     1       6.714   3.259  28.140  0.00  0.00    +0.105 C 
ATOM      2  N   UNL     1       6.278   2.269  27.167  0.00  0.00    -0.301 NA
ATOM      3  C   UNL     1       6.317   2.767  25.789  0.00  0.00    +0.116 C 
ATOM      4  C   UNL     1       7.177   2.012  24.841  0.00  0.00    -0.040 C 
ATOM      5  C   UNL     1       7.465   2.485  23.427  0.00  0.00    +0.077 C 
ATOM      6  C   UNL     1       8.326   1.343  22.928  0.00  0.00    -0.028 A 
ATOM      7  C   UNL     1       8.505   0.401  23.954  0.00  0.00    -0.018 A 
ATOM      8  C   UNL     1       9.281  -0.728  23.752  0.00  0.00    +0.008 A 
ATOM      9  C   UNL     1       9.881  -0.906  22.501  0.00  0.00    +0.001 A 
ATOM     10  C   UNL     1       9.699   0.037  21.475  0.00  0.00    +0.000 A 
ATOM     11  C   UNL     1       8.912   1.171  21.682  0.00  0.00    +0.005 A 
ATOM     12  C   UNL     1       7.784   0.854  25.134  0.00  0.00    -0.037 C 
ATOM     13  C   UNL     1       7.714   0.196  26.452  0.00  0.00    +0.051 C 
ATOM     14  C   UNL     1       6.772   0.914  27.443  0.00  0.00    +0.089 C 
ENDROOT
BRANCH   5  15
ATOM     15  C   UNL     1       8.160   3.834  23.385  0.00  0.00    -0.036 A 
ATOM     16  C   UNL     1       7.514   4.945  22.823  0.00  0.00    +0.004 A 
ATOM     17  C   UNL     1       8.134   6.195  22.812  0.00  0.00    +0.000 A 
ATOM     18  C   UNL     1       9.406   6.352  23.359  0.00  0.00    +0.000 A 
ATOM     19  C   UNL     1      10.062   5.259  23.916  0.00  0.00    +0.000 A 
ATOM     20  C   UNL     1       9.444   4.010  23.932  0.00  0.00    +0.004 A 
ENDBRANCH   5  15
TORSDOF 1
ENDMDL
MODEL 8
REMARK VINA RESULT:      -5.8      1.429      4.444
REMARK  Name = 
REMARK  2 active torsions:
REMARK  status: ('A' for Active; 'I' for Inactive)
REMARK    1  A    between atoms: C_1  and  N_2
REMARK    2  A    between atoms: C_8  and  C_15
REMARK                            x       y       z     vdW  Elec       q    Type
REMARK                         _______ _______ _______ _____ _____    ______ ____
ROOT
ATOM      1  C   UNL     1       6.155  -0.196  27.217  0.00  0.00    +0.105 C 
ATOM      2  N   UNL     1       5.183  -0.632  26.225  0.00  0.00    -0.301 NA
ATOM      3  C   UNL     1       5.726  -0.651  24.864  0.00  0.00    +0.116 C 
ATOM      4  C   UNL     1       5.695  -1.960  24.163  0.00  0.00    -0.040 C 
ATOM      5  C   UNL     1       6.367  -2.197  22.820  0.00  0.00    +0.077 C 
ATOM      6  C   UNL     1       5.986  -3.643  22.577  0.00  0.00    -0.028 A 
ATOM      7  C   UNL     1       5.241  -4.126  23.665  0.00  0.00    -0.018 A 
ATOM      8  C   UNL     1       4.795  -5.437  23.692  0.00  0.00    +0.008 A 
ATOM      9  C   UNL     1       5.107  -6.266  22.610  0.00  0.00    +0.001 A 
ATOM     10  C   UNL     1       5.851  -5.780  21.522  0.00  0.00    +0.000 A 
ATOM     11  C   UNL     1       6.293  -4.456  21.496  0.00  0.00    +0.005 A 
ATOM     12  C   UNL     1       5.087  -3.055  24.638  0.00  0.00    -0.037 C 
ATOM     13  C   UNL     1       4.403  -3.117  25.942  0.00  0.00    +0.051 C 
ATOM     14  C   UNL     1       4.351  -1.756  26.670  0.00  0.00    +0.089 C 
ENDROOT
BRANCH   5  15
ATOM     15  C   UNL     1       7.865  -1.961  22.859  0.00  0.00    -0.036 A 
ATOM     16  C   UNL     1       8.675  -2.701  23.732  0.00  0.00    +0.004 A 
ATOM     17  C   UNL     1      10.058  -2.511  23.748  0.00  0.00    +0.000 A 
ATOM     18  C   UNL     1      10.649  -1.581  22.895  0.00  0.00    +0.000 A 
ATOM     19  C   UNL     1       9.859  -0.836  22.027  0.00  0.00    +0.000 A 
ATOM     20  C   UNL     1       8.478  -1.024  22.005  0.00  0.00    +0.004 A 
ENDBRANCH   5  15
TORSDOF 1
ENDMDL
MODEL 9
REMARK VINA RESULT:      -5.8      3.616      5.277
REMARK  Name = 
REMARK  2 active torsions:
REMARK  status: ('A' for Active; 'I' for Inactive)
REMARK    1  A    between atoms: C_1  and  N_2
REMARK    2  A    between atoms: C_8  and  C_15
REMARK                            x       y       z     vdW  Elec       q    Type
REMARK                         _______ _______ _______ _____ _____    ______ ____
ROOT
ATOM      1  C   UNL     1       3.729  -5.495  28.873  0.00  0.00    +0.105 C 
ATOM      2  N   UNL     1       4.900  -6.020  28.188  0.00  0.00    -0.301 NA
ATOM      3  C   UNL     1       4.564  -6.767  26.973  0.00  0.00    +0.116 C 
ATOM      4  C   UNL     1       5.157  -6.262  25.707  0.00  0.00    -0.040 C 
ATOM      5  C   UNL     1       4.780  -6.810  24.341  0.00  0.00    +0.077 C 
ATOM      6  C   UNL     1       5.693  -5.984  23.456  0.00  0.00    -0.028 A 
ATOM      7  C   UNL     1       6.432  -5.087  24.245  0.00  0.00    -0.018 A 
ATOM      8  C   UNL     1       7.323  -4.201  23.663  0.00  0.00    +0.008 A 
ATOM      9  C   UNL     1       7.466  -4.222  22.272  0.00  0.00    +0.001 A 
ATOM     10  C   UNL     1       6.727  -5.122  21.485  0.00  0.00    +0.000 A 
ATOM     11  C   UNL     1       5.834  -6.017  22.076  0.00  0.00    +0.005 A 
ATOM     12  C   UNL     1       6.066  -5.281  25.639  0.00  0.00    -0.037 C 
ATOM     13  C   UNL     1       6.570  -4.542  26.811  0.00  0.00    +0.051 C 
ATOM     14  C   UNL     1       6.031  -5.084  28.153  0.00  0.00    +0.089 C 
ENDROOT
BRANCH   5  15
ATOM     15  C   UNL     1       3.306  -6.639  24.021  0.00  0.00    -0.036 A 
ATOM     16  C   UNL     1       2.797  -5.376  23.687  0.00  0.00    +0.004 A 
ATOM     17  C   UNL     1       1.449  -5.219  23.360  0.00  0.00    +0.000 A 
ATOM     18  C   UNL     1       0.593  -6.319  23.363  0.00  0.00    +0.000 A 
ATOM     19  C   UNL     1       1.083  -7.578  23.696  0.00  0.00    +0.000 A 
ATOM     20  C   UNL     1       2.429  -7.739  24.021  0.00  0.00    +0.004 A 
ENDBRANCH   5  15
TORSDOF 1
ENDMDL
