MODEL 1
REMARK VINA RESULT:      -6.3      0.000      0.000
REMARK  Name = 
REMARK  6 active torsions:
REMARK  status: ('A' for Active; 'I' for Inactive)
REMARK    1  A    between atoms: C_1  and  O_2
REMARK    2  A    between atoms: O_2  and  C_3
REMARK    3  A    between atoms: C_10  and  C_13
REMARK    4  A    between atoms: C_13  and  C_15
REMARK    5  A    between atoms: C_13  and  C_16
REMARK    6  A    between atoms: C_16  and  O_17
REMARK                            x       y       z     vdW  Elec       q    Type
REMARK                         _______ _______ _______ _____ _____    ______ ____
ROOT
ATOM      1  C   UNL     1      10.069   1.794  23.398  0.00  0.00    +0.121 A 
ATOM      2  C   UNL     1      10.096   1.169  22.152  0.00  0.00    +0.046 A 
ATOM      3  C   UNL     1       9.764  -0.183  22.031  0.00  0.00    +0.012 A 
ATOM      4  C   UNL     1       9.411  -0.935  23.164  0.00  0.00    -0.017 A 
ATOM      5  C   UNL     1       9.071  -2.296  23.080  0.00  0.00    +0.013 A 
ATOM      6  C   UNL     1       8.736  -3.037  24.228  0.00  0.00    -0.033 A 
ATOM      7  C   UNL     1       8.728  -2.394  25.471  0.00  0.00    +0.005 A 
ATOM      8  C   UNL     1       9.057  -1.044  25.566  0.00  0.00    +0.009 A 
ATOM      9  C   UNL     1       9.402  -0.305  24.428  0.00  0.00    -0.014 A 
ATOM     10  C   UNL     1       9.741   1.049  24.530  0.00  0.00    +0.054 A 
ENDROOT
BRANCH   1  12
ATOM     11  C   UNL     1       9.373   4.005  23.839  0.00  0.00    +0.277 C 
ATOM     12  O   UNL     1      10.406   3.120  23.411  0.00  0.00    -0.495 OA
ENDBRANCH   1  12
BRANCH   6  13
ATOM     13  C   UNL     1       8.388  -4.513  24.142  0.00  0.00    +0.124 C 
ATOM     14  C   UNL     1       6.885  -4.708  23.931  0.00  0.00    +0.024 C 
BRANCH  13  15
ATOM     15  C   UNL     1       8.894  -5.304  25.343  0.00  0.00    +0.312 C 
ATOM     16  O   UNL     1       8.182  -5.730  26.246  0.00  0.00    -0.250 OA
BRANCH  15  17
ATOM     17  O   UNL     1      10.223  -5.561  25.311  0.00  0.00    -0.480 OA
ATOM     18  H   UNL     1      10.458  -6.338  24.768  0.00  0.00    +0.295 HD
ENDBRANCH  15  17
ENDBRANCH  13  15
ENDBRANCH   6  13
TORSDOF 4
ENDMDL
MODEL 2
REMARK VINA RESULT:      -6.2      0.815      1.739
REMARK  Name = 
REMARK  6 active torsions:
REMARK  status: ('A' for Active; 'I' for Inactive)
REMARK    1  A    between atoms: C_1  and  O_2
REMARK    2  A    between atoms: O_2  and  C_3
REMARK    3  A    between atoms: C_10  and  C_13
REMARK    4  A    between atoms: C_13  and  C_15
REMARK    5  A    between atoms: C_13  and  C_16
REMARK    6  A    between atoms: C_16  and  O_17
REMARK                            x       y       z     vdW  Elec       q    Type
REMARK                         _______ _______ _______ _____ _____    ______ ____
ROOT
ATOM      1  C   UNL     1      10.199   1.483  23.158  0.00  0.00    +0.121 A 
ATOM      2  C   UNL     1      10.544   1.174  24.473  0.00  0.00    +0.046 A 
ATOM      3  C   UNL     1      10.255  -0.087  25.002  0.00  0.00    +0.012 A 
ATOM      4  C   UNL     1       9.603  -1.056  24.223  0.00  0.00    -0.017 A 
ATOM      5  C   UNL     1       9.296  -2.333  24.722  0.00  0.00    +0.013 A 
ATOM      6  C   UNL     1       8.627  -3.285  23.931  0.00  0.00    -0.033 A 
ATOM      7  C   UNL     1       8.278  -2.949  22.618  0.00  0.00    +0.005 A 
ATOM      8  C   UNL     1       8.580  -1.689  22.110  0.00  0.00    +0.009 A 
ATOM      9  C   UNL     1       9.237  -0.735  22.897  0.00  0.00    -0.014 A 
ATOM     10  C   UNL     1       9.530   0.535  22.385  0.00  0.00    +0.054 A 
ENDROOT
BRANCH   1  12
ATOM     11  C   UNL     1      10.146   3.799  23.609  0.00  0.00    +0.277 C 
ATOM     12  O   UNL     1      10.528   2.742  22.733  0.00  0.00    -0.495 OA
ENDBRANCH   1  12
BRANCH   6  13
ATOM     13  C   UNL     1       8.278  -4.659  24.475  0.00  0.00    +0.124 C 
ATOM     14  C   UNL     1       6.775  -4.780  24.732  0.00  0.00    +0.024 C 
BRANCH  13  15
ATOM     15  C   UNL     1       9.090  -5.020  25.715  0.00  0.00    +0.312 C 
ATOM     16  O   UNL     1       8.699  -4.877  26.869  0.00  0.00    -0.250 OA
BRANCH  15  17
ATOM     17  O   UNL     1      10.290  -5.584  25.441  0.00  0.00    -0.480 OA
ATOM     18  H   UNL     1      10.953  -5.457  26.146  0.00  0.00    +0.295 HD
ENDBRANCH  15  17
ENDBRANCH  13  15
ENDBRANCH   6  13
TORSDOF 4
ENDMDL
MODEL 3
REMARK VINA RESULT:      -6.1      2.367      3.379
REMARK  Name = 
REMARK  6 active torsions:
REMARK  status: ('A' for Active; 'I' for Inactive)
REMARK    1  A    between atoms: C_1  and  O_2
REMARK    2  A    between atoms: O_2  and  C_3
REMARK    3  A    between atoms: C_10  and  C_13
REMARK    4  A    between atoms: C_13  and  C_15
REMARK    5  A    between atoms: C_13  and  C_16
REMARK    6  A    between atoms: C_16  and  O_17
REMARK                            x       y       z     vdW  Elec       q    Type
REMARK                         _______ _______ _______ _____ _____    ______ ____
ROOT
ATOM      1  C   UNL     1       9.932  -0.746  23.972  0.00  0.00    +0.121 A 
ATOM      2  C   UNL     1       9.260  -0.464  22.783  0.00  0.00    +0.046 A 
ATOM      3  C   UNL     1       8.409  -1.412  22.209  0.00  0.00    +0.012 A 
ATOM      4  C   UNL     1       8.228  -2.667  22.814  0.00  0.00    -0.017 A 
ATOM      5  C   UNL     1       7.380  -3.644  22.265  0.00  0.00    +0.013 A 
ATOM      6  C   UNL     1       7.224  -4.902  22.876  0.00  0.00    -0.033 A 
ATOM      7  C   UNL     1       7.918  -5.170  24.062  0.00  0.00    +0.005 A 
ATOM      8  C   UNL     1       8.757  -4.208  24.618  0.00  0.00    +0.009 A 
ATOM      9  C   UNL     1       8.924  -2.959  24.007  0.00  0.00    -0.014 A 
ATOM     10  C   UNL     1       9.775  -1.998  24.566  0.00  0.00    +0.054 A 
ENDROOT
BRANCH   1  12
ATOM     11  C   UNL     1      10.398   1.566  24.031  0.00  0.00    +0.277 C 
ATOM     12  O   UNL     1      10.738   0.248  24.455  0.00  0.00    -0.495 OA
ENDBRANCH   1  12
BRANCH   6  13
ATOM     13  C   UNL     1       6.324  -5.966  22.274  0.00  0.00    +0.124 C 
ATOM     14  C   UNL     1       6.219  -5.799  20.756  0.00  0.00    +0.024 C 
BRANCH  13  15
ATOM     15  C   UNL     1       4.947  -6.007  22.930  0.00  0.00    +0.312 C 
ATOM     16  O   UNL     1       4.091  -5.138  22.805  0.00  0.00    -0.250 OA
BRANCH  15  17
ATOM     17  O   UNL     1       4.709  -7.138  23.635  0.00  0.00    -0.480 OA
ATOM     18  H   UNL     1       3.765  -7.281  23.838  0.00  0.00    +0.295 HD
ENDBRANCH  15  17
ENDBRANCH  13  15
ENDBRANCH   6  13
TORSDOF 4
ENDMDL
MODEL 4
REMARK VINA RESULT:      -5.9      1.765      6.370
REMARK  Name = 
REMARK  6 active torsions:
REMARK  status: ('A' for Active; 'I' for Inactive)
REMARK    1  A    between atoms: C_1  and  O_2
REMARK    2  A    between atoms: O_2  and  C_3
REMARK    3  A    between atoms: C_10  and  C_13
REMARK    4  A    between atoms: C_13  and  C_15
REMARK    5  A    between atoms: C_13  and  C_16
REMARK    6  A    between atoms: C_16  and  O_17
REMARK                            x       y       z     vdW  Elec       q    Type
REMARK                         _______ _______ _______ _____ _____    ______ ____
ROOT
ATOM      1  C   UNL     1       7.429  -4.921  25.959  0.00  0.00    +0.121 A 
ATOM      2  C   UNL     1       8.676  -5.297  25.461  0.00  0.00    +0.046 A 
ATOM      3  C   UNL     1       9.502  -4.357  24.839  0.00  0.00    +0.012 A 
ATOM      4  C   UNL     1       9.086  -3.024  24.697  0.00  0.00    -0.017 A 
ATOM      5  C   UNL     1       9.890  -2.052  24.077  0.00  0.00    +0.013 A 
ATOM      6  C   UNL     1       9.449  -0.725  23.929  0.00  0.00    -0.033 A 
ATOM      7  C   UNL     1       8.188  -0.371  24.425  0.00  0.00    +0.005 A 
ATOM      8  C   UNL     1       7.384  -1.323  25.045  0.00  0.00    +0.009 A 
ATOM      9  C   UNL     1       7.815  -2.648  25.185  0.00  0.00    -0.014 A 
ATOM     10  C   UNL     1       6.998  -3.604  25.802  0.00  0.00    +0.054 A 
ENDROOT
BRANCH   1  12
ATOM     11  C   UNL     1       5.445  -6.198  25.935  0.00  0.00    +0.277 C 
ATOM     12  O   UNL     1       6.697  -5.912  26.554  0.00  0.00    -0.495 OA
ENDBRANCH   1  12
BRANCH   6  13
ATOM     13  C   UNL     1      10.309   0.322  23.242  0.00  0.00    +0.124 C 
ATOM     14  C   UNL     1      10.454   1.569  24.117  0.00  0.00    +0.024 C 
BRANCH  13  15
ATOM     15  C   UNL     1       9.803   0.670  21.847  0.00  0.00    +0.312 C 
ATOM     16  O   UNL     1       9.290  -0.131  21.072  0.00  0.00    -0.250 OA
BRANCH  15  17
ATOM     17  O   UNL     1       9.909   1.984  21.537  0.00  0.00    -0.480 OA
ATOM     18  H   UNL     1       9.334   2.561  22.074  0.00  0.00    +0.295 HD
ENDBRANCH  15  17
ENDBRANCH  13  15
ENDBRANCH   6  13
TORSDOF 4
ENDMDL
MODEL 5
REMARK VINA RESULT:      -5.8      1.905      1.952
REMARK  Name = 
REMARK  6 active torsions:
REMARK  status: ('A' for Active; 'I' for Inactive)
REMARK    1  A    between atoms: C_1  and  O_2
REMARK    2  A    between atoms: O_2  and  C_3
REMARK    3  A    between atoms: C_10  and  C_13
REMARK    4  A    between atoms: C_13  and  C_15
REMARK    5  A    between atoms: C_13  and  C_16
REMARK    6  A    between atoms: C_16  and  O_17
REMARK                            x       y       z     vdW  Elec       q    Type
REMARK                         _______ _______ _______ _____ _____    ______ ____
ROOT
ATOM      1  C   UNL     1       8.132   1.562  22.104  0.00  0.00    +0.121 A 
ATOM      2  C   UNL     1       9.240   0.920  21.551  0.00  0.00    +0.046 A 
ATOM      3  C   UNL     1       9.408  -0.458  21.705  0.00  0.00    +0.012 A 
ATOM      4  C   UNL     1       8.473  -1.215  22.429  0.00  0.00    -0.017 A 
ATOM      5  C   UNL     1       8.610  -2.603  22.604  0.00  0.00    +0.013 A 
ATOM      6  C   UNL     1       7.671  -3.342  23.346  0.00  0.00    -0.033 A 
ATOM      7  C   UNL     1       6.573  -2.676  23.904  0.00  0.00    +0.005 A 
ATOM      8  C   UNL     1       6.423  -1.302  23.733  0.00  0.00    +0.009 A 
ATOM      9  C   UNL     1       7.361  -0.561  23.004  0.00  0.00    -0.014 A 
ATOM     10  C   UNL     1       7.210   0.821  22.843  0.00  0.00    +0.054 A 
ENDROOT
BRANCH   1  12
ATOM     11  C   UNL     1       6.782   3.496  22.156  0.00  0.00    +0.277 C 
ATOM     12  O   UNL     1       8.055   2.912  21.894  0.00  0.00    -0.495 OA
ENDBRANCH   1  12
BRANCH   6  13
ATOM     13  C   UNL     1       7.828  -4.838  23.553  0.00  0.00    +0.124 C 
ATOM     14  C   UNL     1       6.475  -5.547  23.469  0.00  0.00    +0.024 C 
BRANCH  13  15
ATOM     15  C   UNL     1       8.559  -5.175  24.848  0.00  0.00    +0.312 C 
ATOM     16  O   UNL     1       8.011  -5.351  25.931  0.00  0.00    -0.250 OA
BRANCH  15  17
ATOM     17  O   UNL     1       9.896  -5.330  24.699  0.00  0.00    -0.480 OA
ATOM     18  H   UNL     1      10.170  -5.514  23.780  0.00  0.00    +0.295 HD
ENDBRANCH  15  17
ENDBRANCH  13  15
ENDBRANCH   6  13
TORSDOF 4
ENDMDL
MODEL 6
REMARK VINA RESULT:      -5.8      1.755      6.709
REMARK  Name = 
REMARK  6 active torsions:
REMARK  status: ('A' for Active; 'I' for Inactive)
REMARK    1  A    between atoms: C_1  and  O_2
REMARK    2  A    between atoms: O_2  and  C_3
REMARK    3  A    between atoms: C_10  and  C_13
REMARK    4  A    between atoms: C_13  and  C_15
REMARK    5  A    between atoms: C_13  and  C_16
REMARK    6  A    between atoms: C_16  and  O_17
REMARK                            x       y       z     vdW  Elec       q    Type
REMARK                         _______ _______ _______ _____ _____    ______ ____
ROOT
ATOM      1  C   UNL     1       9.591  -2.842  24.292  0.00  0.00    +0.121 A 
ATOM      2  C   UNL     1       8.852  -2.297  25.342  0.00  0.00    +0.046 A 
ATOM      3  C   UNL     1       8.493  -0.947  25.328  0.00  0.00    +0.012 A 
ATOM      4  C   UNL     1       8.881  -0.116  24.265  0.00  0.00    -0.017 A 
ATOM      5  C   UNL     1       8.538   1.246  24.218  0.00  0.00    +0.013 A 
ATOM      6  C   UNL     1       8.949   2.067  23.152  0.00  0.00    -0.033 A 
ATOM      7  C   UNL     1       9.702   1.504  22.115  0.00  0.00    +0.005 A 
ATOM      8  C   UNL     1      10.044   0.154  22.147  0.00  0.00    +0.009 A 
ATOM      9  C   UNL     1       9.645  -0.664  23.211  0.00  0.00    -0.014 A 
ATOM     10  C   UNL     1      10.000  -2.018  23.243  0.00  0.00    +0.054 A 
ENDROOT
BRANCH   1  12
ATOM     11  C   UNL     1       9.410  -4.813  25.576  0.00  0.00    +0.277 C 
ATOM     12  O   UNL     1       9.889  -4.173  24.396  0.00  0.00    -0.495 OA
ENDBRANCH   1  12
BRANCH   6  13
ATOM     13  C   UNL     1       8.596   3.543  23.110  0.00  0.00    +0.124 C 
ATOM     14  C   UNL     1       8.451   4.111  24.524  0.00  0.00    +0.024 C 
BRANCH  13  15
ATOM     15  C   UNL     1       7.359   3.824  22.263  0.00  0.00    +0.312 C 
ATOM     16  O   UNL     1       6.412   3.055  22.138  0.00  0.00    -0.250 OA
BRANCH  15  17
ATOM     17  O   UNL     1       7.354   5.050  21.688  0.00  0.00    -0.480 OA
ATOM     18  H   UNL     1       7.894   5.709  22.166  0.00  0.00    +0.295 HD
ENDBRANCH  15  17
ENDBRANCH  13  15
ENDBRANCH   6  13
TORSDOF 4
ENDMDL
MODEL 7
REMARK VINA RESULT:      -5.7      1.552      2.636
REMARK  Name = 
REMARK  6 active torsions:
REMARK  status: ('A' for Active; 'I' for Inactive)
REMARK    1  A    between atoms: C_1  and  O_2
REMARK    2  A    between atoms: O_2  and  C_3
REMARK    3  A    between atoms: C_10  and  C_13
REMARK    4  A    between atoms: C_13  and  C_15
REMARK    5  A    between atoms: C_13  and  C_16
REMARK    6  A    between atoms: C_16  and  O_17
REMARK                            x       y       z     vdW  Elec       q    Type
REMARK                         _______ _______ _______ _____ _____    ______ ____
ROOT
ATOM      1  C   UNL     1       9.875   2.993  23.581  0.00  0.00    +0.121 A 
ATOM      2  C   UNL     1       9.014   2.663  24.627  0.00  0.00    +0.046 A 
ATOM      3  C   UNL     1       8.414   1.402  24.678  0.00  0.00    +0.012 A 
ATOM      4  C   UNL     1       8.659   0.454  23.672  0.00  0.00    -0.017 A 
ATOM      5  C   UNL     1       8.073  -0.824  23.691  0.00  0.00    +0.013 A 
ATOM      6  C   UNL     1       8.317  -1.755  22.664  0.00  0.00    -0.033 A 
ATOM      7  C   UNL     1       9.174  -1.398  21.616  0.00  0.00    +0.005 A 
ATOM      8  C   UNL     1       9.764  -0.138  21.589  0.00  0.00    +0.009 A 
ATOM      9  C   UNL     1       9.516   0.796  22.603  0.00  0.00    -0.014 A 
ATOM     10  C   UNL     1      10.105   2.065  22.565  0.00  0.00    +0.054 A 
ENDROOT
BRANCH   1  12
ATOM     11  C   UNL     1      11.795   4.330  23.272  0.00  0.00    +0.277 C 
ATOM     12  O   UNL     1      10.415   4.249  23.623  0.00  0.00    -0.495 OA
ENDBRANCH   1  12
BRANCH   6  13
ATOM     13  C   UNL     1       7.669  -3.128  22.674  0.00  0.00    +0.124 C 
ATOM     14  C   UNL     1       6.156  -3.020  22.473  0.00  0.00    +0.024 C 
BRANCH  13  15
ATOM     15  C   UNL     1       8.014  -3.928  23.926  0.00  0.00    +0.312 C 
ATOM     16  O   UNL     1       9.128  -4.369  24.185  0.00  0.00    -0.250 OA
BRANCH  15  17
ATOM     17  O   UNL     1       6.979  -4.071  24.788  0.00  0.00    -0.480 OA
ATOM     18  H   UNL     1       6.270  -4.655  24.456  0.00  0.00    +0.295 HD
ENDBRANCH  15  17
ENDBRANCH  13  15
ENDBRANCH   6  13
TORSDOF 4
ENDMDL
MODEL 8
REMARK VINA RESULT:      -5.6      2.018      6.773
REMARK  Name = 
REMARK  6 active torsions:
REMARK  status: ('A' for Active; 'I' for Inactive)
REMARK    1  A    between atoms: C_1  and  O_2
REMARK    2  A    between atoms: O_2  and  C_3
REMARK    3  A    between atoms: C_10  and  C_13
REMARK    4  A    between atoms: C_13  and  C_15
REMARK    5  A    between atoms: C_13  and  C_16
REMARK    6  A    between atoms: C_16  and  O_17
REMARK                            x       y       z     vdW  Elec       q    Type
REMARK                         _______ _______ _______ _____ _____    ______ ____
ROOT
ATOM      1  C   UNL     1       9.816  -1.970  23.698  0.00  0.00    +0.121 A 
ATOM      2  C   UNL     1      10.182  -1.511  22.433  0.00  0.00    +0.046 A 
ATOM      3  C   UNL     1      10.038  -0.161  22.102  0.00  0.00    +0.012 A 
ATOM      4  C   UNL     1       9.513   0.750  23.033  0.00  0.00    -0.017 A 
ATOM      5  C   UNL     1       9.355   2.114  22.735  0.00  0.00    +0.013 A 
ATOM      6  C   UNL     1       8.811   3.010  23.674  0.00  0.00    -0.033 A 
ATOM      7  C   UNL     1       8.438   2.525  24.934  0.00  0.00    +0.005 A 
ATOM      8  C   UNL     1       8.595   1.177  25.243  0.00  0.00    +0.009 A 
ATOM      9  C   UNL     1       9.126   0.281  24.307  0.00  0.00    -0.014 A 
ATOM     10  C   UNL     1       9.273  -1.076  24.620  0.00  0.00    +0.054 A 
ENDROOT
BRANCH   1  12
ATOM     11  C   UNL     1       9.299  -3.832  25.051  0.00  0.00    +0.277 C 
ATOM     12  O   UNL     1       9.999  -3.307  23.926  0.00  0.00    -0.495 OA
ENDBRANCH   1  12
BRANCH   6  13
ATOM     13  C   UNL     1       8.622   4.480  23.346  0.00  0.00    +0.124 C 
ATOM     14  C   UNL     1       8.696   5.336  24.612  0.00  0.00    +0.024 C 
BRANCH  13  15
ATOM     15  C   UNL     1       7.338   4.744  22.565  0.00  0.00    +0.312 C 
ATOM     16  O   UNL     1       6.237   4.294  22.863  0.00  0.00    -0.250 OA
BRANCH  15  17
ATOM     17  O   UNL     1       7.497   5.588  21.518  0.00  0.00    -0.480 OA
ATOM     18  H   UNL     1       7.351   6.526  21.746  0.00  0.00    +0.295 HD
ENDBRANCH  15  17
ENDBRANCH  13  15
ENDBRANCH   6  13
TORSDOF 4
ENDMDL
MODEL 9
REMARK VINA RESULT:      -5.6      2.197      6.478
REMARK  Name = 
REMARK  6 active torsions:
REMARK  status: ('A' for Active; 'I' for Inactive)
REMARK    1  A    between atoms: C_1  and  O_2
REMARK    2  A    between atoms: O_2  and  C_3
REMARK    3  A    between atoms: C_10  and  C_13
REMARK    4  A    between atoms: C_13  and  C_15
REMARK    5  A    between atoms: C_13  and  C_16
REMARK    6  A    between atoms: C_16  and  O_17
REMARK                            x       y       z     vdW  Elec       q    Type
REMARK                         _______ _______ _______ _____ _____    ______ ____
ROOT
ATOM      1  C   UNL     1       6.036  -5.044  23.352  0.00  0.00    +0.121 A 
ATOM      2  C   UNL     1       5.405  -4.047  22.609  0.00  0.00    +0.046 A 
ATOM      3  C   UNL     1       6.050  -2.832  22.364  0.00  0.00    +0.012 A 
ATOM      4  C   UNL     1       7.337  -2.591  22.873  0.00  0.00    -0.017 A 
ATOM      5  C   UNL     1       8.015  -1.382  22.647  0.00  0.00    +0.013 A 
ATOM      6  C   UNL     1       9.297  -1.152  23.179  0.00  0.00    -0.033 A 
ATOM      7  C   UNL     1       9.907  -2.161  23.934  0.00  0.00    +0.005 A 
ATOM      8  C   UNL     1       9.248  -3.366  24.161  0.00  0.00    +0.009 A 
ATOM      9  C   UNL     1       7.967  -3.594  23.642  0.00  0.00    -0.014 A 
ATOM     10  C   UNL     1       7.305  -4.804  23.881  0.00  0.00    +0.054 A 
ENDROOT
BRANCH   1  12
ATOM     11  C   UNL     1       4.862  -6.426  24.862  0.00  0.00    +0.277 C 
ATOM     12  O   UNL     1       5.324  -6.198  23.533  0.00  0.00    -0.495 OA
ENDBRANCH   1  12
BRANCH   6  13
ATOM     13  C   UNL     1      10.023   0.162  22.952  0.00  0.00    +0.124 C 
ATOM     14  C   UNL     1      10.781   0.592  24.210  0.00  0.00    +0.024 C 
BRANCH  13  15
ATOM     15  C   UNL     1       9.095   1.263  22.451  0.00  0.00    +0.312 C 
ATOM     16  O   UNL     1       8.377   1.949  23.171  0.00  0.00    -0.250 OA
BRANCH  15  17
ATOM     17  O   UNL     1       9.168   1.477  21.116  0.00  0.00    -0.480 OA
ATOM     18  H   UNL     1       9.931   2.024  20.848  0.00  0.00    +0.295 HD
ENDBRANCH  15  17
ENDBRANCH  13  15
ENDBRANCH   6  13
TORSDOF 4
ENDMDL
