MODEL 1
REMARK VINA RESULT:      -7.3      0.000      0.000
REMARK  Name = 
REMARK  11 active torsions:
REMARK  status: ('A' for Active; 'I' for Inactive)
REMARK    1  A    between atoms: C_2  and  O_3
REMARK    2  A    between atoms: C_2  and  C_4
REMARK    3  A    between atoms: C_2  and  C_28
REMARK    4  A    between atoms: C_4  and  O_5
REMARK    5  A    between atoms: O_5  and  C_6
REMARK    6  A    between atoms: C_9  and  N_10
REMARK    7  A    between atoms: C_15  and  N_16
REMARK    8  A    between atoms: N_16  and  C_17
REMARK    9  A    between atoms: C_28  and  N_29
REMARK   10  A    between atoms: N_29  and  C_30
REMARK   11  A    between atoms: N_29  and  C_31
REMARK                            x       y       z     vdW  Elec       q    Type
REMARK                         _______ _______ _______ _____ _____    ______ ____
ROOT
ATOM      1  N   UNL     1       8.247  -0.815  22.223  0.00  0.00    -0.299 N 
ATOM      2  H   UNL     1       8.333  -0.685  21.225  0.00  0.00    +0.154 HD
ATOM      3  C   UNL     1       9.212  -0.084  22.957  0.00  0.00    +0.128 A 
ATOM      4  C   UNL     1       9.573   1.158  22.468  0.00  0.00    +0.087 A 
ATOM      5  C   UNL     1      10.416   1.951  23.225  0.00  0.00    +0.128 A 
ATOM      6  N   UNL     1      10.919   1.525  24.390  0.00  0.00    -0.221 NA
ATOM      7  C   UNL     1      10.541   0.301  24.776  0.00  0.00    +0.225 A 
ATOM      8  N   UNL     1       9.707  -0.526  24.120  0.00  0.00    -0.221 NA
ENDROOT
BRANCH   1  12
ATOM      9  C   UNL     1       5.933  -4.089  23.601  0.00  0.00    +0.121 A 
ATOM     10  C   UNL     1       5.544  -2.778  23.863  0.00  0.00    +0.047 A 
ATOM     11  C   UNL     1       6.303  -1.703  23.373  0.00  0.00    +0.027 A 
ATOM     12  C   UNL     1       7.448  -1.915  22.587  0.00  0.00    +0.033 A 
ATOM     13  C   UNL     1       7.779  -3.235  22.275  0.00  0.00    +0.027 A 
ATOM     14  C   UNL     1       7.027  -4.310  22.767  0.00  0.00    +0.047 A 
BRANCH   9  15
ATOM     15  O   UNL     1       5.186  -5.083  24.180  0.00  0.00    -0.489 OA
BRANCH  15  16
ATOM     16  C   UNL     1       5.027  -4.932  25.603  0.00  0.00    +0.261 C 
BRANCH  16  17
ATOM     17  C   UNL     1       6.135  -5.696  26.346  0.00  0.00    +0.166 C 
BRANCH  17  18
ATOM     18  O   UNL     1       5.635  -6.812  27.093  0.00  0.00    -0.387 OA
ATOM     19  H   UNL     1       6.034  -6.768  27.979  0.00  0.00    +0.210 HD
ENDBRANCH  17  18
BRANCH  17  20
ATOM     20  C   UNL     1       6.962  -4.755  27.259  0.00  0.00    +0.118 C 
BRANCH  20  21
ATOM     21  N   UNL     1       8.347  -4.433  26.832  0.00  0.00    -0.306 NA
ATOM     22  C   UNL     1       8.392  -3.050  26.337  0.00  0.00    +0.104 C 
ATOM     23  C   UNL     1       8.822  -5.333  25.777  0.00  0.00    +0.104 C 
ENDBRANCH  20  21
ENDBRANCH  17  20
ENDBRANCH  16  17
ENDBRANCH  15  16
ENDBRANCH   9  15
ENDBRANCH   1  12
BRANCH   5  24
ATOM     24  N   UNL     1      10.742   3.222  22.712  0.00  0.00    -0.295 N 
ATOM     25  H   UNL     1      11.347   3.155  21.900  0.00  0.00    +0.154 HD
BRANCH  24  26
ATOM     26  C   UNL     1      10.866   4.454  23.388  0.00  0.00    +0.104 A 
ATOM     27  C   UNL     1      12.085   5.107  23.606  0.00  0.00    +0.147 A 
ATOM     28  F   UNL     1      13.226   4.626  23.092  0.00  0.00    -0.203 F 
ATOM     29  C   UNL     1      12.172   6.231  24.435  0.00  0.00    +0.040 A 
ATOM     30  C   UNL     1      11.031   6.739  25.055  0.00  0.00    +0.006 A 
ATOM     31  C   UNL     1       9.800   6.135  24.822  0.00  0.00    +0.040 A 
ATOM     32  C   UNL     1       9.731   5.008  24.003  0.00  0.00    +0.147 A 
ATOM     33  F   UNL     1       8.536   4.423  23.814  0.00  0.00    -0.203 F 
ENDBRANCH  24  26
ENDBRANCH   5  24
TORSDOF 9
ENDMDL
MODEL 2
REMARK VINA RESULT:      -7.1      0.817      1.721
REMARK  Name = 
REMARK  11 active torsions:
REMARK  status: ('A' for Active; 'I' for Inactive)
REMARK    1  A    between atoms: C_2  and  O_3
REMARK    2  A    between atoms: C_2  and  C_4
REMARK    3  A    between atoms: C_2  and  C_28
REMARK    4  A    between atoms: C_4  and  O_5
REMARK    5  A    between atoms: O_5  and  C_6
REMARK    6  A    between atoms: C_9  and  N_10
REMARK    7  A    between atoms: C_15  and  N_16
REMARK    8  A    between atoms: N_16  and  C_17
REMARK    9  A    between atoms: C_28  and  N_29
REMARK   10  A    between atoms: N_29  and  C_30
REMARK   11  A    between atoms: N_29  and  C_31
REMARK                            x       y       z     vdW  Elec       q    Type
REMARK                         _______ _______ _______ _____ _____    ______ ____
ROOT
ATOM      1  N   UNL     1       8.124  -1.498  22.217  0.00  0.00    -0.299 N 
ATOM      2  H   UNL     1       8.276  -1.375  21.226  0.00  0.00    +0.154 HD
ATOM      3  C   UNL     1       8.976  -0.689  23.008  0.00  0.00    +0.128 A 
ATOM      4  C   UNL     1       9.283   0.569  22.523  0.00  0.00    +0.087 A 
ATOM      5  C   UNL     1      10.007   1.432  23.326  0.00  0.00    +0.128 A 
ATOM      6  N   UNL     1      10.450   1.058  24.533  0.00  0.00    -0.221 NA
ATOM      7  C   UNL     1      10.132  -0.185  24.913  0.00  0.00    +0.225 A 
ATOM      8  N   UNL     1       9.411  -1.079  24.211  0.00  0.00    -0.221 NA
ENDROOT
BRANCH   1  12
ATOM      9  C   UNL     1       5.882  -4.867  23.476  0.00  0.00    +0.121 A 
ATOM     10  C   UNL     1       5.288  -3.612  23.371  0.00  0.00    +0.047 A 
ATOM     11  C   UNL     1       6.035  -2.511  22.921  0.00  0.00    +0.027 A 
ATOM     12  C   UNL     1       7.380  -2.647  22.540  0.00  0.00    +0.033 A 
ATOM     13  C   UNL     1       7.935  -3.928  22.583  0.00  0.00    +0.027 A 
ATOM     14  C   UNL     1       7.194  -5.028  23.037  0.00  0.00    +0.047 A 
BRANCH   9  15
ATOM     15  O   UNL     1       5.110  -5.875  23.998  0.00  0.00    -0.489 OA
BRANCH  15  16
ATOM     16  C   UNL     1       4.600  -5.590  25.313  0.00  0.00    +0.261 C 
BRANCH  16  17
ATOM     17  C   UNL     1       5.608  -6.039  26.383  0.00  0.00    +0.166 C 
BRANCH  17  18
ATOM     18  O   UNL     1       5.150  -7.164  27.141  0.00  0.00    -0.387 OA
ATOM     19  H   UNL     1       4.198  -7.040  27.296  0.00  0.00    +0.210 HD
ENDBRANCH  17  18
BRANCH  17  20
ATOM     20  C   UNL     1       5.997  -4.870  27.324  0.00  0.00    +0.118 C 
BRANCH  20  21
ATOM     21  N   UNL     1       7.387  -4.354  27.236  0.00  0.00    -0.306 NA
ATOM     22  C   UNL     1       7.381  -3.061  26.539  0.00  0.00    +0.104 C 
ATOM     23  C   UNL     1       8.273  -5.277  26.519  0.00  0.00    +0.104 C 
ENDBRANCH  20  21
ENDBRANCH  17  20
ENDBRANCH  16  17
ENDBRANCH  15  16
ENDBRANCH   9  15
ENDBRANCH   1  12
BRANCH   5  24
ATOM     24  N   UNL     1      10.279   2.716  22.816  0.00  0.00    -0.295 N 
ATOM     25  H   UNL     1      11.002   2.691  22.103  0.00  0.00    +0.154 HD
BRANCH  24  26
ATOM     26  C   UNL     1      10.180   3.971  23.453  0.00  0.00    +0.104 A 
ATOM     27  C   UNL     1       8.968   4.579  23.799  0.00  0.00    +0.147 A 
ATOM     28  F   UNL     1       7.801   3.943  23.618  0.00  0.00    -0.203 F 
ATOM     29  C   UNL     1       8.919   5.898  24.263  0.00  0.00    +0.040 A 
ATOM     30  C   UNL     1      10.093   6.637  24.409  0.00  0.00    +0.006 A 
ATOM     31  C   UNL     1      11.315   6.044  24.112  0.00  0.00    +0.040 A 
ATOM     32  C   UNL     1      11.347   4.732  23.638  0.00  0.00    +0.147 A 
ATOM     33  F   UNL     1      12.536   4.188  23.331  0.00  0.00    -0.203 F 
ENDBRANCH  24  26
ENDBRANCH   5  24
TORSDOF 9
ENDMDL
MODEL 3
REMARK VINA RESULT:      -7.0      4.986      9.892
REMARK  Name = 
REMARK  11 active torsions:
REMARK  status: ('A' for Active; 'I' for Inactive)
REMARK    1  A    between atoms: C_2  and  O_3
REMARK    2  A    between atoms: C_2  and  C_4
REMARK    3  A    between atoms: C_2  and  C_28
REMARK    4  A    between atoms: C_4  and  O_5
REMARK    5  A    between atoms: O_5  and  C_6
REMARK    6  A    between atoms: C_9  and  N_10
REMARK    7  A    between atoms: C_15  and  N_16
REMARK    8  A    between atoms: N_16  and  C_17
REMARK    9  A    between atoms: C_28  and  N_29
REMARK   10  A    between atoms: N_29  and  C_30
REMARK   11  A    between atoms: N_29  and  C_31
REMARK                            x       y       z     vdW  Elec       q    Type
REMARK                         _______ _______ _______ _____ _____    ______ ____
ROOT
ATOM      1  N   UNL     1       8.509  -3.708  24.237  0.00  0.00    -0.299 N 
ATOM      2  H   UNL     1       9.017  -4.470  24.665  0.00  0.00    +0.154 HD
ATOM      3  C   UNL     1       7.461  -4.150  23.395  0.00  0.00    +0.128 A 
ATOM      4  C   UNL     1       6.772  -5.284  23.784  0.00  0.00    +0.087 A 
ATOM      5  C   UNL     1       5.662  -5.671  23.055  0.00  0.00    +0.128 A 
ATOM      6  N   UNL     1       5.274  -5.000  21.964  0.00  0.00    -0.221 NA
ATOM      7  C   UNL     1       6.012  -3.932  21.641  0.00  0.00    +0.225 A 
ATOM      8  N   UNL     1       7.087  -3.468  22.306  0.00  0.00    -0.221 NA
ENDROOT
BRANCH   1  12
ATOM      9  C   UNL     1      10.248   0.154  24.391  0.00  0.00    +0.121 A 
ATOM     10  C   UNL     1       9.389  -0.283  25.395  0.00  0.00    +0.047 A 
ATOM     11  C   UNL     1       8.846  -1.577  25.348  0.00  0.00    +0.027 A 
ATOM     12  C   UNL     1       9.173  -2.469  24.314  0.00  0.00    +0.033 A 
ATOM     13  C   UNL     1      10.093  -2.036  23.357  0.00  0.00    +0.027 A 
ATOM     14  C   UNL     1      10.633  -0.744  23.398  0.00  0.00    +0.047 A 
BRANCH   9  15
ATOM     15  O   UNL     1      10.674   1.457  24.466  0.00  0.00    -0.489 OA
BRANCH  15  16
ATOM     16  C   UNL     1       9.703   2.410  23.997  0.00  0.00    +0.261 C 
BRANCH  16  17
ATOM     17  C   UNL     1       9.268   2.065  22.563  0.00  0.00    +0.166 C 
BRANCH  17  18
ATOM     18  O   UNL     1      10.267   2.385  21.587  0.00  0.00    -0.387 OA
ATOM     19  H   UNL     1       9.811   2.503  20.736  0.00  0.00    +0.210 HD
ENDBRANCH  17  18
BRANCH  17  20
ATOM     20  C   UNL     1       7.918   2.736  22.202  0.00  0.00    +0.118 C 
BRANCH  20  21
ATOM     21  N   UNL     1       6.686   1.922  22.362  0.00  0.00    -0.306 NA
ATOM     22  C   UNL     1       5.861   2.497  23.434  0.00  0.00    +0.104 C 
ATOM     23  C   UNL     1       6.987   0.525  22.691  0.00  0.00    +0.104 C 
ENDBRANCH  20  21
ENDBRANCH  17  20
ENDBRANCH  16  17
ENDBRANCH  15  16
ENDBRANCH   9  15
ENDBRANCH   1  12
BRANCH   5  24
ATOM     24  N   UNL     1       4.966  -6.814  23.493  0.00  0.00    -0.295 N 
ATOM     25  H   UNL     1       5.049  -7.581  22.833  0.00  0.00    +0.154 HD
BRANCH  24  26
ATOM     26  C   UNL     1       3.807  -6.903  24.294  0.00  0.00    +0.104 A 
ATOM     27  C   UNL     1       2.503  -6.825  23.792  0.00  0.00    +0.147 A 
ATOM     28  F   UNL     1       2.274  -6.748  22.473  0.00  0.00    -0.203 F 
ATOM     29  C   UNL     1       1.397  -6.738  24.645  0.00  0.00    +0.040 A 
ATOM     30  C   UNL     1       1.572  -6.743  26.029  0.00  0.00    +0.006 A 
ATOM     31  C   UNL     1       2.855  -6.863  26.554  0.00  0.00    +0.040 A 
ATOM     32  C   UNL     1       3.949  -6.936  25.690  0.00  0.00    +0.147 A 
ATOM     33  F   UNL     1       5.180  -7.022  26.220  0.00  0.00    -0.203 F 
ENDBRANCH  24  26
ENDBRANCH   5  24
TORSDOF 9
ENDMDL
MODEL 4
REMARK VINA RESULT:      -7.0      2.924      4.361
REMARK  Name = 
REMARK  11 active torsions:
REMARK  status: ('A' for Active; 'I' for Inactive)
REMARK    1  A    between atoms: C_2  and  O_3
REMARK    2  A    between atoms: C_2  and  C_4
REMARK    3  A    between atoms: C_2  and  C_28
REMARK    4  A    between atoms: C_4  and  O_5
REMARK    5  A    between atoms: O_5  and  C_6
REMARK    6  A    between atoms: C_9  and  N_10
REMARK    7  A    between atoms: C_15  and  N_16
REMARK    8  A    between atoms: N_16  and  C_17
REMARK    9  A    between atoms: C_28  and  N_29
REMARK   10  A    between atoms: N_29  and  C_30
REMARK   11  A    between atoms: N_29  and  C_31
REMARK                            x       y       z     vdW  Elec       q    Type
REMARK                         _______ _______ _______ _____ _____    ______ ____
ROOT
ATOM      1  N   UNL     1       6.015  -3.682  22.815  0.00  0.00    -0.299 N 
ATOM      2  H   UNL     1       5.955  -3.453  21.832  0.00  0.00    +0.154 HD
ATOM      3  C   UNL     1       7.342  -3.661  23.305  0.00  0.00    +0.128 A 
ATOM      4  C   UNL     1       8.195  -2.706  22.783  0.00  0.00    +0.087 A 
ATOM      5  C   UNL     1       9.460  -2.574  23.328  0.00  0.00    +0.128 A 
ATOM      6  N   UNL     1       9.884  -3.378  24.311  0.00  0.00    -0.221 NA
ATOM      7  C   UNL     1       9.006  -4.293  24.738  0.00  0.00    +0.225 A 
ATOM      8  N   UNL     1       7.751  -4.473  24.287  0.00  0.00    -0.221 NA
ENDROOT
BRANCH   1  12
ATOM      9  C   UNL     1       2.649  -5.512  24.628  0.00  0.00    +0.121 A 
ATOM     10  C   UNL     1       3.017  -4.209  24.955  0.00  0.00    +0.047 A 
ATOM     11  C   UNL     1       4.114  -3.604  24.322  0.00  0.00    +0.027 A 
ATOM     12  C   UNL     1       4.848  -4.276  23.331  0.00  0.00    +0.033 A 
ATOM     13  C   UNL     1       4.418  -5.554  22.967  0.00  0.00    +0.027 A 
ATOM     14  C   UNL     1       3.326  -6.163  23.600  0.00  0.00    +0.047 A 
BRANCH   9  15
ATOM     15  O   UNL     1       1.616  -6.061  25.346  0.00  0.00    -0.489 OA
BRANCH  15  16
ATOM     16  C   UNL     1       1.759  -5.913  26.770  0.00  0.00    +0.261 C 
BRANCH  16  17
ATOM     17  C   UNL     1       2.671  -7.016  27.331  0.00  0.00    +0.166 C 
BRANCH  17  18
ATOM     18  O   UNL     1       1.952  -8.008  28.073  0.00  0.00    -0.387 OA
ATOM     19  H   UNL     1       1.375  -7.538  28.699  0.00  0.00    +0.210 HD
ENDBRANCH  17  18
BRANCH  17  20
ATOM     20  C   UNL     1       3.822  -6.424  28.185  0.00  0.00    +0.118 C 
BRANCH  20  21
ATOM     21  N   UNL     1       5.206  -6.855  27.861  0.00  0.00    -0.306 NA
ATOM     22  C   UNL     1       6.098  -6.490  28.970  0.00  0.00    +0.104 C 
ATOM     23  C   UNL     1       5.701  -6.236  26.627  0.00  0.00    +0.104 C 
ENDBRANCH  20  21
ENDBRANCH  17  20
ENDBRANCH  16  17
ENDBRANCH  15  16
ENDBRANCH   9  15
ENDBRANCH   1  12
BRANCH   5  24
ATOM     24  N   UNL     1      10.294  -1.574  22.794  0.00  0.00    -0.295 N 
ATOM     25  H   UNL     1      11.261  -1.877  22.745  0.00  0.00    +0.154 HD
BRANCH  24  26
ATOM     26  C   UNL     1      10.162  -0.170  22.861  0.00  0.00    +0.104 A 
ATOM     27  C   UNL     1      10.464   0.590  23.997  0.00  0.00    +0.147 A 
ATOM     28  F   UNL     1      10.995   0.018  25.088  0.00  0.00    -0.203 F 
ATOM     29  C   UNL     1      10.147   1.950  24.070  0.00  0.00    +0.040 A 
ATOM     30  C   UNL     1       9.531   2.589  22.994  0.00  0.00    +0.006 A 
ATOM     31  C   UNL     1       9.258   1.867  21.837  0.00  0.00    +0.040 A 
ATOM     32  C   UNL     1       9.569   0.508  21.784  0.00  0.00    +0.147 A 
ATOM     33  F   UNL     1       9.271  -0.176  20.667  0.00  0.00    -0.203 F 
ENDBRANCH  24  26
ENDBRANCH   5  24
TORSDOF 9
ENDMDL
MODEL 5
REMARK VINA RESULT:      -6.9      4.759     10.409
REMARK  Name = 
REMARK  11 active torsions:
REMARK  status: ('A' for Active; 'I' for Inactive)
REMARK    1  A    between atoms: C_2  and  O_3
REMARK    2  A    between atoms: C_2  and  C_4
REMARK    3  A    between atoms: C_2  and  C_28
REMARK    4  A    between atoms: C_4  and  O_5
REMARK    5  A    between atoms: O_5  and  C_6
REMARK    6  A    between atoms: C_9  and  N_10
REMARK    7  A    between atoms: C_15  and  N_16
REMARK    8  A    between atoms: N_16  and  C_17
REMARK    9  A    between atoms: C_28  and  N_29
REMARK   10  A    between atoms: N_29  and  C_30
REMARK   11  A    between atoms: N_29  and  C_31
REMARK                            x       y       z     vdW  Elec       q    Type
REMARK                         _______ _______ _______ _____ _____    ______ ____
ROOT
ATOM      1  N   UNL     1       8.516  -3.648  24.088  0.00  0.00    -0.299 N 
ATOM      2  H   UNL     1       9.019  -4.377  24.574  0.00  0.00    +0.154 HD
ATOM      3  C   UNL     1       7.478  -4.149  23.267  0.00  0.00    +0.128 A 
ATOM      4  C   UNL     1       6.786  -5.255  23.727  0.00  0.00    +0.087 A 
ATOM      5  C   UNL     1       5.685  -5.694  23.013  0.00  0.00    +0.128 A 
ATOM      6  N   UNL     1       5.309  -5.101  21.873  0.00  0.00    -0.221 NA
ATOM      7  C   UNL     1       6.050  -4.057  21.485  0.00  0.00    +0.225 A 
ATOM      8  N   UNL     1       7.116  -3.546  22.129  0.00  0.00    -0.221 NA
ENDROOT
BRANCH   1  12
ATOM      9  C   UNL     1      10.240   0.224  24.040  0.00  0.00    +0.121 A 
ATOM     10  C   UNL     1       9.523  -0.225  25.146  0.00  0.00    +0.047 A 
ATOM     11  C   UNL     1       8.986  -1.522  25.162  0.00  0.00    +0.027 A 
ATOM     12  C   UNL     1       9.178  -2.405  24.086  0.00  0.00    +0.033 A 
ATOM     13  C   UNL     1       9.961  -1.960  23.019  0.00  0.00    +0.027 A 
ATOM     14  C   UNL     1      10.494  -0.664  22.999  0.00  0.00    +0.047 A 
BRANCH   9  15
ATOM     15  O   UNL     1      10.666   1.529  24.068  0.00  0.00    -0.489 OA
BRANCH  15  16
ATOM     16  C   UNL     1       9.783   2.438  23.387  0.00  0.00    +0.261 C 
BRANCH  16  17
ATOM     17  C   UNL     1      10.156   3.892  23.720  0.00  0.00    +0.166 C 
BRANCH  17  18
ATOM     18  O   UNL     1       9.340   4.847  23.032  0.00  0.00    -0.387 OA
ATOM     19  H   UNL     1       9.374   4.627  22.085  0.00  0.00    +0.210 HD
ENDBRANCH  17  18
BRANCH  17  20
ATOM     20  C   UNL     1      11.658   4.169  23.459  0.00  0.00    +0.118 C 
BRANCH  20  21
ATOM     21  N   UNL     1      12.055   5.570  23.167  0.00  0.00    -0.306 NA
ATOM     22  C   UNL     1      13.227   5.566  22.280  0.00  0.00    +0.104 C 
ATOM     23  C   UNL     1      12.384   6.315  24.387  0.00  0.00    +0.104 C 
ENDBRANCH  20  21
ENDBRANCH  17  20
ENDBRANCH  16  17
ENDBRANCH  15  16
ENDBRANCH   9  15
ENDBRANCH   1  12
BRANCH   5  24
ATOM     24  N   UNL     1       4.985  -6.805  23.522  0.00  0.00    -0.295 N 
ATOM     25  H   UNL     1       4.921  -7.554  22.840  0.00  0.00    +0.154 HD
BRANCH  24  26
ATOM     26  C   UNL     1       3.950  -6.846  24.480  0.00  0.00    +0.104 A 
ATOM     27  C   UNL     1       4.165  -6.904  25.862  0.00  0.00    +0.147 A 
ATOM     28  F   UNL     1       5.404  -6.832  26.371  0.00  0.00    -0.203 F 
ATOM     29  C   UNL     1       3.112  -7.125  26.756  0.00  0.00    +0.040 A 
ATOM     30  C   UNL     1       1.808  -7.277  26.285  0.00  0.00    +0.006 A 
ATOM     31  C   UNL     1       1.560  -7.182  24.919  0.00  0.00    +0.040 A 
ATOM     32  C   UNL     1       2.623  -6.974  24.039  0.00  0.00    +0.147 A 
ATOM     33  F   UNL     1       2.364  -6.914  22.722  0.00  0.00    -0.203 F 
ENDBRANCH  24  26
ENDBRANCH   5  24
TORSDOF 9
ENDMDL
MODEL 6
REMARK VINA RESULT:      -6.8      4.546      9.242
REMARK  Name = 
REMARK  11 active torsions:
REMARK  status: ('A' for Active; 'I' for Inactive)
REMARK    1  A    between atoms: C_2  and  O_3
REMARK    2  A    between atoms: C_2  and  C_4
REMARK    3  A    between atoms: C_2  and  C_28
REMARK    4  A    between atoms: C_4  and  O_5
REMARK    5  A    between atoms: O_5  and  C_6
REMARK    6  A    between atoms: C_9  and  N_10
REMARK    7  A    between atoms: C_15  and  N_16
REMARK    8  A    between atoms: N_16  and  C_17
REMARK    9  A    between atoms: C_28  and  N_29
REMARK   10  A    between atoms: N_29  and  C_30
REMARK   11  A    between atoms: N_29  and  C_31
REMARK                            x       y       z     vdW  Elec       q    Type
REMARK                         _______ _______ _______ _____ _____    ______ ____
ROOT
ATOM      1  N   UNL     1       9.703  -0.493  24.598  0.00  0.00    -0.299 N 
ATOM      2  H   UNL     1      10.442  -0.868  25.176  0.00  0.00    +0.154 HD
ATOM      3  C   UNL     1       9.039  -1.487  23.840  0.00  0.00    +0.128 A 
ATOM      4  C   UNL     1       8.870  -2.726  24.431  0.00  0.00    +0.087 A 
ATOM      5  C   UNL     1       8.117  -3.680  23.771  0.00  0.00    +0.128 A 
ATOM      6  N   UNL     1       7.592  -3.443  22.563  0.00  0.00    -0.221 NA
ATOM      7  C   UNL     1       7.827  -2.229  22.051  0.00  0.00    +0.225 A 
ATOM      8  N   UNL     1       8.522  -1.234  22.633  0.00  0.00    -0.221 NA
ENDROOT
BRANCH   1  12
ATOM      9  C   UNL     1       9.617   3.697  23.963  0.00  0.00    +0.121 A 
ATOM     10  C   UNL     1       8.714   3.087  24.829  0.00  0.00    +0.047 A 
ATOM     11  C   UNL     1       8.775   1.703  25.056  0.00  0.00    +0.027 A 
ATOM     12  C   UNL     1       9.756   0.905  24.444  0.00  0.00    +0.033 A 
ATOM     13  C   UNL     1      10.697   1.548  23.636  0.00  0.00    +0.027 A 
ATOM     14  C   UNL     1      10.635   2.929  23.405  0.00  0.00    +0.047 A 
BRANCH   9  15
ATOM     15  O   UNL     1       9.443   5.039  23.733  0.00  0.00    -0.489 OA
BRANCH  15  16
ATOM     16  C   UNL     1       8.064   5.448  23.713  0.00  0.00    +0.261 C 
BRANCH  16  17
ATOM     17  C   UNL     1       7.412   5.059  22.375  0.00  0.00    +0.166 C 
BRANCH  17  18
ATOM     18  O   UNL     1       7.495   6.098  21.393  0.00  0.00    -0.387 OA
ATOM     19  H   UNL     1       8.328   6.576  21.549  0.00  0.00    +0.210 HD
ENDBRANCH  17  18
BRANCH  17  20
ATOM     20  C   UNL     1       5.942   4.607  22.568  0.00  0.00    +0.118 C 
BRANCH  20  21
ATOM     21  N   UNL     1       5.645   3.160  22.413  0.00  0.00    -0.306 NA
ATOM     22  C   UNL     1       5.223   2.610  23.709  0.00  0.00    +0.104 C 
ATOM     23  C   UNL     1       6.809   2.407  21.933  0.00  0.00    +0.104 C 
ENDBRANCH  20  21
ENDBRANCH  17  20
ENDBRANCH  16  17
ENDBRANCH  15  16
ENDBRANCH   9  15
ENDBRANCH   1  12
BRANCH   5  24
ATOM     24  N   UNL     1       7.940  -4.921  24.411  0.00  0.00    -0.295 N 
ATOM     25  H   UNL     1       8.102  -5.698  23.778  0.00  0.00    +0.154 HD
BRANCH  24  26
ATOM     26  C   UNL     1       7.091  -5.260  25.486  0.00  0.00    +0.104 A 
ATOM     27  C   UNL     1       7.483  -5.238  26.830  0.00  0.00    +0.147 A 
ATOM     28  F   UNL     1       8.698  -4.797  27.186  0.00  0.00    -0.203 F 
ATOM     29  C   UNL     1       6.661  -5.754  27.838  0.00  0.00    +0.040 A 
ATOM     30  C   UNL     1       5.413  -6.291  27.524  0.00  0.00    +0.006 A 
ATOM     31  C   UNL     1       4.980  -6.286  26.202  0.00  0.00    +0.040 A 
ATOM     32  C   UNL     1       5.816  -5.780  25.206  0.00  0.00    +0.147 A 
ATOM     33  F   UNL     1       5.390  -5.812  23.933  0.00  0.00    -0.203 F 
ENDBRANCH  24  26
ENDBRANCH   5  24
TORSDOF 9
ENDMDL
MODEL 7
REMARK VINA RESULT:      -6.8      1.985      3.192
REMARK  Name = 
REMARK  11 active torsions:
REMARK  status: ('A' for Active; 'I' for Inactive)
REMARK    1  A    between atoms: C_2  and  O_3
REMARK    2  A    between atoms: C_2  and  C_4
REMARK    3  A    between atoms: C_2  and  C_28
REMARK    4  A    between atoms: C_4  and  O_5
REMARK    5  A    between atoms: O_5  and  C_6
REMARK    6  A    between atoms: C_9  and  N_10
REMARK    7  A    between atoms: C_15  and  N_16
REMARK    8  A    between atoms: N_16  and  C_17
REMARK    9  A    between atoms: C_28  and  N_29
REMARK   10  A    between atoms: N_29  and  C_30
REMARK   11  A    between atoms: N_29  and  C_31
REMARK                            x       y       z     vdW  Elec       q    Type
REMARK                         _______ _______ _______ _____ _____    ______ ____
ROOT
ATOM      1  N   UNL     1       9.261   1.028  25.191  0.00  0.00    -0.299 N 
ATOM      2  H   UNL     1       9.623   1.500  26.008  0.00  0.00    +0.154 HD
ATOM      3  C   UNL     1       8.613   1.907  24.291  0.00  0.00    +0.128 A 
ATOM      4  C   UNL     1       9.140   3.178  24.156  0.00  0.00    +0.087 A 
ATOM      5  C   UNL     1       8.611   4.019  23.193  0.00  0.00    +0.128 A 
ATOM      6  N   UNL     1       7.578   3.644  22.429  0.00  0.00    -0.221 NA
ATOM      7  C   UNL     1       7.110   2.410  22.644  0.00  0.00    +0.225 A 
ATOM      8  N   UNL     1       7.579   1.517  23.535  0.00  0.00    -0.221 NA
ENDROOT
BRANCH   1  12
ATOM      9  C   UNL     1       8.837  -3.184  25.397  0.00  0.00    +0.121 A 
ATOM     10  C   UNL     1       9.441  -2.580  24.298  0.00  0.00    +0.047 A 
ATOM     11  C   UNL     1       9.605  -1.186  24.258  0.00  0.00    +0.027 A 
ATOM     12  C   UNL     1       9.194  -0.371  25.326  0.00  0.00    +0.033 A 
ATOM     13  C   UNL     1       8.657  -1.004  26.449  0.00  0.00    +0.027 A 
ATOM     14  C   UNL     1       8.488  -2.394  26.490  0.00  0.00    +0.047 A 
BRANCH   9  15
ATOM     15  O   UNL     1       8.641  -4.541  25.327  0.00  0.00    -0.489 OA
BRANCH  15  16
ATOM     16  C   UNL     1       7.736  -5.046  26.325  0.00  0.00    +0.261 C 
BRANCH  16  17
ATOM     17  C   UNL     1       6.359  -5.325  25.702  0.00  0.00    +0.166 C 
BRANCH  17  18
ATOM     18  O   UNL     1       5.744  -6.511  26.220  0.00  0.00    -0.387 OA
ATOM     19  H   UNL     1       5.351  -6.281  27.079  0.00  0.00    +0.210 HD
ENDBRANCH  17  18
BRANCH  17  20
ATOM     20  C   UNL     1       6.434  -5.380  24.155  0.00  0.00    +0.118 C 
BRANCH  20  21
ATOM     21  N   UNL     1       5.893  -4.220  23.402  0.00  0.00    -0.306 NA
ATOM     22  C   UNL     1       4.443  -4.386  23.233  0.00  0.00    +0.104 C 
ATOM     23  C   UNL     1       6.514  -4.084  22.080  0.00  0.00    +0.104 C 
ENDBRANCH  20  21
ENDBRANCH  17  20
ENDBRANCH  16  17
ENDBRANCH  15  16
ENDBRANCH   9  15
ENDBRANCH   1  12
BRANCH   5  24
ATOM     24  N   UNL     1       9.189   5.297  23.062  0.00  0.00    -0.295 N 
ATOM     25  H   UNL     1       9.271   5.574  22.089  0.00  0.00    +0.154 HD
BRANCH  24  26
ATOM     26  C   UNL     1      10.122   5.946  23.898  0.00  0.00    +0.104 A 
ATOM     27  C   UNL     1      11.509   5.885  23.716  0.00  0.00    +0.147 A 
ATOM     28  F   UNL     1      12.039   5.260  22.654  0.00  0.00    -0.203 F 
ATOM     29  C   UNL     1      12.393   6.395  24.673  0.00  0.00    +0.040 A 
ATOM     30  C   UNL     1      11.906   6.996  25.833  0.00  0.00    +0.006 A 
ATOM     31  C   UNL     1      10.532   7.108  26.019  0.00  0.00    +0.040 A 
ATOM     32  C   UNL     1       9.663   6.583  25.062  0.00  0.00    +0.147 A 
ATOM     33  F   UNL     1       8.340   6.677  25.276  0.00  0.00    -0.203 F 
ENDBRANCH  24  26
ENDBRANCH   5  24
TORSDOF 9
ENDMDL
MODEL 8
REMARK VINA RESULT:      -6.7      1.809      2.650
REMARK  Name = 
REMARK  11 active torsions:
REMARK  status: ('A' for Active; 'I' for Inactive)
REMARK    1  A    between atoms: C_2  and  O_3
REMARK    2  A    between atoms: C_2  and  C_4
REMARK    3  A    between atoms: C_2  and  C_28
REMARK    4  A    between atoms: C_4  and  O_5
REMARK    5  A    between atoms: O_5  and  C_6
REMARK    6  A    between atoms: C_9  and  N_10
REMARK    7  A    between atoms: C_15  and  N_16
REMARK    8  A    between atoms: N_16  and  C_17
REMARK    9  A    between atoms: C_28  and  N_29
REMARK   10  A    between atoms: N_29  and  C_30
REMARK   11  A    between atoms: N_29  and  C_31
REMARK                            x       y       z     vdW  Elec       q    Type
REMARK                         _______ _______ _______ _____ _____    ______ ____
ROOT
ATOM      1  N   UNL     1       9.418  -0.565  25.087  0.00  0.00    -0.299 N 
ATOM      2  H   UNL     1       9.835  -0.150  25.909  0.00  0.00    +0.154 HD
ATOM      3  C   UNL     1       9.166   0.378  24.062  0.00  0.00    +0.128 A 
ATOM      4  C   UNL     1      10.079   1.405  23.908  0.00  0.00    +0.087 A 
ATOM      5  C   UNL     1       9.933   2.270  22.838  0.00  0.00    +0.128 A 
ATOM      6  N   UNL     1       8.908   2.158  21.984  0.00  0.00    -0.221 NA
ATOM      7  C   UNL     1       8.056   1.155  22.222  0.00  0.00    +0.225 A 
ATOM      8  N   UNL     1       8.135   0.253  23.218  0.00  0.00    -0.221 NA
ENDROOT
BRANCH   1  12
ATOM      9  C   UNL     1       8.008  -4.457  25.999  0.00  0.00    +0.121 A 
ATOM     10  C   UNL     1       7.503  -3.341  26.660  0.00  0.00    +0.047 A 
ATOM     11  C   UNL     1       7.955  -2.055  26.325  0.00  0.00    +0.027 A 
ATOM     12  C   UNL     1       8.899  -1.855  25.304  0.00  0.00    +0.033 A 
ATOM     13  C   UNL     1       9.338  -2.981  24.605  0.00  0.00    +0.027 A 
ATOM     14  C   UNL     1       8.892  -4.267  24.940  0.00  0.00    +0.047 A 
BRANCH   9  15
ATOM     15  O   UNL     1       7.575  -5.684  26.437  0.00  0.00    -0.489 OA
BRANCH  15  16
ATOM     16  C   UNL     1       6.847  -5.630  27.677  0.00  0.00    +0.261 C 
BRANCH  16  17
ATOM     17  C   UNL     1       5.484  -6.324  27.524  0.00  0.00    +0.166 C 
BRANCH  17  18
ATOM     18  O   UNL     1       5.396  -7.546  28.268  0.00  0.00    -0.387 OA
ATOM     19  H   UNL     1       6.291  -7.758  28.582  0.00  0.00    +0.210 HD
ENDBRANCH  17  18
BRANCH  17  20
ATOM     20  C   UNL     1       5.132  -6.566  26.034  0.00  0.00    +0.118 C 
BRANCH  20  21
ATOM     21  N   UNL     1       4.327  -5.526  25.344  0.00  0.00    -0.306 NA
ATOM     22  C   UNL     1       2.948  -6.009  25.183  0.00  0.00    +0.104 C 
ATOM     23  C   UNL     1       4.872  -5.193  24.024  0.00  0.00    +0.104 C 
ENDBRANCH  20  21
ENDBRANCH  17  20
ENDBRANCH  16  17
ENDBRANCH  15  16
ENDBRANCH   9  15
ENDBRANCH   1  12
BRANCH   5  24
ATOM     24  N   UNL     1      10.895   3.288  22.693  0.00  0.00    -0.295 N 
ATOM     25  H   UNL     1      11.793   2.917  22.398  0.00  0.00    +0.154 HD
BRANCH  24  26
ATOM     26  C   UNL     1      11.009   4.515  23.380  0.00  0.00    +0.104 A 
ATOM     27  C   UNL     1      12.227   5.141  23.666  0.00  0.00    +0.147 A 
ATOM     28  F   UNL     1      13.385   4.639  23.212  0.00  0.00    -0.203 F 
ATOM     29  C   UNL     1      12.294   6.261  24.503  0.00  0.00    +0.040 A 
ATOM     30  C   UNL     1      11.132   6.791  25.064  0.00  0.00    +0.006 A 
ATOM     31  C   UNL     1       9.903   6.214  24.762  0.00  0.00    +0.040 A 
ATOM     32  C   UNL     1       9.854   5.090  23.936  0.00  0.00    +0.147 A 
ATOM     33  F   UNL     1       8.659   4.532  23.681  0.00  0.00    -0.203 F 
ENDBRANCH  24  26
ENDBRANCH   5  24
TORSDOF 9
ENDMDL
MODEL 9
REMARK VINA RESULT:      -6.6      2.407      3.203
REMARK  Name = 
REMARK  11 active torsions:
REMARK  status: ('A' for Active; 'I' for Inactive)
REMARK    1  A    between atoms: C_2  and  O_3
REMARK    2  A    between atoms: C_2  and  C_4
REMARK    3  A    between atoms: C_2  and  C_28
REMARK    4  A    between atoms: C_4  and  O_5
REMARK    5  A    between atoms: O_5  and  C_6
REMARK    6  A    between atoms: C_9  and  N_10
REMARK    7  A    between atoms: C_15  and  N_16
REMARK    8  A    between atoms: N_16  and  C_17
REMARK    9  A    between atoms: C_28  and  N_29
REMARK   10  A    between atoms: N_29  and  C_30
REMARK   11  A    between atoms: N_29  and  C_31
REMARK                            x       y       z     vdW  Elec       q    Type
REMARK                         _______ _______ _______ _____ _____    ______ ____
ROOT
ATOM      1  N   UNL     1       8.597  -1.083  22.324  0.00  0.00    -0.299 N 
ATOM      2  H   UNL     1       8.668  -0.973  21.322  0.00  0.00    +0.154 HD
ATOM      3  C   UNL     1       9.477  -0.231  23.033  0.00  0.00    +0.128 A 
ATOM      4  C   UNL     1       9.700   1.029  22.507  0.00  0.00    +0.087 A 
ATOM      5  C   UNL     1      10.451   1.931  23.238  0.00  0.00    +0.128 A 
ATOM      6  N   UNL     1      10.998   1.595  24.413  0.00  0.00    -0.221 NA
ATOM      7  C   UNL     1      10.757   0.349  24.835  0.00  0.00    +0.225 A 
ATOM      8  N   UNL     1      10.017  -0.583  24.205  0.00  0.00    -0.221 NA
ENDROOT
BRANCH   1  12
ATOM      9  C   UNL     1       6.439  -4.444  23.742  0.00  0.00    +0.121 A 
ATOM     10  C   UNL     1       5.798  -3.429  23.037  0.00  0.00    +0.047 A 
ATOM     11  C   UNL     1       6.531  -2.337  22.545  0.00  0.00    +0.027 A 
ATOM     12  C   UNL     1       7.922  -2.252  22.721  0.00  0.00    +0.033 A 
ATOM     13  C   UNL     1       8.555  -3.316  23.367  0.00  0.00    +0.027 A 
ATOM     14  C   UNL     1       7.825  -4.405  23.864  0.00  0.00    +0.047 A 
BRANCH   9  15
ATOM     15  O   UNL     1       5.643  -5.436  24.259  0.00  0.00    -0.489 OA
BRANCH  15  16
ATOM     16  C   UNL     1       4.236  -5.139  24.195  0.00  0.00    +0.261 C 
BRANCH  16  17
ATOM     17  C   UNL     1       3.422  -6.439  24.089  0.00  0.00    +0.166 C 
BRANCH  17  18
ATOM     18  O   UNL     1       4.246  -7.600  23.930  0.00  0.00    -0.387 OA
ATOM     19  H   UNL     1       5.138  -7.366  24.240  0.00  0.00    +0.210 HD
ENDBRANCH  17  18
BRANCH  17  20
ATOM     20  C   UNL     1       2.367  -6.359  22.956  0.00  0.00    +0.118 C 
BRANCH  20  21
ATOM     21  N   UNL     1       1.078  -7.065  23.171  0.00  0.00    -0.306 NA
ATOM     22  C   UNL     1       0.798  -7.135  24.611  0.00  0.00    +0.104 C 
ATOM     23  C   UNL     1       1.097  -8.425  22.622  0.00  0.00    +0.104 C 
ENDBRANCH  20  21
ENDBRANCH  17  20
ENDBRANCH  16  17
ENDBRANCH  15  16
ENDBRANCH   9  15
ENDBRANCH   1  12
BRANCH   5  24
ATOM     24  N   UNL     1      10.637   3.214  22.688  0.00  0.00    -0.295 N 
ATOM     25  H   UNL     1      11.108   3.173  21.790  0.00  0.00    +0.154 HD
BRANCH  24  26
ATOM     26  C   UNL     1      10.813   4.451  23.344  0.00  0.00    +0.104 A 
ATOM     27  C   UNL     1      12.059   5.051  23.561  0.00  0.00    +0.147 A 
ATOM     28  F   UNL     1      13.181   4.509  23.064  0.00  0.00    -0.203 F 
ATOM     29  C   UNL     1      12.192   6.184  24.371  0.00  0.00    +0.040 A 
ATOM     30  C   UNL     1      11.071   6.755  24.973  0.00  0.00    +0.006 A 
ATOM     31  C   UNL     1       9.815   6.204  24.740  0.00  0.00    +0.040 A 
ATOM     32  C   UNL     1       9.700   5.066  23.940  0.00  0.00    +0.147 A 
ATOM     33  F   UNL     1       8.481   4.534  23.752  0.00  0.00    -0.203 F 
ENDBRANCH  24  26
ENDBRANCH   5  24
TORSDOF 9
ENDMDL
