MODEL 1
REMARK VINA RESULT:      -7.9      0.000      0.000
REMARK  Name = 
REMARK  6 active torsions:
REMARK  status: ('A' for Active; 'I' for Inactive)
REMARK    1  A    between atoms: C_1  and  N_2
REMARK    2  A    between atoms: N_5  and  N_8
REMARK    3  A    between atoms: N_11  and  C_12
REMARK    4  A    between atoms: C_21  and  C_25
REMARK    5  A    between atoms: C_26  and  C_27
REMARK    6  A    between atoms: C_29  and  C_30
REMARK                            x       y       z     vdW  Elec       q    Type
REMARK                         _______ _______ _______ _____ _____    ______ ____
ROOT
ATOM      1  C   UNL     1       7.568   0.957  22.530  0.00  0.00    +0.046 A 
ATOM      2  C   UNL     1       7.936  -0.201  23.184  0.00  0.00    +0.053 A 
ATOM      3  C   UNL     1       7.061  -1.177  23.901  0.00  0.00    +0.200 C 
ATOM      4  C   UNL     1       7.935  -2.286  24.182  0.00  0.00    +0.076 A 
ATOM      5  C   UNL     1       9.234  -2.003  23.738  0.00  0.00    +0.105 A 
ATOM      6  N   UNL     1      10.079  -3.005  23.927  0.00  0.00    -0.173 NA
ATOM      7  N   UNL     1       9.279  -3.949  24.502  0.00  0.00    -0.275 N 
ATOM      8  H   UNL     1       9.686  -4.855  24.705  0.00  0.00    +0.189 HD
ATOM      9  C   UNL     1       7.960  -3.561  24.672  0.00  0.00    +0.085 A 
ATOM     10  O   UNL     1       5.883  -1.019  24.168  0.00  0.00    -0.286 OA
ATOM     11  C   UNL     1       9.256  -0.714  23.115  0.00  0.00    +0.015 A 
ATOM     12  C   UNL     1      10.256  -0.042  22.451  0.00  0.00    +0.011 A 
ATOM     13  C   UNL     1       9.914   1.175  21.850  0.00  0.00    +0.002 A 
ATOM     14  C   UNL     1       8.587   1.663  21.882  0.00  0.00    +0.024 A 
ENDROOT
BRANCH   9  15
ATOM     15  C   UNL     1       6.912  -4.398  25.167  0.00  0.00    +0.060 A 
ATOM     16  S   UNL     1       7.012  -5.016  26.774  0.00  0.00    -0.071 S 
ATOM     17  C   UNL     1       5.565  -5.884  26.542  0.00  0.00    +0.076 A 
ATOM     18  C   UNL     1       5.071  -6.785  27.617  0.00  0.00    +0.073 C 
ATOM     19  N   UNL     1       4.969  -5.690  25.381  0.00  0.00    -0.249 NA
ATOM     20  C   UNL     1       5.730  -4.842  24.584  0.00  0.00    +0.055 A 
ATOM     21  C   UNL     1       5.198  -4.579  23.218  0.00  0.00    +0.067 C 
ENDBRANCH   9  15
BRANCH   1  25
ATOM     22  N   UNL     1       4.398   2.648  23.003  0.00  0.00    -0.232 N 
ATOM     23  H   UNL     1       3.832   1.886  22.648  0.00  0.00    +0.171 HD
ATOM     24  C   UNL     1       5.748   2.408  23.224  0.00  0.00    +0.318 C 
ATOM     25  N   UNL     1       6.209   1.344  22.455  0.00  0.00    -0.268 N 
ATOM     26  H   UNL     1       5.801   1.329  21.521  0.00  0.00    +0.156 HD
ATOM     27  O   UNL     1       6.454   3.068  23.982  0.00  0.00    -0.251 OA
BRANCH  22  32
ATOM     28  C   UNL     1       0.603   5.614  22.911  0.00  0.00    +0.105 C 
ATOM     29  N   UNL     1       1.245   4.498  22.216  0.00  0.00    -0.303 NA
ATOM     30  C   UNL     1       1.345   3.311  23.090  0.00  0.00    +0.101 C 
ATOM     31  C   UNL     1       2.436   3.396  24.179  0.00  0.00    +0.121 C 
ATOM     32  N   UNL     1       3.771   3.742  23.653  0.00  0.00    -0.223 NA
ATOM     33  C   UNL     1       3.694   4.936  22.796  0.00  0.00    +0.121 C 
ATOM     34  C   UNL     1       2.586   4.869  21.721  0.00  0.00    +0.101 C 
ENDBRANCH  22  32
ENDBRANCH   1  25
TORSDOF 3
ENDMDL
MODEL 2
REMARK VINA RESULT:      -7.5      4.326      6.282
REMARK  Name = 
REMARK  6 active torsions:
REMARK  status: ('A' for Active; 'I' for Inactive)
REMARK    1  A    between atoms: C_1  and  N_2
REMARK    2  A    between atoms: N_5  and  N_8
REMARK    3  A    between atoms: N_11  and  C_12
REMARK    4  A    between atoms: C_21  and  C_25
REMARK    5  A    between atoms: C_26  and  C_27
REMARK    6  A    between atoms: C_29  and  C_30
REMARK                            x       y       z     vdW  Elec       q    Type
REMARK                         _______ _______ _______ _____ _____    ______ ____
ROOT
ATOM      1  C   UNL     1       6.647  -3.815  22.735  0.00  0.00    +0.046 A 
ATOM      2  C   UNL     1       6.108  -4.663  23.682  0.00  0.00    +0.053 A 
ATOM      3  C   UNL     1       5.810  -4.377  25.117  0.00  0.00    +0.200 C 
ATOM      4  C   UNL     1       5.060  -5.526  25.551  0.00  0.00    +0.076 A 
ATOM      5  C   UNL     1       4.954  -6.458  24.510  0.00  0.00    +0.105 A 
ATOM      6  N   UNL     1       4.234  -7.522  24.833  0.00  0.00    -0.173 NA
ATOM      7  N   UNL     1       3.872  -7.241  26.118  0.00  0.00    -0.275 N 
ATOM      8  H   UNL     1       3.258  -7.895  26.590  0.00  0.00    +0.189 HD
ATOM      9  C   UNL     1       4.345  -6.032  26.600  0.00  0.00    +0.085 A 
ATOM     10  O   UNL     1       6.152  -3.384  25.734  0.00  0.00    -0.286 OA
ATOM     11  C   UNL     1       5.597  -5.941  23.339  0.00  0.00    +0.015 A 
ATOM     12  C   UNL     1       5.681  -6.431  22.057  0.00  0.00    +0.011 A 
ATOM     13  C   UNL     1       6.297  -5.612  21.103  0.00  0.00    +0.002 A 
ATOM     14  C   UNL     1       6.766  -4.319  21.435  0.00  0.00    +0.024 A 
ENDROOT
BRANCH   9  15
ATOM     15  C   UNL     1       4.031  -5.475  27.879  0.00  0.00    +0.060 A 
ATOM     16  S   UNL     1       2.618  -4.502  28.053  0.00  0.00    -0.071 S 
ATOM     17  C   UNL     1       3.007  -4.209  29.685  0.00  0.00    +0.076 A 
ATOM     18  C   UNL     1       2.160  -3.285  30.485  0.00  0.00    +0.073 C 
ATOM     19  N   UNL     1       4.072  -4.843  30.135  0.00  0.00    -0.249 NA
ATOM     20  C   UNL     1       4.669  -5.571  29.111  0.00  0.00    +0.055 A 
ATOM     21  C   UNL     1       5.919  -6.297  29.469  0.00  0.00    +0.067 C 
ENDBRANCH   9  15
BRANCH   1  25
ATOM     22  N   UNL     1       8.422  -0.760  23.538  0.00  0.00    -0.232 N 
ATOM     23  H   UNL     1       7.621  -0.292  23.944  0.00  0.00    +0.171 HD
ATOM     24  C   UNL     1       8.303  -2.112  23.239  0.00  0.00    +0.318 C 
ATOM     25  N   UNL     1       6.972  -2.478  23.064  0.00  0.00    -0.268 N 
ATOM     26  H   UNL     1       6.429  -1.764  22.580  0.00  0.00    +0.156 HD
ATOM     27  O   UNL     1       9.252  -2.881  23.117  0.00  0.00    -0.251 OA
BRANCH  22  32
ATOM     28  C   UNL     1      10.936   3.348  23.444  0.00  0.00    +0.105 C 
ATOM     29  N   UNL     1       9.599   2.779  23.271  0.00  0.00    -0.303 NA
ATOM     30  C   UNL     1       9.133   2.124  24.510  0.00  0.00    +0.101 C 
ATOM     31  C   UNL     1       9.789   0.759  24.810  0.00  0.00    +0.121 C 
ATOM     32  N   UNL     1       9.715  -0.193  23.685  0.00  0.00    -0.223 NA
ATOM     33  C   UNL     1      10.195   0.437  22.445  0.00  0.00    +0.121 C 
ATOM     34  C   UNL     1       9.563   1.816  22.152  0.00  0.00    +0.101 C 
ENDBRANCH  22  32
ENDBRANCH   1  25
TORSDOF 3
ENDMDL
MODEL 3
REMARK VINA RESULT:      -7.3      1.930      2.142
REMARK  Name = 
REMARK  6 active torsions:
REMARK  status: ('A' for Active; 'I' for Inactive)
REMARK    1  A    between atoms: C_1  and  N_2
REMARK    2  A    between atoms: N_5  and  N_8
REMARK    3  A    between atoms: N_11  and  C_12
REMARK    4  A    between atoms: C_21  and  C_25
REMARK    5  A    between atoms: C_26  and  C_27
REMARK    6  A    between atoms: C_29  and  C_30
REMARK                            x       y       z     vdW  Elec       q    Type
REMARK                         _______ _______ _______ _____ _____    ______ ____
ROOT
ATOM      1  C   UNL     1       8.551   1.421  23.654  0.00  0.00    +0.046 A 
ATOM      2  C   UNL     1       8.467   0.063  23.887  0.00  0.00    +0.053 A 
ATOM      3  C   UNL     1       7.289  -0.837  23.699  0.00  0.00    +0.200 C 
ATOM      4  C   UNL     1       7.831  -2.158  23.872  0.00  0.00    +0.076 A 
ATOM      5  C   UNL     1       9.193  -2.086  24.192  0.00  0.00    +0.105 A 
ATOM      6  N   UNL     1       9.764  -3.274  24.320  0.00  0.00    -0.173 NA
ATOM      7  N   UNL     1       8.723  -4.119  24.062  0.00  0.00    -0.275 N 
ATOM      8  H   UNL     1       8.914  -5.114  24.047  0.00  0.00    +0.189 HD
ATOM      9  C   UNL     1       7.524  -3.487  23.776  0.00  0.00    +0.085 A 
ATOM     10  O   UNL     1       6.149  -0.480  23.462  0.00  0.00    -0.286 OA
ATOM     11  C   UNL     1       9.608  -0.715  24.206  0.00  0.00    +0.015 A 
ATOM     12  C   UNL     1      10.848  -0.142  24.373  0.00  0.00    +0.011 A 
ATOM     13  C   UNL     1      10.932   1.246  24.217  0.00  0.00    +0.002 A 
ATOM     14  C   UNL     1       9.802   2.016  23.854  0.00  0.00    +0.024 A 
ENDROOT
BRANCH   9  15
ATOM     15  C   UNL     1       6.316  -4.146  23.388  0.00  0.00    +0.060 A 
ATOM     16  S   UNL     1       4.845  -3.762  24.200  0.00  0.00    -0.071 S 
ATOM     17  C   UNL     1       4.018  -4.931  23.279  0.00  0.00    +0.076 A 
ATOM     18  C   UNL     1       2.582  -5.200  23.556  0.00  0.00    +0.073 C 
ATOM     19  N   UNL     1       4.738  -5.537  22.355  0.00  0.00    -0.249 NA
ATOM     20  C   UNL     1       6.058  -5.098  22.408  0.00  0.00    +0.055 A 
ATOM     21  C   UNL     1       6.997  -5.744  21.450  0.00  0.00    +0.067 C 
ENDBRANCH   9  15
BRANCH   1  25
ATOM     22  N   UNL     1       5.605   3.508  23.345  0.00  0.00    -0.232 N 
ATOM     23  H   UNL     1       5.326   3.140  22.443  0.00  0.00    +0.171 HD
ATOM     24  C   UNL     1       6.629   2.858  24.023  0.00  0.00    +0.318 C 
ATOM     25  N   UNL     1       7.440   2.138  23.152  0.00  0.00    -0.268 N 
ATOM     26  H   UNL     1       7.596   2.624  22.269  0.00  0.00    +0.156 HD
ATOM     27  O   UNL     1       6.813   2.931  25.235  0.00  0.00    -0.251 OA
BRANCH  22  32
ATOM     28  C   UNL     1       2.375   7.060  22.951  0.00  0.00    +0.105 C 
ATOM     29  N   UNL     1       3.300   6.216  22.192  0.00  0.00    -0.303 NA
ATOM     30  C   UNL     1       2.946   4.788  22.318  0.00  0.00    +0.101 C 
ATOM     31  C   UNL     1       3.308   4.146  23.674  0.00  0.00    +0.121 C 
ATOM     32  N   UNL     1       4.717   4.346  24.066  0.00  0.00    -0.223 NA
ATOM     33  C   UNL     1       5.081   5.769  23.966  0.00  0.00    +0.121 C 
ATOM     34  C   UNL     1       4.696   6.425  22.621  0.00  0.00    +0.101 C 
ENDBRANCH  22  32
ENDBRANCH   1  25
TORSDOF 3
ENDMDL
MODEL 4
REMARK VINA RESULT:      -7.2      2.629      7.933
REMARK  Name = 
REMARK  6 active torsions:
REMARK  status: ('A' for Active; 'I' for Inactive)
REMARK    1  A    between atoms: C_1  and  N_2
REMARK    2  A    between atoms: N_5  and  N_8
REMARK    3  A    between atoms: N_11  and  C_12
REMARK    4  A    between atoms: C_21  and  C_25
REMARK    5  A    between atoms: C_26  and  C_27
REMARK    6  A    between atoms: C_29  and  C_30
REMARK                            x       y       z     vdW  Elec       q    Type
REMARK                         _______ _______ _______ _____ _____    ______ ____
ROOT
ATOM      1  C   UNL     1       9.170   0.149  24.621  0.00  0.00    +0.046 A 
ATOM      2  C   UNL     1       8.384   1.054  23.937  0.00  0.00    +0.053 A 
ATOM      3  C   UNL     1       6.893   1.150  23.910  0.00  0.00    +0.200 C 
ATOM      4  C   UNL     1       6.638   2.395  23.236  0.00  0.00    +0.076 A 
ATOM      5  C   UNL     1       7.843   2.984  22.832  0.00  0.00    +0.105 A 
ATOM      6  N   UNL     1       7.679   4.159  22.244  0.00  0.00    -0.173 NA
ATOM      7  N   UNL     1       6.323   4.312  22.288  0.00  0.00    -0.275 N 
ATOM      8  H   UNL     1       5.934   5.179  21.936  0.00  0.00    +0.189 HD
ATOM      9  C   UNL     1       5.644   3.267  22.890  0.00  0.00    +0.085 A 
ATOM     10  O   UNL     1       6.116   0.329  24.365  0.00  0.00    -0.286 OA
ATOM     11  C   UNL     1       8.940   2.167  23.259  0.00  0.00    +0.015 A 
ATOM     12  C   UNL     1      10.300   2.361  23.185  0.00  0.00    +0.011 A 
ATOM     13  C   UNL     1      11.112   1.406  23.808  0.00  0.00    +0.002 A 
ATOM     14  C   UNL     1      10.555   0.320  24.523  0.00  0.00    +0.024 A 
ENDROOT
BRANCH   9  15
ATOM     15  C   UNL     1       4.236   3.232  23.137  0.00  0.00    +0.060 A 
ATOM     16  S   UNL     1       3.142   3.456  21.823  0.00  0.00    -0.071 S 
ATOM     17  C   UNL     1       1.820   3.365  22.893  0.00  0.00    +0.076 A 
ATOM     18  C   UNL     1       0.443   3.581  22.376  0.00  0.00    +0.073 C 
ATOM     19  N   UNL     1       2.126   3.105  24.149  0.00  0.00    -0.249 NA
ATOM     20  C   UNL     1       3.507   3.028  24.303  0.00  0.00    +0.055 A 
ATOM     21  C   UNL     1       3.996   2.790  25.690  0.00  0.00    +0.067 C 
ENDBRANCH   9  15
BRANCH   1  25
ATOM     22  N   UNL     1       7.817  -2.955  25.912  0.00  0.00    -0.232 N 
ATOM     23  H   UNL     1       7.294  -2.522  26.664  0.00  0.00    +0.171 HD
ATOM     24  C   UNL     1       8.385  -2.125  24.953  0.00  0.00    +0.318 C 
ATOM     25  N   UNL     1       8.583  -0.839  25.446  0.00  0.00    -0.268 N 
ATOM     26  H   UNL     1       8.889  -0.835  26.419  0.00  0.00    +0.156 HD
ATOM     27  O   UNL     1       8.699  -2.486  23.822  0.00  0.00    -0.251 OA
BRANCH  22  32
ATOM     28  C   UNL     1       4.924  -6.734  26.657  0.00  0.00    +0.105 C 
ATOM     29  N   UNL     1       5.138  -5.327  26.998  0.00  0.00    -0.303 NA
ATOM     30  C   UNL     1       5.088  -4.472  25.794  0.00  0.00    +0.101 C 
ATOM     31  C   UNL     1       6.335  -4.552  24.888  0.00  0.00    +0.121 C 
ATOM     32  N   UNL     1       7.604  -4.324  25.607  0.00  0.00    -0.223 NA
ATOM     33  C   UNL     1       7.681  -5.183  26.799  0.00  0.00    +0.121 C 
ATOM     34  C   UNL     1       6.424  -5.130  27.697  0.00  0.00    +0.101 C 
ENDBRANCH  22  32
ENDBRANCH   1  25
TORSDOF 3
ENDMDL
MODEL 5
REMARK VINA RESULT:      -7.2      3.579      4.303
REMARK  Name = 
REMARK  6 active torsions:
REMARK  status: ('A' for Active; 'I' for Inactive)
REMARK    1  A    between atoms: C_1  and  N_2
REMARK    2  A    between atoms: N_5  and  N_8
REMARK    3  A    between atoms: N_11  and  C_12
REMARK    4  A    between atoms: C_21  and  C_25
REMARK    5  A    between atoms: C_26  and  C_27
REMARK    6  A    between atoms: C_29  and  C_30
REMARK                            x       y       z     vdW  Elec       q    Type
REMARK                         _______ _______ _______ _____ _____    ______ ____
ROOT
ATOM      1  C   UNL     1       8.979   1.002  24.244  0.00  0.00    +0.046 A 
ATOM      2  C   UNL     1       8.771  -0.319  23.902  0.00  0.00    +0.053 A 
ATOM      3  C   UNL     1       8.327  -1.443  24.779  0.00  0.00    +0.200 C 
ATOM      4  C   UNL     1       8.063  -2.518  23.859  0.00  0.00    +0.076 A 
ATOM      5  C   UNL     1       8.367  -2.121  22.550  0.00  0.00    +0.105 A 
ATOM      6  N   UNL     1       8.101  -3.053  21.647  0.00  0.00    -0.173 NA
ATOM      7  N   UNL     1       7.607  -4.064  22.418  0.00  0.00    -0.275 N 
ATOM      8  H   UNL     1       7.274  -4.898  21.949  0.00  0.00    +0.189 HD
ATOM      9  C   UNL     1       7.556  -3.784  23.774  0.00  0.00    +0.085 A 
ATOM     10  O   UNL     1       8.234  -1.408  25.993  0.00  0.00    -0.286 OA
ATOM     11  C   UNL     1       8.808  -0.758  22.554  0.00  0.00    +0.015 A 
ATOM     12  C   UNL     1       9.127   0.097  21.525  0.00  0.00    +0.011 A 
ATOM     13  C   UNL     1       9.418   1.423  21.868  0.00  0.00    +0.002 A 
ATOM     14  C   UNL     1       9.337   1.871  23.207  0.00  0.00    +0.024 A 
ENDROOT
BRANCH   9  15
ATOM     15  C   UNL     1       6.999  -4.642  24.773  0.00  0.00    +0.060 A 
ATOM     16  S   UNL     1       5.419  -5.294  24.542  0.00  0.00    -0.071 S 
ATOM     17  C   UNL     1       5.493  -6.044  26.069  0.00  0.00    +0.076 A 
ATOM     18  C   UNL     1       4.307  -6.779  26.582  0.00  0.00    +0.073 C 
ATOM     19  N   UNL     1       6.638  -5.909  26.710  0.00  0.00    -0.249 NA
ATOM     20  C   UNL     1       7.509  -5.107  25.980  0.00  0.00    +0.055 A 
ATOM     21  C   UNL     1       8.825  -4.827  26.616  0.00  0.00    +0.067 C 
ENDBRANCH   9  15
BRANCH   1  25
ATOM     22  N   UNL     1       7.459   2.312  27.262  0.00  0.00    -0.232 N 
ATOM     23  H   UNL     1       8.336   2.544  27.713  0.00  0.00    +0.171 HD
ATOM     24  C   UNL     1       7.496   1.937  25.924  0.00  0.00    +0.318 C 
ATOM     25  N   UNL     1       8.749   1.451  25.566  0.00  0.00    -0.268 N 
ATOM     26  H   UNL     1       9.175   0.885  26.300  0.00  0.00    +0.156 HD
ATOM     27  O   UNL     1       6.537   2.002  25.160  0.00  0.00    -0.251 OA
BRANCH  22  32
ATOM     28  C   UNL     1       5.506   5.320  30.477  0.00  0.00    +0.105 C 
ATOM     29  N   UNL     1       6.776   4.846  29.925  0.00  0.00    -0.303 NA
ATOM     30  C   UNL     1       6.868   5.129  28.478  0.00  0.00    +0.101 C 
ATOM     31  C   UNL     1       6.013   4.209  27.581  0.00  0.00    +0.121 C 
ATOM     32  N   UNL     1       6.239   2.771  27.821  0.00  0.00    -0.223 NA
ATOM     33  C   UNL     1       6.131   2.466  29.257  0.00  0.00    +0.121 C 
ATOM     34  C   UNL     1       6.962   3.401  30.165  0.00  0.00    +0.101 C 
ENDBRANCH  22  32
ENDBRANCH   1  25
TORSDOF 3
ENDMDL
MODEL 6
REMARK VINA RESULT:      -6.7      2.735      8.044
REMARK  Name = 
REMARK  6 active torsions:
REMARK  status: ('A' for Active; 'I' for Inactive)
REMARK    1  A    between atoms: C_1  and  N_2
REMARK    2  A    between atoms: N_5  and  N_8
REMARK    3  A    between atoms: N_11  and  C_12
REMARK    4  A    between atoms: C_21  and  C_25
REMARK    5  A    between atoms: C_26  and  C_27
REMARK    6  A    between atoms: C_29  and  C_30
REMARK                            x       y       z     vdW  Elec       q    Type
REMARK                         _______ _______ _______ _____ _____    ______ ____
ROOT
ATOM      1  C   UNL     1       9.064   1.397  22.707  0.00  0.00    +0.046 A 
ATOM      2  C   UNL     1       8.283   2.532  22.792  0.00  0.00    +0.053 A 
ATOM      3  C   UNL     1       6.822   2.673  22.516  0.00  0.00    +0.200 C 
ATOM      4  C   UNL     1       6.507   3.997  22.983  0.00  0.00    +0.076 A 
ATOM      5  C   UNL     1       7.665   4.636  23.445  0.00  0.00    +0.105 A 
ATOM      6  N   UNL     1       7.434   5.847  23.932  0.00  0.00    -0.173 NA
ATOM      7  N   UNL     1       6.084   5.965  23.774  0.00  0.00    -0.275 N 
ATOM      8  H   UNL     1       5.638   6.805  24.123  0.00  0.00    +0.189 HD
ATOM      9  C   UNL     1       5.471   4.860  23.206  0.00  0.00    +0.085 A 
ATOM     10  O   UNL     1       6.107   1.829  22.006  0.00  0.00    -0.286 OA
ATOM     11  C   UNL     1       8.779   3.743  23.337  0.00  0.00    +0.015 A 
ATOM     12  C   UNL     1      10.088   3.870  23.740  0.00  0.00    +0.011 A 
ATOM     13  C   UNL     1      10.912   2.749  23.585  0.00  0.00    +0.002 A 
ATOM     14  C   UNL     1      10.405   1.527  23.083  0.00  0.00    +0.024 A 
ENDROOT
BRANCH   9  15
ATOM     15  C   UNL     1       4.062   4.704  23.019  0.00  0.00    +0.060 A 
ATOM     16  S   UNL     1       3.272   3.316  23.668  0.00  0.00    -0.071 S 
ATOM     17  C   UNL     1       1.795   3.825  22.989  0.00  0.00    +0.076 A 
ATOM     18  C   UNL     1       0.594   2.957  23.113  0.00  0.00    +0.073 C 
ATOM     19  N   UNL     1       1.827   4.993  22.376  0.00  0.00    -0.249 NA
ATOM     20  C   UNL     1       3.120   5.507  22.384  0.00  0.00    +0.055 A 
ATOM     21  C   UNL     1       3.310   6.802  21.676  0.00  0.00    +0.067 C 
ENDBRANCH   9  15
BRANCH   1  25
ATOM     22  N   UNL     1       7.685  -1.954  22.765  0.00  0.00    -0.232 N 
ATOM     23  H   UNL     1       7.823  -2.128  21.776  0.00  0.00    +0.171 HD
ATOM     24  C   UNL     1       8.263  -0.814  23.312  0.00  0.00    +0.318 C 
ATOM     25  N   UNL     1       8.495   0.154  22.341  0.00  0.00    -0.268 N 
ATOM     26  H   UNL     1       7.748   0.203  21.648  0.00  0.00    +0.156 HD
ATOM     27  O   UNL     1       8.512  -0.669  24.505  0.00  0.00    -0.251 OA
BRANCH  22  32
ATOM     28  C   UNL     1       5.002  -5.939  23.127  0.00  0.00    +0.105 C 
ATOM     29  N   UNL     1       5.357  -4.831  22.237  0.00  0.00    -0.303 NA
ATOM     30  C   UNL     1       6.802  -4.834  21.932  0.00  0.00    +0.101 C 
ATOM     31  C   UNL     1       7.709  -4.340  23.079  0.00  0.00    +0.121 C 
ATOM     32  N   UNL     1       7.316  -3.025  23.620  0.00  0.00    -0.223 NA
ATOM     33  C   UNL     1       5.882  -3.011  23.949  0.00  0.00    +0.121 C 
ATOM     34  C   UNL     1       4.969  -3.529  22.815  0.00  0.00    +0.101 C 
ENDBRANCH  22  32
ENDBRANCH   1  25
TORSDOF 3
ENDMDL
MODEL 7
REMARK VINA RESULT:      -6.7      2.446      7.809
REMARK  Name = 
REMARK  6 active torsions:
REMARK  status: ('A' for Active; 'I' for Inactive)
REMARK    1  A    between atoms: C_1  and  N_2
REMARK    2  A    between atoms: N_5  and  N_8
REMARK    3  A    between atoms: N_11  and  C_12
REMARK    4  A    between atoms: C_21  and  C_25
REMARK    5  A    between atoms: C_26  and  C_27
REMARK    6  A    between atoms: C_29  and  C_30
REMARK                            x       y       z     vdW  Elec       q    Type
REMARK                         _______ _______ _______ _____ _____    ______ ____
ROOT
ATOM      1  C   UNL     1       8.377  -1.956  23.919  0.00  0.00    +0.046 A 
ATOM      2  C   UNL     1       7.878  -0.786  23.384  0.00  0.00    +0.053 A 
ATOM      3  C   UNL     1       6.587  -0.102  23.697  0.00  0.00    +0.200 C 
ATOM      4  C   UNL     1       6.697   1.168  23.029  0.00  0.00    +0.076 A 
ATOM      5  C   UNL     1       7.906   1.243  22.325  0.00  0.00    +0.105 A 
ATOM      6  N   UNL     1       8.088   2.409  21.724  0.00  0.00    -0.173 NA
ATOM      7  N   UNL     1       6.957   3.088  22.071  0.00  0.00    -0.275 N 
ATOM      8  H   UNL     1       6.873   4.052  21.769  0.00  0.00    +0.189 HD
ATOM      9  C   UNL     1       6.080   2.378  22.873  0.00  0.00    +0.085 A 
ATOM     10  O   UNL     1       5.679  -0.562  24.365  0.00  0.00    -0.286 OA
ATOM     11  C   UNL     1       8.655   0.040  22.533  0.00  0.00    +0.015 A 
ATOM     12  C   UNL     1       9.921  -0.322  22.136  0.00  0.00    +0.011 A 
ATOM     13  C   UNL     1      10.409  -1.547  22.608  0.00  0.00    +0.002 A 
ATOM     14  C   UNL     1       9.651  -2.348  23.494  0.00  0.00    +0.024 A 
ENDROOT
BRANCH   9  15
ATOM     15  C   UNL     1       4.874   2.898  23.439  0.00  0.00    +0.060 A 
ATOM     16  S   UNL     1       3.660   3.541  22.398  0.00  0.00    -0.071 S 
ATOM     17  C   UNL     1       2.715   3.971  23.748  0.00  0.00    +0.076 A 
ATOM     18  C   UNL     1       1.443   4.714  23.544  0.00  0.00    +0.073 C 
ATOM     19  N   UNL     1       3.200   3.603  24.918  0.00  0.00    -0.249 NA
ATOM     20  C   UNL     1       4.437   2.989  24.756  0.00  0.00    +0.055 A 
ATOM     21  C   UNL     1       5.125   2.570  26.008  0.00  0.00    +0.067 C 
ENDBRANCH   9  15
BRANCH   1  25
ATOM     22  N   UNL     1       6.215  -4.287  25.658  0.00  0.00    -0.232 N 
ATOM     23  H   UNL     1       6.132  -3.727  26.498  0.00  0.00    +0.171 HD
ATOM     24  C   UNL     1       6.818  -3.709  24.548  0.00  0.00    +0.318 C 
ATOM     25  N   UNL     1       7.657  -2.661  24.912  0.00  0.00    -0.268 N 
ATOM     26  H   UNL     1       8.171  -2.851  25.772  0.00  0.00    +0.156 HD
ATOM     27  O   UNL     1       6.652  -4.091  23.392  0.00  0.00    -0.251 OA
BRANCH  22  32
ATOM     28  C   UNL     1       2.412  -6.657  27.426  0.00  0.00    +0.105 C 
ATOM     29  N   UNL     1       3.280  -5.497  27.634  0.00  0.00    -0.303 NA
ATOM     30  C   UNL     1       3.214  -4.569  26.486  0.00  0.00    +0.101 C 
ATOM     31  C   UNL     1       3.970  -5.041  25.226  0.00  0.00    +0.121 C 
ATOM     32  N   UNL     1       5.374  -5.416  25.483  0.00  0.00    -0.223 NA
ATOM     33  C   UNL     1       5.456  -6.358  26.611  0.00  0.00    +0.121 C 
ATOM     34  C   UNL     1       4.679  -5.905  27.868  0.00  0.00    +0.101 C 
ENDBRANCH  22  32
ENDBRANCH   1  25
TORSDOF 3
ENDMDL
MODEL 8
REMARK VINA RESULT:      -6.6      3.074      7.723
REMARK  Name = 
REMARK  6 active torsions:
REMARK  status: ('A' for Active; 'I' for Inactive)
REMARK    1  A    between atoms: C_1  and  N_2
REMARK    2  A    between atoms: N_5  and  N_8
REMARK    3  A    between atoms: N_11  and  C_12
REMARK    4  A    between atoms: C_21  and  C_25
REMARK    5  A    between atoms: C_26  and  C_27
REMARK    6  A    between atoms: C_29  and  C_30
REMARK                            x       y       z     vdW  Elec       q    Type
REMARK                         _______ _______ _______ _____ _____    ______ ____
ROOT
ATOM      1  C   UNL     1       7.498  -1.434  22.938  0.00  0.00    +0.046 A 
ATOM      2  C   UNL     1       7.422  -0.066  23.104  0.00  0.00    +0.053 A 
ATOM      3  C   UNL     1       6.469   0.712  23.952  0.00  0.00    +0.200 C 
ATOM      4  C   UNL     1       6.992   2.052  23.922  0.00  0.00    +0.076 A 
ATOM      5  C   UNL     1       8.121   2.114  23.093  0.00  0.00    +0.105 A 
ATOM      6  N   UNL     1       8.678   3.315  23.059  0.00  0.00    -0.173 NA
ATOM      7  N   UNL     1       7.874   4.026  23.901  0.00  0.00    -0.275 N 
ATOM      8  H   UNL     1       8.123   4.990  24.091  0.00  0.00    +0.189 HD
ATOM      9  C   UNL     1       6.836   3.299  24.459  0.00  0.00    +0.085 A 
ATOM     10  O   UNL     1       5.484   0.266  24.513  0.00  0.00    -0.286 OA
ATOM     11  C   UNL     1       8.405   0.809  22.576  0.00  0.00    +0.015 A 
ATOM     12  C   UNL     1       9.446   0.343  21.806  0.00  0.00    +0.011 A 
ATOM     13  C   UNL     1       9.489  -1.035  21.563  0.00  0.00    +0.002 A 
ATOM     14  C   UNL     1       8.534  -1.912  22.128  0.00  0.00    +0.024 A 
ENDROOT
BRANCH   9  15
ATOM     15  C   UNL     1       5.915   3.792  25.436  0.00  0.00    +0.060 A 
ATOM     16  S   UNL     1       6.520   4.548  26.862  0.00  0.00    -0.071 S 
ATOM     17  C   UNL     1       4.933   4.736  27.450  0.00  0.00    +0.076 A 
ATOM     18  C   UNL     1       4.717   5.304  28.807  0.00  0.00    +0.073 C 
ATOM     19  N   UNL     1       3.976   4.346  26.630  0.00  0.00    -0.249 NA
ATOM     20  C   UNL     1       4.525   3.802  25.473  0.00  0.00    +0.055 A 
ATOM     21  C   UNL     1       3.552   3.270  24.479  0.00  0.00    +0.067 C 
ENDBRANCH   9  15
BRANCH   1  25
ATOM     22  N   UNL     1       4.885  -3.800  23.780  0.00  0.00    -0.232 N 
ATOM     23  H   UNL     1       4.849  -3.551  24.762  0.00  0.00    +0.171 HD
ATOM     24  C   UNL     1       5.637  -2.995  22.933  0.00  0.00    +0.318 C 
ATOM     25  N   UNL     1       6.616  -2.296  23.632  0.00  0.00    -0.268 N 
ATOM     26  H   UNL     1       7.042  -2.852  24.373  0.00  0.00    +0.156 HD
ATOM     27  O   UNL     1       5.477  -2.928  21.718  0.00  0.00    -0.251 OA
BRANCH  22  32
ATOM     28  C   UNL     1       2.342  -7.835  24.458  0.00  0.00    +0.105 C 
ATOM     29  N   UNL     1       3.393  -6.992  25.031  0.00  0.00    -0.303 NA
ATOM     30  C   UNL     1       2.887  -5.637  25.329  0.00  0.00    +0.101 C 
ATOM     31  C   UNL     1       2.688  -4.731  24.095  0.00  0.00    +0.121 C 
ATOM     32  N   UNL     1       3.881  -4.638  23.231  0.00  0.00    -0.223 NA
ATOM     33  C   UNL     1       4.387  -5.981  22.906  0.00  0.00    +0.121 C 
ATOM     34  C   UNL     1       4.562  -6.903  24.134  0.00  0.00    +0.101 C 
ENDBRANCH  22  32
ENDBRANCH   1  25
TORSDOF 3
ENDMDL
MODEL 9
REMARK VINA RESULT:      -6.5      2.806      8.066
REMARK  Name = 
REMARK  6 active torsions:
REMARK  status: ('A' for Active; 'I' for Inactive)
REMARK    1  A    between atoms: C_1  and  N_2
REMARK    2  A    between atoms: N_5  and  N_8
REMARK    3  A    between atoms: N_11  and  C_12
REMARK    4  A    between atoms: C_21  and  C_25
REMARK    5  A    between atoms: C_26  and  C_27
REMARK    6  A    between atoms: C_29  and  C_30
REMARK                            x       y       z     vdW  Elec       q    Type
REMARK                         _______ _______ _______ _____ _____    ______ ____
ROOT
ATOM      1  C   UNL     1       9.170   0.832  23.913  0.00  0.00    +0.046 A 
ATOM      2  C   UNL     1       8.449   1.950  23.544  0.00  0.00    +0.053 A 
ATOM      3  C   UNL     1       6.966   2.106  23.452  0.00  0.00    +0.200 C 
ATOM      4  C   UNL     1       6.778   3.518  23.250  0.00  0.00    +0.076 A 
ATOM      5  C   UNL     1       8.018   4.166  23.166  0.00  0.00    +0.105 A 
ATOM      6  N   UNL     1       7.913   5.478  23.025  0.00  0.00    -0.173 NA
ATOM      7  N   UNL     1       6.560   5.658  23.029  0.00  0.00    -0.275 N 
ATOM      8  H   UNL     1       6.209   6.608  22.983  0.00  0.00    +0.189 HD
ATOM      9  C   UNL     1       5.824   4.494  23.171  0.00  0.00    +0.085 A 
ATOM     10  O   UNL     1       6.147   1.208  23.531  0.00  0.00    -0.286 OA
ATOM     11  C   UNL     1       9.069   3.210  23.347  0.00  0.00    +0.015 A 
ATOM     12  C   UNL     1      10.433   3.365  23.440  0.00  0.00    +0.011 A 
ATOM     13  C   UNL     1      11.183   2.221  23.735  0.00  0.00    +0.002 A 
ATOM     14  C   UNL     1      10.560   0.974  23.976  0.00  0.00    +0.024 A 
ENDROOT
BRANCH   9  15
ATOM     15  C   UNL     1       4.400   4.428  23.293  0.00  0.00    +0.060 A 
ATOM     16  S   UNL     1       3.509   3.399  22.235  0.00  0.00    -0.071 S 
ATOM     17  C   UNL     1       2.048   3.933  22.929  0.00  0.00    +0.076 A 
ATOM     18  C   UNL     1       0.755   3.454  22.372  0.00  0.00    +0.073 C 
ATOM     19  N   UNL     1       2.175   4.767  23.943  0.00  0.00    -0.249 NA
ATOM     20  C   UNL     1       3.517   5.060  24.161  0.00  0.00    +0.055 A 
ATOM     21  C   UNL     1       3.803   6.036  25.249  0.00  0.00    +0.067 C 
ENDBRANCH   9  15
BRANCH   1  25
ATOM     22  N   UNL     1       7.683  -2.473  23.916  0.00  0.00    -0.232 N 
ATOM     23  H   UNL     1       7.110  -2.316  24.737  0.00  0.00    +0.171 HD
ATOM     24  C   UNL     1       8.333  -1.379  23.357  0.00  0.00    +0.318 C 
ATOM     25  N   UNL     1       8.510  -0.361  24.289  0.00  0.00    -0.268 N 
ATOM     26  H   UNL     1       8.741  -0.715  25.217  0.00  0.00    +0.156 HD
ATOM     27  O   UNL     1       8.726  -1.326  22.195  0.00  0.00    -0.251 OA
BRANCH  22  32
ATOM     28  C   UNL     1       4.939  -6.392  23.356  0.00  0.00    +0.105 C 
ATOM     29  N   UNL     1       5.149  -5.208  24.191  0.00  0.00    -0.303 NA
ATOM     30  C   UNL     1       4.986  -3.967  23.408  0.00  0.00    +0.101 C 
ATOM     31  C   UNL     1       6.159  -3.636  22.462  0.00  0.00    +0.121 C 
ATOM     32  N   UNL     1       7.475  -3.634  23.129  0.00  0.00    -0.223 NA
ATOM     33  C   UNL     1       7.664  -4.875  23.898  0.00  0.00    +0.121 C 
ATOM     34  C   UNL     1       6.481  -5.227  24.828  0.00  0.00    +0.101 C 
ENDBRANCH  22  32
ENDBRANCH   1  25
TORSDOF 3
ENDMDL
