MODEL 1
REMARK VINA RESULT:      -8.5      0.000      0.000
REMARK  Name = 
REMARK  8 active torsions:
REMARK  status: ('A' for Active; 'I' for Inactive)
REMARK    1  A    between atoms: C_4  and  C_5
REMARK    2  A    between atoms: C_4  and  C_6
REMARK    3  A    between atoms: CA_7  and  C_30
REMARK    4  A    between atoms: CA_12  and  N_14
REMARK    5  A    between atoms: C_15  and  C_17
REMARK    6  A    between atoms: C_18  and  C_19
REMARK    7  A    between atoms: C_22  and  C_23
REMARK    8  A    between atoms: C_30  and  O_31
REMARK                            x       y       z     vdW  Elec       q    Type
REMARK                         _______ _______ _______ _____ _____    ______ ____
ROOT
ATOM      1  N   UNL     1       7.956  -3.334  23.716  0.00  0.00    -0.298 N 
ATOM      2  H   UNL     1       7.796  -2.796  24.558  0.00  0.00    +0.150 HD
ATOM      3  C   UNL     1       7.591  -4.666  23.743  0.00  0.00    +0.250 C 
ATOM      4  O   UNL     1       7.520  -5.331  22.717  0.00  0.00    -0.270 OA
ENDROOT
BRANCH   1   6
ATOM      5  C   UNL     1       7.634  -1.166  22.356  0.00  0.00    +0.165 C 
ATOM      6  CA  UNL     1       8.198  -2.607  22.440  0.00  0.00    +0.190 C 
ATOM      7  C   UNL     1       9.580  -1.912  22.305  0.00  0.00    +0.240 C 
ATOM      8  O   UNL     1      10.734  -2.205  22.525  0.00  0.00    -0.273 OA
ATOM      9  N   UNL     1       9.006  -0.691  22.068  0.00  0.00    -0.271 N 
ATOM     10  CA  UNL     1       9.464   0.498  22.821  0.00  0.00    +0.201 C 
ATOM     11  C   UNL     1       8.800   0.435  24.219  0.00  0.00    +0.042 C 
ATOM     12  C   UNL     1       9.596  -0.461  25.192  0.00  0.00    +0.025 C 
ATOM     13  C   UNL     1       8.595   1.775  24.933  0.00  0.00    +0.025 C 
ATOM     14  S   UNL     1       7.153  -0.363  23.938  0.00  0.00    -0.127 S 
BRANCH  10  15
ATOM     15  C   UNL     1       9.143   1.751  21.987  0.00  0.00    +0.327 C 
ATOM     16  OXT UNL     1       8.024   2.079  21.621  0.00  0.00    -0.249 OA
BRANCH  15  17
ATOM     17  O   UNL     1      10.223   2.540  21.749  0.00  0.00    -0.479 OA
ATOM     18  H   UNL     1      11.032   2.133  22.121  0.00  0.00    +0.295 HD
ENDBRANCH  15  17
ENDBRANCH  10  15
ENDBRANCH   1   6
BRANCH   3  19
ATOM     19  C   UNL     1       7.260  -5.173  25.061  0.00  0.00    +0.106 A 
ATOM     20  C   UNL     1       6.019  -5.704  25.579  0.00  0.00    +0.127 A 
ATOM     21  N   UNL     1       6.171  -5.966  26.890  0.00  0.00    -0.077 NA
ATOM     22  O   UNL     1       7.476  -5.737  27.211  0.00  0.00    -0.359 OA
ATOM     23  C   UNL     1       8.138  -5.269  26.130  0.00  0.00    +0.147 A 
ATOM     24  C   UNL     1       9.572  -4.997  26.361  0.00  0.00    +0.090 C 
BRANCH  20  25
ATOM     25  C   UNL     1       4.685  -5.880  24.966  0.00  0.00    +0.023 A 
ATOM     26  C   UNL     1       3.950  -4.807  24.408  0.00  0.00    +0.050 A 
ATOM     27 CL   UNL     1       4.392  -3.137  24.574  0.00  0.00    -0.083 Cl
ATOM     28  C   UNL     1       2.757  -5.037  23.703  0.00  0.00    +0.020 A 
ATOM     29  C   UNL     1       2.245  -6.324  23.579  0.00  0.00    +0.001 A 
ATOM     30  C   UNL     1       2.921  -7.385  24.169  0.00  0.00    +0.001 A 
ATOM     31  C   UNL     1       4.134  -7.169  24.839  0.00  0.00    +0.011 A 
ENDBRANCH  20  25
ENDBRANCH   3  19
TORSDOF 5
ENDMDL
MODEL 2
REMARK VINA RESULT:      -7.4      2.518      3.640
REMARK  Name = 
REMARK  8 active torsions:
REMARK  status: ('A' for Active; 'I' for Inactive)
REMARK    1  A    between atoms: C_4  and  C_5
REMARK    2  A    between atoms: C_4  and  C_6
REMARK    3  A    between atoms: CA_7  and  C_30
REMARK    4  A    between atoms: CA_12  and  N_14
REMARK    5  A    between atoms: C_15  and  C_17
REMARK    6  A    between atoms: C_18  and  C_19
REMARK    7  A    between atoms: C_22  and  C_23
REMARK    8  A    between atoms: C_30  and  O_31
REMARK                            x       y       z     vdW  Elec       q    Type
REMARK                         _______ _______ _______ _____ _____    ______ ____
ROOT
ATOM      1  N   UNL     1       7.310   0.009  23.381  0.00  0.00    -0.298 N 
ATOM      2  H   UNL     1       6.781   0.137  24.235  0.00  0.00    +0.150 HD
ATOM      3  C   UNL     1       7.970  -1.195  23.226  0.00  0.00    +0.250 C 
ATOM      4  O   UNL     1       8.430  -1.538  22.144  0.00  0.00    -0.270 OA
ENDROOT
BRANCH   1   6
ATOM      5  C   UNL     1       6.254   2.211  22.553  0.00  0.00    +0.165 C 
ATOM      6  CA  UNL     1       7.043   0.917  22.233  0.00  0.00    +0.190 C 
ATOM      7  C   UNL     1       8.192   1.891  21.855  0.00  0.00    +0.240 C 
ATOM      8  O   UNL     1       9.391   1.818  21.704  0.00  0.00    -0.273 OA
ATOM      9  N   UNL     1       7.383   2.988  21.995  0.00  0.00    -0.271 N 
ATOM     10  CA  UNL     1       7.843   4.147  22.792  0.00  0.00    +0.201 C 
ATOM     11  C   UNL     1       7.641   3.783  24.284  0.00  0.00    +0.042 C 
ATOM     12  C   UNL     1       8.823   2.961  24.838  0.00  0.00    +0.025 C 
ATOM     13  C   UNL     1       7.440   4.958  25.248  0.00  0.00    +0.025 C 
ATOM     14  S   UNL     1       6.137   2.704  24.320  0.00  0.00    -0.127 S 
BRANCH  10  15
ATOM     15  C   UNL     1       7.091   5.399  22.303  0.00  0.00    +0.327 C 
ATOM     16  OXT UNL     1       5.912   5.634  22.521  0.00  0.00    -0.249 OA
BRANCH  15  17
ATOM     17  O   UNL     1       7.884   6.295  21.661  0.00  0.00    -0.479 OA
ATOM     18  H   UNL     1       7.489   6.548  20.801  0.00  0.00    +0.295 HD
ENDBRANCH  15  17
ENDBRANCH  10  15
ENDBRANCH   1   6
BRANCH   3  19
ATOM     19  C   UNL     1       8.018  -2.014  24.422  0.00  0.00    +0.106 A 
ATOM     20  C   UNL     1       7.561  -3.365  24.656  0.00  0.00    +0.127 A 
ATOM     21  N   UNL     1       7.742  -3.668  25.954  0.00  0.00    -0.077 NA
ATOM     22  O   UNL     1       8.393  -2.623  26.538  0.00  0.00    -0.359 OA
ATOM     23  C   UNL     1       8.570  -1.632  25.636  0.00  0.00    +0.147 A 
ATOM     24  C   UNL     1       9.282  -0.448  26.160  0.00  0.00    +0.090 C 
BRANCH  20  25
ATOM     25  C   UNL     1       6.875  -4.342  23.784  0.00  0.00    +0.023 A 
ATOM     26  C   UNL     1       5.468  -4.397  23.650  0.00  0.00    +0.050 A 
ATOM     27 CL   UNL     1       4.363  -3.505  24.649  0.00  0.00    -0.083 Cl
ATOM     28  C   UNL     1       4.863  -5.236  22.700  0.00  0.00    +0.020 A 
ATOM     29  C   UNL     1       5.634  -6.072  21.901  0.00  0.00    +0.001 A 
ATOM     30  C   UNL     1       7.015  -6.077  22.056  0.00  0.00    +0.001 A 
ATOM     31  C   UNL     1       7.629  -5.211  22.972  0.00  0.00    +0.011 A 
ENDBRANCH  20  25
ENDBRANCH   3  19
TORSDOF 5
ENDMDL
MODEL 3
REMARK VINA RESULT:      -7.4      2.198      3.195
REMARK  Name = 
REMARK  8 active torsions:
REMARK  status: ('A' for Active; 'I' for Inactive)
REMARK    1  A    between atoms: C_4  and  C_5
REMARK    2  A    between atoms: C_4  and  C_6
REMARK    3  A    between atoms: CA_7  and  C_30
REMARK    4  A    between atoms: CA_12  and  N_14
REMARK    5  A    between atoms: C_15  and  C_17
REMARK    6  A    between atoms: C_18  and  C_19
REMARK    7  A    between atoms: C_22  and  C_23
REMARK    8  A    between atoms: C_30  and  O_31
REMARK                            x       y       z     vdW  Elec       q    Type
REMARK                         _______ _______ _______ _____ _____    ______ ____
ROOT
ATOM      1  N   UNL     1       8.205  -3.085  24.312  0.00  0.00    -0.298 N 
ATOM      2  H   UNL     1       7.351  -2.661  23.974  0.00  0.00    +0.150 HD
ATOM      3  C   UNL     1       8.259  -4.466  24.319  0.00  0.00    +0.250 C 
ATOM      4  O   UNL     1       9.316  -5.064  24.478  0.00  0.00    -0.270 OA
ENDROOT
BRANCH   1   6
ATOM      5  C   UNL     1       9.645  -1.217  23.269  0.00  0.00    +0.165 C 
ATOM      6  CA  UNL     1       9.430  -2.247  24.407  0.00  0.00    +0.190 C 
ATOM      7  C   UNL     1       9.327  -0.992  25.318  0.00  0.00    +0.240 C 
ATOM      8  O   UNL     1       8.895  -0.742  26.421  0.00  0.00    -0.273 OA
ATOM      9  N   UNL     1       9.689  -0.153  24.297  0.00  0.00    -0.271 N 
ATOM     10  CA  UNL     1       8.889   1.063  24.023  0.00  0.00    +0.201 C 
ATOM     11  C   UNL     1       7.634   0.614  23.234  0.00  0.00    +0.042 C 
ATOM     12  C   UNL     1       6.515   0.116  24.173  0.00  0.00    +0.025 C 
ATOM     13  C   UNL     1       6.997   1.665  22.319  0.00  0.00    +0.025 C 
ATOM     14  S   UNL     1       8.193  -0.825  22.211  0.00  0.00    -0.127 S 
BRANCH  10  15
ATOM     15  C   UNL     1       9.794   2.085  23.311  0.00  0.00    +0.327 C 
ATOM     16  OXT UNL     1      10.395   1.878  22.268  0.00  0.00    -0.249 OA
BRANCH  15  17
ATOM     17  O   UNL     1       9.809   3.306  23.905  0.00  0.00    -0.479 OA
ATOM     18  H   UNL     1      10.681   3.734  23.788  0.00  0.00    +0.295 HD
ENDBRANCH  15  17
ENDBRANCH  10  15
ENDBRANCH   1   6
BRANCH   3  19
ATOM     19  C   UNL     1       6.988  -5.120  24.077  0.00  0.00    +0.106 A 
ATOM     20  C   UNL     1       5.864  -5.346  24.958  0.00  0.00    +0.127 A 
ATOM     21  N   UNL     1       4.941  -6.077  24.307  0.00  0.00    -0.077 NA
ATOM     22  O   UNL     1       5.365  -6.235  23.022  0.00  0.00    -0.359 OA
ATOM     23  C   UNL     1       6.581  -5.665  22.869  0.00  0.00    +0.147 A 
ATOM     24  C   UNL     1       7.135  -5.765  21.502  0.00  0.00    +0.090 C 
BRANCH  20  25
ATOM     25  C   UNL     1       5.643  -5.021  26.383  0.00  0.00    +0.023 A 
ATOM     26  C   UNL     1       4.947  -3.865  26.808  0.00  0.00    +0.050 A 
ATOM     27 CL   UNL     1       4.474  -2.574  25.748  0.00  0.00    -0.083 Cl
ATOM     28  C   UNL     1       4.627  -3.669  28.161  0.00  0.00    +0.020 A 
ATOM     29  C   UNL     1       5.032  -4.585  29.124  0.00  0.00    +0.001 A 
ATOM     30  C   UNL     1       5.767  -5.700  28.737  0.00  0.00    +0.001 A 
ATOM     31  C   UNL     1       6.054  -5.924  27.383  0.00  0.00    +0.011 A 
ENDBRANCH  20  25
ENDBRANCH   3  19
TORSDOF 5
ENDMDL
MODEL 4
REMARK VINA RESULT:      -7.3      3.847      9.348
REMARK  Name = 
REMARK  8 active torsions:
REMARK  status: ('A' for Active; 'I' for Inactive)
REMARK    1  A    between atoms: C_4  and  C_5
REMARK    2  A    between atoms: C_4  and  C_6
REMARK    3  A    between atoms: CA_7  and  C_30
REMARK    4  A    between atoms: CA_12  and  N_14
REMARK    5  A    between atoms: C_15  and  C_17
REMARK    6  A    between atoms: C_18  and  C_19
REMARK    7  A    between atoms: C_22  and  C_23
REMARK    8  A    between atoms: C_30  and  O_31
REMARK                            x       y       z     vdW  Elec       q    Type
REMARK                         _______ _______ _______ _____ _____    ______ ____
ROOT
ATOM      1  N   UNL     1       9.159   1.451  24.259  0.00  0.00    -0.298 N 
ATOM      2  H   UNL     1       8.221   1.566  24.619  0.00  0.00    +0.150 HD
ATOM      3  C   UNL     1       9.736   2.548  23.647  0.00  0.00    +0.250 C 
ATOM      4  O   UNL     1      10.934   2.585  23.398  0.00  0.00    -0.270 OA
ENDROOT
BRANCH   1   6
ATOM      5  C   UNL     1       9.207  -0.790  25.535  0.00  0.00    +0.165 C 
ATOM      6  CA  UNL     1       9.967   0.293  24.728  0.00  0.00    +0.190 C 
ATOM      7  C   UNL     1      10.189  -0.846  23.696  0.00  0.00    +0.240 C 
ATOM      8  O   UNL     1      10.493  -0.923  22.527  0.00  0.00    -0.273 OA
ATOM      9  N   UNL     1       9.653  -1.787  24.536  0.00  0.00    -0.271 N 
ATOM     10  CA  UNL     1       8.622  -2.723  24.033  0.00  0.00    +0.201 C 
ATOM     11  C   UNL     1       7.279  -1.951  24.009  0.00  0.00    +0.042 C 
ATOM     12  C   UNL     1       7.120  -1.117  22.720  0.00  0.00    +0.025 C 
ATOM     13  C   UNL     1       6.008  -2.798  24.138  0.00  0.00    +0.025 C 
ATOM     14  S   UNL     1       7.372  -0.772  25.434  0.00  0.00    -0.127 S 
BRANCH  10  15
ATOM     15  C   UNL     1       8.649  -3.987  24.911  0.00  0.00    +0.327 C 
ATOM     16  OXT UNL     1       8.605  -3.990  26.132  0.00  0.00    -0.249 OA
BRANCH  15  17
ATOM     17  O   UNL     1       8.639  -5.145  24.200  0.00  0.00    -0.479 OA
ATOM     18  H   UNL     1       8.109  -5.826  24.661  0.00  0.00    +0.295 HD
ENDBRANCH  15  17
ENDBRANCH  10  15
ENDBRANCH   1   6
BRANCH   3  19
ATOM     19  C   UNL     1       8.820   3.640  23.382  0.00  0.00    +0.106 A 
ATOM     20  C   UNL     1       8.919   5.047  23.699  0.00  0.00    +0.127 A 
ATOM     21  N   UNL     1       7.778   5.658  23.331  0.00  0.00    -0.077 NA
ATOM     22  O   UNL     1       7.000   4.737  22.695  0.00  0.00    -0.359 OA
ATOM     23  C   UNL     1       7.610   3.532  22.713  0.00  0.00    +0.147 A 
ATOM     24  C   UNL     1       6.858   2.455  22.035  0.00  0.00    +0.090 C 
BRANCH  20  25
ATOM     25  C   UNL     1       9.951   5.832  24.411  0.00  0.00    +0.023 A 
ATOM     26  C   UNL     1       9.717   6.451  25.661  0.00  0.00    +0.050 A 
ATOM     27 CL   UNL     1       8.154   6.576  26.405  0.00  0.00    -0.083 Cl
ATOM     28  C   UNL     1      10.763   7.058  26.375  0.00  0.00    +0.020 A 
ATOM     29  C   UNL     1      12.047   7.108  25.844  0.00  0.00    +0.001 A 
ATOM     30  C   UNL     1      12.286   6.557  24.590  0.00  0.00    +0.001 A 
ATOM     31  C   UNL     1      11.256   5.912  23.891  0.00  0.00    +0.011 A 
ENDBRANCH  20  25
ENDBRANCH   3  19
TORSDOF 5
ENDMDL
MODEL 5
REMARK VINA RESULT:      -7.3      2.196      2.441
REMARK  Name = 
REMARK  8 active torsions:
REMARK  status: ('A' for Active; 'I' for Inactive)
REMARK    1  A    between atoms: C_4  and  C_5
REMARK    2  A    between atoms: C_4  and  C_6
REMARK    3  A    between atoms: CA_7  and  C_30
REMARK    4  A    between atoms: CA_12  and  N_14
REMARK    5  A    between atoms: C_15  and  C_17
REMARK    6  A    between atoms: C_18  and  C_19
REMARK    7  A    between atoms: C_22  and  C_23
REMARK    8  A    between atoms: C_30  and  O_31
REMARK                            x       y       z     vdW  Elec       q    Type
REMARK                         _______ _______ _______ _____ _____    ______ ____
ROOT
ATOM      1  N   UNL     1       6.814  -2.724  24.900  0.00  0.00    -0.298 N 
ATOM      2  H   UNL     1       7.302  -2.423  25.734  0.00  0.00    +0.150 HD
ATOM      3  C   UNL     1       6.248  -3.984  24.927  0.00  0.00    +0.250 C 
ATOM      4  O   UNL     1       5.444  -4.342  24.075  0.00  0.00    -0.270 OA
ENDROOT
BRANCH   1   6
ATOM      5  C   UNL     1       6.927  -0.260  24.149  0.00  0.00    +0.165 C 
ATOM      6  CA  UNL     1       6.418  -1.701  23.895  0.00  0.00    +0.190 C 
ATOM      7  C   UNL     1       7.299  -1.626  22.618  0.00  0.00    +0.240 C 
ATOM      8  O   UNL     1       7.782  -2.416  21.838  0.00  0.00    -0.273 OA
ATOM      9  N   UNL     1       7.572  -0.298  22.817  0.00  0.00    -0.271 N 
ATOM     10  CA  UNL     1       8.969   0.187  22.747  0.00  0.00    +0.201 C 
ATOM     11  C   UNL     1       9.644  -0.173  24.093  0.00  0.00    +0.042 C 
ATOM     12  C   UNL     1      10.171  -1.624  24.100  0.00  0.00    +0.025 C 
ATOM     13  C   UNL     1      10.816   0.716  24.523  0.00  0.00    +0.025 C 
ATOM     14  S   UNL     1       8.297  -0.057  25.358  0.00  0.00    -0.127 S 
BRANCH  10  15
ATOM     15  C   UNL     1       8.942   1.686  22.394  0.00  0.00    +0.327 C 
ATOM     16  OXT UNL     1       8.211   2.513  22.917  0.00  0.00    -0.249 OA
BRANCH  15  17
ATOM     17  O   UNL     1       9.885   2.048  21.485  0.00  0.00    -0.479 OA
ATOM     18  H   UNL     1      10.735   2.238  21.931  0.00  0.00    +0.295 HD
ENDBRANCH  15  17
ENDBRANCH  10  15
ENDBRANCH   1   6
BRANCH   3  19
ATOM     19  C   UNL     1       6.647  -4.801  26.056  0.00  0.00    +0.106 A 
ATOM     20  C   UNL     1       5.852  -5.463  27.065  0.00  0.00    +0.127 A 
ATOM     21  N   UNL     1       6.675  -6.033  27.964  0.00  0.00    -0.077 NA
ATOM     22  O   UNL     1       7.954  -5.864  27.523  0.00  0.00    -0.359 OA
ATOM     23  C   UNL     1       7.952  -5.137  26.384  0.00  0.00    +0.147 A 
ATOM     24  C   UNL     1       9.292  -4.904  25.805  0.00  0.00    +0.090 C 
BRANCH  20  25
ATOM     25  C   UNL     1       4.393  -5.509  27.303  0.00  0.00    +0.023 A 
ATOM     26  C   UNL     1       3.523  -6.352  26.572  0.00  0.00    +0.050 A 
ATOM     27 CL   UNL     1       3.998  -7.253  25.166  0.00  0.00    -0.083 Cl
ATOM     28  C   UNL     1       2.170  -6.479  26.928  0.00  0.00    +0.020 A 
ATOM     29  C   UNL     1       1.642  -5.738  27.979  0.00  0.00    +0.001 A 
ATOM     30  C   UNL     1       2.467  -4.860  28.674  0.00  0.00    +0.001 A 
ATOM     31  C   UNL     1       3.827  -4.760  28.352  0.00  0.00    +0.011 A 
ENDBRANCH  20  25
ENDBRANCH   3  19
TORSDOF 5
ENDMDL
MODEL 6
REMARK VINA RESULT:      -7.1      3.680      7.753
REMARK  Name = 
REMARK  8 active torsions:
REMARK  status: ('A' for Active; 'I' for Inactive)
REMARK    1  A    between atoms: C_4  and  C_5
REMARK    2  A    between atoms: C_4  and  C_6
REMARK    3  A    between atoms: CA_7  and  C_30
REMARK    4  A    between atoms: CA_12  and  N_14
REMARK    5  A    between atoms: C_15  and  C_17
REMARK    6  A    between atoms: C_18  and  C_19
REMARK    7  A    between atoms: C_22  and  C_23
REMARK    8  A    between atoms: C_30  and  O_31
REMARK                            x       y       z     vdW  Elec       q    Type
REMARK                         _______ _______ _______ _____ _____    ______ ____
ROOT
ATOM      1  N   UNL     1       6.252  -0.152  25.784  0.00  0.00    -0.298 N 
ATOM      2  H   UNL     1       5.754  -0.470  24.962  0.00  0.00    +0.150 HD
ATOM      3  C   UNL     1       6.162   1.192  26.091  0.00  0.00    +0.250 C 
ATOM      4  O   UNL     1       6.521   1.625  27.180  0.00  0.00    -0.270 OA
ENDROOT
BRANCH   1   6
ATOM      5  C   UNL     1       6.418  -2.644  26.430  0.00  0.00    +0.165 C 
ATOM      6  CA  UNL     1       6.704  -1.161  26.780  0.00  0.00    +0.190 C 
ATOM      7  C   UNL     1       8.195  -1.585  26.690  0.00  0.00    +0.240 C 
ATOM      8  O   UNL     1       9.260  -1.024  26.559  0.00  0.00    -0.273 OA
ATOM      9  N   UNL     1       7.869  -2.909  26.551  0.00  0.00    -0.271 N 
ATOM     10  CA  UNL     1       8.486  -3.711  25.471  0.00  0.00    +0.201 C 
ATOM     11  C   UNL     1       7.732  -3.369  24.162  0.00  0.00    +0.042 C 
ATOM     12  C   UNL     1       8.287  -2.091  23.499  0.00  0.00    +0.025 C 
ATOM     13  C   UNL     1       7.727  -4.453  23.079  0.00  0.00    +0.025 C 
ATOM     14  S   UNL     1       5.989  -3.022  24.683  0.00  0.00    -0.127 S 
BRANCH  10  15
ATOM     15  C   UNL     1       8.453  -5.192  25.892  0.00  0.00    +0.327 C 
ATOM     16  OXT UNL     1       7.477  -5.765  26.352  0.00  0.00    -0.249 OA
BRANCH  15  17
ATOM     17  O   UNL     1       9.605  -5.861  25.625  0.00  0.00    -0.479 OA
ATOM     18  H   UNL     1      10.342  -5.232  25.490  0.00  0.00    +0.295 HD
ENDBRANCH  15  17
ENDBRANCH  10  15
ENDBRANCH   1   6
BRANCH   3  19
ATOM     19  C   UNL     1       5.571   2.010  25.050  0.00  0.00    +0.106 A 
ATOM     20  C   UNL     1       6.111   2.457  23.786  0.00  0.00    +0.127 A 
ATOM     21  N   UNL     1       5.220   3.272  23.195  0.00  0.00    -0.077 NA
ATOM     22  O   UNL     1       4.093   3.282  23.962  0.00  0.00    -0.359 OA
ATOM     23  C   UNL     1       4.286   2.530  25.067  0.00  0.00    +0.147 A 
ATOM     24  C   UNL     1       3.117   2.458  25.970  0.00  0.00    +0.090 C 
BRANCH  20  25
ATOM     25  C   UNL     1       7.432   2.261  23.149  0.00  0.00    +0.023 A 
ATOM     26  C   UNL     1       8.625   2.810  23.674  0.00  0.00    +0.050 A 
ATOM     27 CL   UNL     1       8.675   3.960  24.973  0.00  0.00    -0.083 Cl
ATOM     28  C   UNL     1       9.876   2.478  23.128  0.00  0.00    +0.020 A 
ATOM     29  C   UNL     1       9.966   1.638  22.023  0.00  0.00    +0.001 A 
ATOM     30  C   UNL     1       8.801   1.134  21.456  0.00  0.00    +0.001 A 
ATOM     31  C   UNL     1       7.552   1.427  22.022  0.00  0.00    +0.011 A 
ENDBRANCH  20  25
ENDBRANCH   3  19
TORSDOF 5
ENDMDL
MODEL 7
REMARK VINA RESULT:      -7.1      2.494      3.435
REMARK  Name = 
REMARK  8 active torsions:
REMARK  status: ('A' for Active; 'I' for Inactive)
REMARK    1  A    between atoms: C_4  and  C_5
REMARK    2  A    between atoms: C_4  and  C_6
REMARK    3  A    between atoms: CA_7  and  C_30
REMARK    4  A    between atoms: CA_12  and  N_14
REMARK    5  A    between atoms: C_15  and  C_17
REMARK    6  A    between atoms: C_18  and  C_19
REMARK    7  A    between atoms: C_22  and  C_23
REMARK    8  A    between atoms: C_30  and  O_31
REMARK                            x       y       z     vdW  Elec       q    Type
REMARK                         _______ _______ _______ _____ _____    ______ ____
ROOT
ATOM      1  N   UNL     1       7.571  -3.303  24.180  0.00  0.00    -0.298 N 
ATOM      2  H   UNL     1       7.264  -2.916  23.297  0.00  0.00    +0.150 HD
ATOM      3  C   UNL     1       7.060  -4.537  24.537  0.00  0.00    +0.250 C 
ATOM      4  O   UNL     1       7.545  -5.190  25.452  0.00  0.00    -0.270 OA
ENDROOT
BRANCH   1   6
ATOM      5  C   UNL     1       9.681  -1.841  23.928  0.00  0.00    +0.165 C 
ATOM      6  CA  UNL     1       8.788  -2.737  24.823  0.00  0.00    +0.190 C 
ATOM      7  C   UNL     1       8.578  -1.440  25.651  0.00  0.00    +0.240 C 
ATOM      8  O   UNL     1       7.783  -1.043  26.474  0.00  0.00    -0.273 OA
ATOM      9  N   UNL     1       9.510  -0.754  24.918  0.00  0.00    -0.271 N 
ATOM     10  CA  UNL     1       9.183   0.585  24.377  0.00  0.00    +0.201 C 
ATOM     11  C   UNL     1       8.319   0.366  23.111  0.00  0.00    +0.042 C 
ATOM     12  C   UNL     1       6.829   0.168  23.461  0.00  0.00    +0.025 C 
ATOM     13  C   UNL     1       8.373   1.475  22.054  0.00  0.00    +0.025 C 
ATOM     14  S   UNL     1       8.938  -1.213  22.368  0.00  0.00    -0.127 S 
BRANCH  10  15
ATOM     15  C   UNL     1      10.501   1.353  24.161  0.00  0.00    +0.327 C 
ATOM     16  OXT UNL     1      10.581   2.492  23.729  0.00  0.00    -0.249 OA
BRANCH  15  17
ATOM     17  O   UNL     1      11.601   0.676  24.581  0.00  0.00    -0.479 OA
ATOM     18  H   UNL     1      12.064   1.176  25.283  0.00  0.00    +0.295 HD
ENDBRANCH  15  17
ENDBRANCH  10  15
ENDBRANCH   1   6
BRANCH   3  19
ATOM     19  C   UNL     1       5.958  -4.993  23.713  0.00  0.00    +0.106 A 
ATOM     20  C   UNL     1       4.537  -5.028  23.979  0.00  0.00    +0.127 A 
ATOM     21  N   UNL     1       3.915  -5.621  22.944  0.00  0.00    -0.077 NA
ATOM     22  O   UNL     1       4.848  -5.867  21.982  0.00  0.00    -0.359 OA
ATOM     23  C   UNL     1       6.069  -5.493  22.424  0.00  0.00    +0.147 A 
ATOM     24  C   UNL     1       7.163  -5.702  21.452  0.00  0.00    +0.090 C 
BRANCH  20  25
ATOM     25  C   UNL     1       3.743  -4.645  25.166  0.00  0.00    +0.023 A 
ATOM     26  C   UNL     1       3.825  -5.336  26.398  0.00  0.00    +0.050 A 
ATOM     27 CL   UNL     1       4.669  -6.836  26.616  0.00  0.00    -0.083 Cl
ATOM     28  C   UNL     1       3.170  -4.852  27.543  0.00  0.00    +0.020 A 
ATOM     29  C   UNL     1       2.384  -3.708  27.479  0.00  0.00    +0.001 A 
ATOM     30  C   UNL     1       2.243  -3.047  26.264  0.00  0.00    +0.001 A 
ATOM     31  C   UNL     1       2.927  -3.499  25.127  0.00  0.00    +0.011 A 
ENDBRANCH  20  25
ENDBRANCH   3  19
TORSDOF 5
ENDMDL
MODEL 8
REMARK VINA RESULT:      -7.1      2.514      3.651
REMARK  Name = 
REMARK  8 active torsions:
REMARK  status: ('A' for Active; 'I' for Inactive)
REMARK    1  A    between atoms: C_4  and  C_5
REMARK    2  A    between atoms: C_4  and  C_6
REMARK    3  A    between atoms: CA_7  and  C_30
REMARK    4  A    between atoms: CA_12  and  N_14
REMARK    5  A    between atoms: C_15  and  C_17
REMARK    6  A    between atoms: C_18  and  C_19
REMARK    7  A    between atoms: C_22  and  C_23
REMARK    8  A    between atoms: C_30  and  O_31
REMARK                            x       y       z     vdW  Elec       q    Type
REMARK                         _______ _______ _______ _____ _____    ______ ____
ROOT
ATOM      1  N   UNL     1       6.914  -2.473  26.457  0.00  0.00    -0.298 N 
ATOM      2  H   UNL     1       7.704  -3.103  26.393  0.00  0.00    +0.150 HD
ATOM      3  C   UNL     1       5.722  -3.005  26.911  0.00  0.00    +0.250 C 
ATOM      4  O   UNL     1       4.789  -2.288  27.248  0.00  0.00    -0.270 OA
ENDROOT
BRANCH   1   6
ATOM      5  C   UNL     1       8.457  -0.545  25.712  0.00  0.00    +0.165 C 
ATOM      6  CA  UNL     1       7.166  -1.007  26.436  0.00  0.00    +0.190 C 
ATOM      7  C   UNL     1       6.436  -0.207  25.322  0.00  0.00    +0.240 C 
ATOM      8  O   UNL     1       5.318  -0.168  24.860  0.00  0.00    -0.273 OA
ATOM      9  N   UNL     1       7.613   0.300  24.837  0.00  0.00    -0.271 N 
ATOM     10  CA  UNL     1       7.900   0.238  23.386  0.00  0.00    +0.201 C 
ATOM     11  C   UNL     1       8.371  -1.205  23.076  0.00  0.00    +0.042 C 
ATOM     12  C   UNL     1       7.181  -2.162  22.858  0.00  0.00    +0.025 C 
ATOM     13  C   UNL     1       9.290  -1.372  21.860  0.00  0.00    +0.025 C 
ATOM     14  S   UNL     1       9.270  -1.759  24.597  0.00  0.00    -0.127 S 
BRANCH  10  15
ATOM     15  C   UNL     1       8.904   1.355  23.045  0.00  0.00    +0.327 C 
ATOM     16  OXT UNL     1       9.917   1.601  23.681  0.00  0.00    -0.249 OA
BRANCH  15  17
ATOM     17  O   UNL     1       8.614   2.016  21.894  0.00  0.00    -0.479 OA
ATOM     18  H   UNL     1       7.671   1.899  21.660  0.00  0.00    +0.295 HD
ENDBRANCH  15  17
ENDBRANCH  10  15
ENDBRANCH   1   6
BRANCH   3  19
ATOM     19  C   UNL     1       5.702  -4.453  26.993  0.00  0.00    +0.106 A 
ATOM     20  C   UNL     1       5.890  -5.456  25.969  0.00  0.00    +0.127 A 
ATOM     21  N   UNL     1       5.693  -6.672  26.509  0.00  0.00    -0.077 NA
ATOM     22  O   UNL     1       5.499  -6.507  27.848  0.00  0.00    -0.359 OA
ATOM     23  C   UNL     1       5.507  -5.190  28.152  0.00  0.00    +0.147 A 
ATOM     24  C   UNL     1       5.318  -4.892  29.587  0.00  0.00    +0.090 C 
BRANCH  20  25
ATOM     25  C   UNL     1       6.133  -5.351  24.514  0.00  0.00    +0.023 A 
ATOM     26  C   UNL     1       7.426  -5.424  23.945  0.00  0.00    +0.050 A 
ATOM     27 CL   UNL     1       8.895  -5.408  24.870  0.00  0.00    -0.083 Cl
ATOM     28  C   UNL     1       7.602  -5.472  22.553  0.00  0.00    +0.020 A 
ATOM     29  C   UNL     1       6.509  -5.398  21.698  0.00  0.00    +0.001 A 
ATOM     30  C   UNL     1       5.233  -5.267  22.235  0.00  0.00    +0.001 A 
ATOM     31  C   UNL     1       5.046  -5.261  23.624  0.00  0.00    +0.011 A 
ENDBRANCH  20  25
ENDBRANCH   3  19
TORSDOF 5
ENDMDL
MODEL 9
REMARK VINA RESULT:      -7.0      4.165      8.165
REMARK  Name = 
REMARK  8 active torsions:
REMARK  status: ('A' for Active; 'I' for Inactive)
REMARK    1  A    between atoms: C_4  and  C_5
REMARK    2  A    between atoms: C_4  and  C_6
REMARK    3  A    between atoms: CA_7  and  C_30
REMARK    4  A    between atoms: CA_12  and  N_14
REMARK    5  A    between atoms: C_15  and  C_17
REMARK    6  A    between atoms: C_18  and  C_19
REMARK    7  A    between atoms: C_22  and  C_23
REMARK    8  A    between atoms: C_30  and  O_31
REMARK                            x       y       z     vdW  Elec       q    Type
REMARK                         _______ _______ _______ _____ _____    ______ ____
ROOT
ATOM      1  N   UNL     1       7.591   2.786  25.480  0.00  0.00    -0.298 N 
ATOM      2  H   UNL     1       8.420   2.332  25.842  0.00  0.00    +0.150 HD
ATOM      3  C   UNL     1       7.745   3.561  24.346  0.00  0.00    +0.250 C 
ATOM      4  O   UNL     1       6.778   3.949  23.701  0.00  0.00    -0.270 OA
ENDROOT
BRANCH   1   6
ATOM      5  C   UNL     1       5.726   1.019  25.253  0.00  0.00    +0.165 C 
ATOM      6  CA  UNL     1       6.258   2.306  25.934  0.00  0.00    +0.190 C 
ATOM      7  C   UNL     1       6.249   1.445  27.226  0.00  0.00    +0.240 C 
ATOM      8  O   UNL     1       6.762   1.501  28.321  0.00  0.00    -0.273 OA
ATOM      9  N   UNL     1       5.621   0.403  26.595  0.00  0.00    -0.271 N 
ATOM     10  CA  UNL     1       6.153  -0.972  26.733  0.00  0.00    +0.201 C 
ATOM     11  C   UNL     1       7.361  -1.091  25.771  0.00  0.00    +0.042 C 
ATOM     12  C   UNL     1       8.658  -0.549  26.409  0.00  0.00    +0.025 C 
ATOM     13  C   UNL     1       7.685  -2.499  25.260  0.00  0.00    +0.025 C 
ATOM     14  S   UNL     1       6.944  -0.004  24.331  0.00  0.00    -0.127 S 
BRANCH  10  15
ATOM     15  C   UNL     1       5.001  -1.962  26.482  0.00  0.00    +0.327 C 
ATOM     16  OXT UNL     1       4.207  -1.890  25.557  0.00  0.00    -0.249 OA
BRANCH  15  17
ATOM     17  O   UNL     1       4.984  -3.008  27.349  0.00  0.00    -0.479 OA
ATOM     18  H   UNL     1       4.670  -2.718  28.230  0.00  0.00    +0.295 HD
ENDBRANCH  15  17
ENDBRANCH  10  15
ENDBRANCH   1   6
BRANCH   3  19
ATOM     19  C   UNL     1       9.122   3.820  23.975  0.00  0.00    +0.106 A 
ATOM     20  C   UNL     1      10.084   2.986  23.292  0.00  0.00    +0.127 A 
ATOM     21  N   UNL     1      11.266   3.626  23.252  0.00  0.00    -0.077 NA
ATOM     22  O   UNL     1      11.083   4.871  23.775  0.00  0.00    -0.359 OA
ATOM     23  C   UNL     1       9.808   5.003  24.205  0.00  0.00    +0.147 A 
ATOM     24  C   UNL     1       9.491   6.326  24.782  0.00  0.00    +0.090 C 
BRANCH  20  25
ATOM     25  C   UNL     1      10.004   1.603  22.774  0.00  0.00    +0.023 A 
ATOM     26  C   UNL     1      10.550   0.493  23.461  0.00  0.00    +0.050 A 
ATOM     27 CL   UNL     1      11.575   0.624  24.856  0.00  0.00    -0.083 Cl
ATOM     28  C   UNL     1      10.323  -0.819  23.013  0.00  0.00    +0.020 A 
ATOM     29  C   UNL     1       9.595  -1.055  21.853  0.00  0.00    +0.001 A 
ATOM     30  C   UNL     1       9.099   0.024  21.130  0.00  0.00    +0.001 A 
ATOM     31  C   UNL     1       9.285   1.334  21.594  0.00  0.00    +0.011 A 
ENDBRANCH  20  25
ENDBRANCH   3  19
TORSDOF 5
ENDMDL
