MODEL 1
REMARK VINA RESULT:      -7.4      0.000      0.000
REMARK  Name = 
REMARK  5 active torsions:
REMARK  status: ('A' for Active; 'I' for Inactive)
REMARK    1  A    between atoms: O_1  and  C_2
REMARK    2  A    between atoms: C_2  and  C_4
REMARK    3  A    between atoms: C_4  and  N_5
REMARK    4  A    between atoms: N_8  and  C_9
REMARK    5  A    between atoms: C_9  and  C_10
REMARK                            x       y       z     vdW  Elec       q    Type
REMARK                         _______ _______ _______ _____ _____    ______ ____
ROOT
ATOM      1  N   UNL     1       6.637  -4.094  25.951  0.00  0.00    -0.282 N 
ATOM      2  C   UNL     1       5.723  -4.557  24.959  0.00  0.00    +0.061 A 
ATOM      3  C   UNL     1       4.479  -5.126  25.278  0.00  0.00    +0.046 A 
ATOM      4  C   UNL     1       3.707  -5.737  24.284  0.00  0.00    +0.043 A 
ATOM      5  C   UNL     1       4.131  -5.743  22.959  0.00  0.00    +0.021 A 
ATOM      6  C   UNL     1       5.323  -5.105  22.619  0.00  0.00    +0.017 A 
ATOM      7 CL   UNL     1       2.242  -6.530  24.712  0.00  0.00    -0.083 Cl
ATOM      8  C   UNL     1       6.111  -4.514  23.619  0.00  0.00    +0.063 A 
ATOM      9  C   UNL     1       7.373  -3.836  23.256  0.00  0.00    +0.265 A 
ATOM     10  O   UNL     1       7.653  -3.707  22.068  0.00  0.00    -0.267 OA
ATOM     11  N   UNL     1       8.184  -3.423  24.303  0.00  0.00    -0.256 N 
ATOM     12  C   UNL     1       7.955  -3.782  25.619  0.00  0.00    +0.333 A 
ATOM     13  O   UNL     1       8.854  -3.807  26.459  0.00  0.00    -0.246 OA
ENDROOT
BRANCH   1  14
ATOM     14  C   UNL     1       6.288  -4.089  27.379  0.00  0.00    +0.247 C 
BRANCH  14  15
ATOM     15  C   UNL     1       6.383  -5.475  28.012  0.00  0.00    +0.325 C 
ATOM     16  O   UNL     1       5.454  -6.005  28.613  0.00  0.00    -0.249 OA
BRANCH  15  17
ATOM     17  O   UNL     1       7.591  -6.081  27.892  0.00  0.00    -0.479 OA
ATOM     18  H   UNL     1       8.065  -5.827  27.075  0.00  0.00    +0.295 HD
ENDBRANCH  15  17
ENDBRANCH  14  15
ENDBRANCH   1  14
BRANCH  11  19
ATOM     19  C   UNL     1       9.507  -2.901  23.977  0.00  0.00    +0.168 C 
BRANCH  19  20
ATOM     20  C   UNL     1       9.604  -1.395  23.814  0.00  0.00    +0.008 A 
ATOM     21  C   UNL     1       9.708  -0.567  24.946  0.00  0.00    +0.009 A 
ATOM     22  C   UNL     1       9.999   0.797  24.811  0.00  0.00    +0.016 A 
ATOM     23  C   UNL     1      10.191   1.345  23.545  0.00  0.00    +0.021 A 
ATOM     24 BR   UNL     1      10.702   3.159  23.376  0.00  0.00    -0.050 Br
ATOM     25  C   UNL     1      10.040   0.556  22.407  0.00  0.00    +0.054 A 
ATOM     26  C   UNL     1       9.745  -0.801  22.552  0.00  0.00    +0.129 A 
ATOM     27  F   UNL     1       9.632  -1.551  21.448  0.00  0.00    -0.205 F 
ENDBRANCH  19  20
ENDBRANCH  11  19
TORSDOF 5
ENDMDL
MODEL 2
REMARK VINA RESULT:      -7.4      1.661      3.455
REMARK  Name = 
REMARK  5 active torsions:
REMARK  status: ('A' for Active; 'I' for Inactive)
REMARK    1  A    between atoms: O_1  and  C_2
REMARK    2  A    between atoms: C_2  and  C_4
REMARK    3  A    between atoms: C_4  and  N_5
REMARK    4  A    between atoms: N_8  and  C_9
REMARK    5  A    between atoms: C_9  and  C_10
REMARK                            x       y       z     vdW  Elec       q    Type
REMARK                         _______ _______ _______ _____ _____    ______ ____
ROOT
ATOM      1  N   UNL     1       6.560  -4.349  23.391  0.00  0.00    -0.282 N 
ATOM      2  C   UNL     1       6.384  -4.919  24.685  0.00  0.00    +0.061 A 
ATOM      3  C   UNL     1       5.243  -5.655  25.044  0.00  0.00    +0.046 A 
ATOM      4  C   UNL     1       5.031  -6.028  26.376  0.00  0.00    +0.043 A 
ATOM      5  C   UNL     1       5.971  -5.724  27.355  0.00  0.00    +0.021 A 
ATOM      6  C   UNL     1       7.148  -5.069  26.995  0.00  0.00    +0.017 A 
ATOM      7 CL   UNL     1       3.572  -6.827  26.815  0.00  0.00    -0.083 Cl
ATOM      8  C   UNL     1       7.349  -4.672  25.664  0.00  0.00    +0.063 A 
ATOM      9  C   UNL     1       8.598  -3.981  25.283  0.00  0.00    +0.265 A 
ATOM     10  O   UNL     1       9.487  -3.864  26.122  0.00  0.00    -0.267 OA
ATOM     11  N   UNL     1       8.662  -3.468  23.996  0.00  0.00    -0.256 N 
ATOM     12  C   UNL     1       7.567  -3.413  23.152  0.00  0.00    +0.333 A 
ATOM     13  O   UNL     1       7.488  -2.603  22.230  0.00  0.00    -0.246 OA
ENDROOT
BRANCH   1  14
ATOM     14  C   UNL     1       5.595  -4.584  22.307  0.00  0.00    +0.247 C 
BRANCH  14  15
ATOM     15  C   UNL     1       6.047  -5.680  21.346  0.00  0.00    +0.325 C 
ATOM     16  O   UNL     1       6.030  -5.553  20.125  0.00  0.00    -0.249 OA
BRANCH  15  17
ATOM     17  O   UNL     1       6.447  -6.835  21.936  0.00  0.00    -0.479 OA
ATOM     18  H   UNL     1       7.419  -6.910  22.003  0.00  0.00    +0.295 HD
ENDBRANCH  15  17
ENDBRANCH  14  15
ENDBRANCH   1  14
BRANCH  11  19
ATOM     19  C   UNL     1       9.811  -2.641  23.646  0.00  0.00    +0.168 C 
BRANCH  19  20
ATOM     20  C   UNL     1       9.577  -1.140  23.658  0.00  0.00    +0.008 A 
ATOM     21  C   UNL     1       9.266  -0.484  24.863  0.00  0.00    +0.009 A 
ATOM     22  C   UNL     1       9.244   0.915  24.931  0.00  0.00    +0.016 A 
ATOM     23  C   UNL     1       9.537   1.671  23.798  0.00  0.00    +0.021 A 
ATOM     24 BR   UNL     1       9.624   3.557  23.925  0.00  0.00    -0.050 Br
ATOM     25  C   UNL     1       9.795   1.042  22.582  0.00  0.00    +0.054 A 
ATOM     26  C   UNL     1       9.808  -0.353  22.524  0.00  0.00    +0.129 A 
ATOM     27  F   UNL     1      10.088  -0.939  21.352  0.00  0.00    -0.205 F 
ENDBRANCH  19  20
ENDBRANCH  11  19
TORSDOF 5
ENDMDL
MODEL 3
REMARK VINA RESULT:      -7.3      1.424      1.653
REMARK  Name = 
REMARK  5 active torsions:
REMARK  status: ('A' for Active; 'I' for Inactive)
REMARK    1  A    between atoms: O_1  and  C_2
REMARK    2  A    between atoms: C_2  and  C_4
REMARK    3  A    between atoms: C_4  and  N_5
REMARK    4  A    between atoms: N_8  and  C_9
REMARK    5  A    between atoms: C_9  and  C_10
REMARK                            x       y       z     vdW  Elec       q    Type
REMARK                         _______ _______ _______ _____ _____    ______ ____
ROOT
ATOM      1  N   UNL     1       6.697  -3.898  25.374  0.00  0.00    -0.282 N 
ATOM      2  C   UNL     1       5.385  -4.339  25.037  0.00  0.00    +0.061 A 
ATOM      3  C   UNL     1       4.524  -4.947  25.965  0.00  0.00    +0.046 A 
ATOM      4  C   UNL     1       3.326  -5.532  25.540  0.00  0.00    +0.043 A 
ATOM      5  C   UNL     1       2.943  -5.475  24.205  0.00  0.00    +0.021 A 
ATOM      6  C   UNL     1       3.748  -4.798  23.290  0.00  0.00    +0.017 A 
ATOM      7 CL   UNL     1       2.342  -6.374  26.673  0.00  0.00    -0.083 Cl
ATOM      8  C   UNL     1       4.962  -4.233  23.710  0.00  0.00    +0.063 A 
ATOM      9  C   UNL     1       5.813  -3.513  22.739  0.00  0.00    +0.265 A 
ATOM     10  O   UNL     1       5.387  -3.329  21.603  0.00  0.00    -0.267 OA
ATOM     11  N   UNL     1       7.071  -3.127  23.178  0.00  0.00    -0.256 N 
ATOM     12  C   UNL     1       7.611  -3.545  24.381  0.00  0.00    +0.333 A 
ATOM     13  O   UNL     1       8.825  -3.586  24.578  0.00  0.00    -0.246 OA
ENDROOT
BRANCH   1  14
ATOM     14  C   UNL     1       7.201  -3.961  26.754  0.00  0.00    +0.247 C 
BRANCH  14  15
ATOM     15  C   UNL     1       7.611  -5.372  27.167  0.00  0.00    +0.325 C 
ATOM     16  O   UNL     1       7.122  -5.960  28.127  0.00  0.00    -0.249 OA
BRANCH  15  17
ATOM     17  O   UNL     1       8.589  -5.932  26.411  0.00  0.00    -0.479 OA
ATOM     18  H   UNL     1       9.344  -6.251  26.942  0.00  0.00    +0.295 HD
ENDBRANCH  15  17
ENDBRANCH  14  15
ENDBRANCH   1  14
BRANCH  11  19
ATOM     19  C   UNL     1       7.993  -2.564  22.197  0.00  0.00    +0.168 C 
BRANCH  19  20
ATOM     20  C   UNL     1       8.390  -1.114  22.415  0.00  0.00    +0.008 A 
ATOM     21  C   UNL     1       7.421  -0.165  22.786  0.00  0.00    +0.009 A 
ATOM     22  C   UNL     1       7.797   1.124  23.185  0.00  0.00    +0.016 A 
ATOM     23  C   UNL     1       9.146   1.475  23.221  0.00  0.00    +0.021 A 
ATOM     24 BR   UNL     1       9.655   3.176  23.875  0.00  0.00    -0.050 Br
ATOM     25  C   UNL     1      10.118   0.568  22.807  0.00  0.00    +0.054 A 
ATOM     26  C   UNL     1       9.732  -0.712  22.406  0.00  0.00    +0.129 A 
ATOM     27  F   UNL     1      10.684  -1.581  22.040  0.00  0.00    -0.205 F 
ENDBRANCH  19  20
ENDBRANCH  11  19
TORSDOF 5
ENDMDL
MODEL 4
REMARK VINA RESULT:      -7.0      3.214      4.229
REMARK  Name = 
REMARK  5 active torsions:
REMARK  status: ('A' for Active; 'I' for Inactive)
REMARK    1  A    between atoms: O_1  and  C_2
REMARK    2  A    between atoms: C_2  and  C_4
REMARK    3  A    between atoms: C_4  and  N_5
REMARK    4  A    between atoms: N_8  and  C_9
REMARK    5  A    between atoms: C_9  and  C_10
REMARK                            x       y       z     vdW  Elec       q    Type
REMARK                         _______ _______ _______ _____ _____    ______ ____
ROOT
ATOM      1  N   UNL     1       8.857  -1.205  25.516  0.00  0.00    -0.282 N 
ATOM      2  C   UNL     1       8.219  -2.331  24.919  0.00  0.00    +0.061 A 
ATOM      3  C   UNL     1       7.598  -3.341  25.671  0.00  0.00    +0.046 A 
ATOM      4  C   UNL     1       7.159  -4.515  25.049  0.00  0.00    +0.043 A 
ATOM      5  C   UNL     1       7.279  -4.678  23.673  0.00  0.00    +0.021 A 
ATOM      6  C   UNL     1       7.815  -3.645  22.906  0.00  0.00    +0.017 A 
ATOM      7 CL   UNL     1       6.507  -5.790  26.003  0.00  0.00    -0.083 Cl
ATOM      8  C   UNL     1       8.280  -2.477  23.531  0.00  0.00    +0.063 A 
ATOM      9  C   UNL     1       8.845  -1.382  22.716  0.00  0.00    +0.265 A 
ATOM     10  O   UNL     1       8.796  -1.470  21.493  0.00  0.00    -0.267 OA
ATOM     11  N   UNL     1       9.438  -0.333  23.404  0.00  0.00    -0.256 N 
ATOM     12  C   UNL     1       9.682  -0.367  24.765  0.00  0.00    +0.333 A 
ATOM     13  O   UNL     1      10.560   0.314  25.293  0.00  0.00    -0.246 OA
ENDROOT
BRANCH   1  14
ATOM     14  C   UNL     1       8.815  -0.975  26.968  0.00  0.00    +0.247 C 
BRANCH  14  15
ATOM     15  C   UNL     1       7.720   0.007  27.377  0.00  0.00    +0.325 C 
ATOM     16  O   UNL     1       6.709   0.202  26.710  0.00  0.00    -0.249 OA
BRANCH  15  17
ATOM     17  O   UNL     1       7.955   0.682  28.530  0.00  0.00    -0.479 OA
ATOM     18  H   UNL     1       7.624   1.602  28.506  0.00  0.00    +0.295 HD
ENDBRANCH  15  17
ENDBRANCH  14  15
ENDBRANCH   1  14
BRANCH  11  19
ATOM     19  C   UNL     1      10.147   0.678  22.628  0.00  0.00    +0.168 C 
BRANCH  19  20
ATOM     20  C   UNL     1       9.552   2.075  22.656  0.00  0.00    +0.008 A 
ATOM     21  C   UNL     1       8.267   2.306  22.132  0.00  0.00    +0.009 A 
ATOM     22  C   UNL     1       7.624   3.534  22.329  0.00  0.00    +0.016 A 
ATOM     23  C   UNL     1       8.257   4.543  23.054  0.00  0.00    +0.021 A 
ATOM     24 BR   UNL     1       7.336   6.155  23.418  0.00  0.00    -0.050 Br
ATOM     25  C   UNL     1       9.550   4.355  23.536  0.00  0.00    +0.054 A 
ATOM     26  C   UNL     1      10.184   3.128  23.329  0.00  0.00    +0.129 A 
ATOM     27  F   UNL     1      11.417   2.956  23.826  0.00  0.00    -0.205 F 
ENDBRANCH  19  20
ENDBRANCH  11  19
TORSDOF 5
ENDMDL
MODEL 5
REMARK VINA RESULT:      -7.0      1.341      1.651
REMARK  Name = 
REMARK  5 active torsions:
REMARK  status: ('A' for Active; 'I' for Inactive)
REMARK    1  A    between atoms: O_1  and  C_2
REMARK    2  A    between atoms: C_2  and  C_4
REMARK    3  A    between atoms: C_4  and  N_5
REMARK    4  A    between atoms: N_8  and  C_9
REMARK    5  A    between atoms: C_9  and  C_10
REMARK                            x       y       z     vdW  Elec       q    Type
REMARK                         _______ _______ _______ _____ _____    ______ ____
ROOT
ATOM      1  N   UNL     1       6.973  -3.971  25.661  0.00  0.00    -0.282 N 
ATOM      2  C   UNL     1       6.212  -4.458  24.559  0.00  0.00    +0.061 A 
ATOM      3  C   UNL     1       5.055  -5.238  24.719  0.00  0.00    +0.046 A 
ATOM      4  C   UNL     1       4.457  -5.850  23.612  0.00  0.00    +0.043 A 
ATOM      5  C   UNL     1       4.963  -5.652  22.331  0.00  0.00    +0.021 A 
ATOM      6  C   UNL     1       6.059  -4.810  22.152  0.00  0.00    +0.017 A 
ATOM      7 CL   UNL     1       3.110  -6.895  23.842  0.00  0.00    -0.083 Cl
ATOM      8  C   UNL     1       6.677  -4.217  23.264  0.00  0.00    +0.063 A 
ATOM      9  C   UNL     1       7.836  -3.322  23.071  0.00  0.00    +0.265 A 
ATOM     10  O   UNL     1       8.171  -3.028  21.928  0.00  0.00    -0.267 OA
ATOM     11  N   UNL     1       8.501  -2.905  24.216  0.00  0.00    -0.256 N 
ATOM     12  C   UNL     1       8.245  -3.431  25.469  0.00  0.00    +0.333 A 
ATOM     13  O   UNL     1       9.079  -3.409  26.373  0.00  0.00    -0.246 OA
ENDROOT
BRANCH   1  14
ATOM     14  C   UNL     1       6.534  -4.170  27.049  0.00  0.00    +0.247 C 
BRANCH  14  15
ATOM     15  C   UNL     1       6.799  -5.586  27.553  0.00  0.00    +0.325 C 
ATOM     16  O   UNL     1       5.916  -6.325  27.978  0.00  0.00    -0.249 OA
BRANCH  15  17
ATOM     17  O   UNL     1       8.100  -5.972  27.527  0.00  0.00    -0.479 OA
ATOM     18  H   UNL     1       8.634  -5.558  28.233  0.00  0.00    +0.295 HD
ENDBRANCH  15  17
ENDBRANCH  14  15
ENDBRANCH   1  14
BRANCH  11  19
ATOM     19  C   UNL     1       9.744  -2.158  24.050  0.00  0.00    +0.168 C 
BRANCH  19  20
ATOM     20  C   UNL     1       9.599  -0.654  23.900  0.00  0.00    +0.008 A 
ATOM     21  C   UNL     1       9.608  -0.068  22.621  0.00  0.00    +0.009 A 
ATOM     22  C   UNL     1       9.277   1.282  22.450  0.00  0.00    +0.016 A 
ATOM     23  C   UNL     1       8.930   2.059  23.555  0.00  0.00    +0.021 A 
ATOM     24 BR   UNL     1       8.368   3.848  23.304  0.00  0.00    -0.050 Br
ATOM     25  C   UNL     1       8.966   1.513  24.835  0.00  0.00    +0.054 A 
ATOM     26  C   UNL     1       9.303   0.167  24.995  0.00  0.00    +0.129 A 
ATOM     27  F   UNL     1       9.303  -0.348  26.232  0.00  0.00    -0.205 F 
ENDBRANCH  19  20
ENDBRANCH  11  19
TORSDOF 5
ENDMDL
MODEL 6
REMARK VINA RESULT:      -6.9      4.534      7.633
REMARK  Name = 
REMARK  5 active torsions:
REMARK  status: ('A' for Active; 'I' for Inactive)
REMARK    1  A    between atoms: O_1  and  C_2
REMARK    2  A    between atoms: C_2  and  C_4
REMARK    3  A    between atoms: C_4  and  N_5
REMARK    4  A    between atoms: N_8  and  C_9
REMARK    5  A    between atoms: C_9  and  C_10
REMARK                            x       y       z     vdW  Elec       q    Type
REMARK                         _______ _______ _______ _____ _____    ______ ____
ROOT
ATOM      1  N   UNL     1       9.297   0.907  24.277  0.00  0.00    -0.282 N 
ATOM      2  C   UNL     1       8.598   2.000  24.866  0.00  0.00    +0.061 A 
ATOM      3  C   UNL     1       8.833   3.337  24.505  0.00  0.00    +0.046 A 
ATOM      4  C   UNL     1       8.264   4.379  25.244  0.00  0.00    +0.043 A 
ATOM      5  C   UNL     1       7.414   4.111  26.313  0.00  0.00    +0.021 A 
ATOM      6  C   UNL     1       7.106   2.788  26.625  0.00  0.00    +0.017 A 
ATOM      7 CL   UNL     1       8.657   6.010  24.859  0.00  0.00    -0.083 Cl
ATOM      8  C   UNL     1       7.697   1.740  25.900  0.00  0.00    +0.063 A 
ATOM      9  C   UNL     1       7.366   0.339  26.231  0.00  0.00    +0.265 A 
ATOM     10  O   UNL     1       6.493   0.120  27.066  0.00  0.00    -0.267 OA
ATOM     11  N   UNL     1       8.108  -0.645  25.594  0.00  0.00    -0.256 N 
ATOM     12  C   UNL     1       9.232  -0.369  24.837  0.00  0.00    +0.333 A 
ATOM     13  O   UNL     1      10.116  -1.202  24.646  0.00  0.00    -0.246 OA
ENDROOT
BRANCH   1  14
ATOM     14  C   UNL     1      10.245   1.104  23.171  0.00  0.00    +0.247 C 
BRANCH  14  15
ATOM     15  C   UNL     1       9.602   0.896  21.802  0.00  0.00    +0.325 C 
ATOM     16  O   UNL     1       9.539  -0.197  21.247  0.00  0.00    -0.249 OA
BRANCH  15  17
ATOM     17  O   UNL     1       9.123   2.022  21.214  0.00  0.00    -0.479 OA
ATOM     18  H   UNL     1       8.922   1.899  20.266  0.00  0.00    +0.295 HD
ENDBRANCH  15  17
ENDBRANCH  14  15
ENDBRANCH   1  14
BRANCH  11  19
ATOM     19  C   UNL     1       7.918  -2.027  26.021  0.00  0.00    +0.168 C 
BRANCH  19  20
ATOM     20  C   UNL     1       7.402  -2.984  24.961  0.00  0.00    +0.008 A 
ATOM     21  C   UNL     1       6.316  -2.618  24.147  0.00  0.00    +0.009 A 
ATOM     22  C   UNL     1       5.956  -3.396  23.039  0.00  0.00    +0.016 A 
ATOM     23  C   UNL     1       6.682  -4.545  22.732  0.00  0.00    +0.021 A 
ATOM     24 BR   UNL     1       6.268  -5.525  21.167  0.00  0.00    -0.050 Br
ATOM     25  C   UNL     1       7.728  -4.956  23.555  0.00  0.00    +0.054 A 
ATOM     26  C   UNL     1       8.074  -4.176  24.660  0.00  0.00    +0.129 A 
ATOM     27  F   UNL     1       9.102  -4.572  25.423  0.00  0.00    -0.205 F 
ENDBRANCH  19  20
ENDBRANCH  11  19
TORSDOF 5
ENDMDL
MODEL 7
REMARK VINA RESULT:      -6.8      4.415      6.872
REMARK  Name = 
REMARK  5 active torsions:
REMARK  status: ('A' for Active; 'I' for Inactive)
REMARK    1  A    between atoms: O_1  and  C_2
REMARK    2  A    between atoms: C_2  and  C_4
REMARK    3  A    between atoms: C_4  and  N_5
REMARK    4  A    between atoms: N_8  and  C_9
REMARK    5  A    between atoms: C_9  and  C_10
REMARK                            x       y       z     vdW  Elec       q    Type
REMARK                         _______ _______ _______ _____ _____    ______ ____
ROOT
ATOM      1  N   UNL     1       6.952  -0.561  24.340  0.00  0.00    -0.282 N 
ATOM      2  C   UNL     1       8.221   0.084  24.293  0.00  0.00    +0.061 A 
ATOM      3  C   UNL     1       8.376   1.471  24.452  0.00  0.00    +0.046 A 
ATOM      4  C   UNL     1       9.613   2.077  24.206  0.00  0.00    +0.043 A 
ATOM      5  C   UNL     1      10.720   1.313  23.854  0.00  0.00    +0.021 A 
ATOM      6  C   UNL     1      10.598  -0.074  23.777  0.00  0.00    +0.017 A 
ATOM      7 CL   UNL     1       9.754   3.790  24.294  0.00  0.00    -0.083 Cl
ATOM      8  C   UNL     1       9.351  -0.681  23.998  0.00  0.00    +0.063 A 
ATOM      9  C   UNL     1       9.225  -2.150  23.919  0.00  0.00    +0.265 A 
ATOM     10  O   UNL     1      10.240  -2.823  23.768  0.00  0.00    -0.267 OA
ATOM     11  N   UNL     1       7.941  -2.671  23.981  0.00  0.00    -0.256 N 
ATOM     12  C   UNL     1       6.805  -1.884  23.921  0.00  0.00    +0.333 A 
ATOM     13  O   UNL     1       5.721  -2.322  23.540  0.00  0.00    -0.246 OA
ENDROOT
BRANCH   1  14
ATOM     14  C   UNL     1       5.722   0.177  24.665  0.00  0.00    +0.247 C 
BRANCH  14  15
ATOM     15  C   UNL     1       5.174  -0.172  26.046  0.00  0.00    +0.325 C 
ATOM     16  O   UNL     1       5.620   0.303  27.086  0.00  0.00    -0.249 OA
BRANCH  15  17
ATOM     17  O   UNL     1       4.164  -1.078  26.053  0.00  0.00    -0.479 OA
ATOM     18  H   UNL     1       4.234  -1.720  26.786  0.00  0.00    +0.295 HD
ENDBRANCH  15  17
ENDBRANCH  14  15
ENDBRANCH   1  14
BRANCH  11  19
ATOM     19  C   UNL     1       7.771  -4.100  23.740  0.00  0.00    +0.168 C 
BRANCH  19  20
ATOM     20  C   UNL     1       7.180  -4.900  24.888  0.00  0.00    +0.008 A 
ATOM     21  C   UNL     1       7.749  -4.820  26.172  0.00  0.00    +0.009 A 
ATOM     22  C   UNL     1       7.104  -5.387  27.278  0.00  0.00    +0.016 A 
ATOM     23  C   UNL     1       5.882  -6.037  27.113  0.00  0.00    +0.021 A 
ATOM     24 BR   UNL     1       4.957  -6.695  28.626  0.00  0.00    -0.050 Br
ATOM     25  C   UNL     1       5.326  -6.175  25.843  0.00  0.00    +0.054 A 
ATOM     26  C   UNL     1       5.981  -5.610  24.746  0.00  0.00    +0.129 A 
ATOM     27  F   UNL     1       5.416  -5.728  23.536  0.00  0.00    -0.205 F 
ENDBRANCH  19  20
ENDBRANCH  11  19
TORSDOF 5
ENDMDL
MODEL 8
REMARK VINA RESULT:      -6.6      2.331      3.464
REMARK  Name = 
REMARK  5 active torsions:
REMARK  status: ('A' for Active; 'I' for Inactive)
REMARK    1  A    between atoms: O_1  and  C_2
REMARK    2  A    between atoms: C_2  and  C_4
REMARK    3  A    between atoms: C_4  and  N_5
REMARK    4  A    between atoms: N_8  and  C_9
REMARK    5  A    between atoms: C_9  and  C_10
REMARK                            x       y       z     vdW  Elec       q    Type
REMARK                         _______ _______ _______ _____ _____    ______ ____
ROOT
ATOM      1  N   UNL     1       7.107  -4.013  25.168  0.00  0.00    -0.282 N 
ATOM      2  C   UNL     1       6.276  -3.579  26.241  0.00  0.00    +0.061 A 
ATOM      3  C   UNL     1       6.088  -4.332  27.411  0.00  0.00    +0.046 A 
ATOM      4  C   UNL     1       5.118  -3.956  28.346  0.00  0.00    +0.043 A 
ATOM      5  C   UNL     1       4.362  -2.803  28.160  0.00  0.00    +0.021 A 
ATOM      6  C   UNL     1       4.601  -2.001  27.045  0.00  0.00    +0.017 A 
ATOM      7 CL   UNL     1       4.821  -4.955  29.715  0.00  0.00    -0.083 Cl
ATOM      8  C   UNL     1       5.557  -2.391  26.093  0.00  0.00    +0.063 A 
ATOM      9  C   UNL     1       5.810  -1.538  24.914  0.00  0.00    +0.265 A 
ATOM     10  O   UNL     1       5.256  -0.446  24.844  0.00  0.00    -0.267 OA
ATOM     11  N   UNL     1       6.640  -2.061  23.932  0.00  0.00    -0.256 N 
ATOM     12  C   UNL     1       7.065  -3.377  23.927  0.00  0.00    +0.333 A 
ATOM     13  O   UNL     1       7.407  -3.954  22.896  0.00  0.00    -0.246 OA
ENDROOT
BRANCH   1  14
ATOM     14  C   UNL     1       7.909  -5.242  25.262  0.00  0.00    +0.247 C 
BRANCH  14  15
ATOM     15  C   UNL     1       9.354  -4.971  25.671  0.00  0.00    +0.325 C 
ATOM     16  O   UNL     1      10.275  -4.876  24.864  0.00  0.00    -0.249 OA
BRANCH  15  17
ATOM     17  O   UNL     1       9.565  -4.868  27.007  0.00  0.00    -0.479 OA
ATOM     18  H   UNL     1      10.329  -5.395  27.313  0.00  0.00    +0.295 HD
ENDBRANCH  15  17
ENDBRANCH  14  15
ENDBRANCH   1  14
BRANCH  11  19
ATOM     19  C   UNL     1       6.776  -1.315  22.685  0.00  0.00    +0.168 C 
BRANCH  19  20
ATOM     20  C   UNL     1       7.805  -0.198  22.690  0.00  0.00    +0.008 A 
ATOM     21  C   UNL     1       7.389   1.146  22.706  0.00  0.00    +0.009 A 
ATOM     22  C   UNL     1       8.312   2.179  22.913  0.00  0.00    +0.016 A 
ATOM     23  C   UNL     1       9.659   1.879  23.109  0.00  0.00    +0.021 A 
ATOM     24 BR   UNL     1      10.880   3.268  23.507  0.00  0.00    -0.050 Br
ATOM     25  C   UNL     1      10.101   0.560  23.044  0.00  0.00    +0.054 A 
ATOM     26  C   UNL     1       9.173  -0.462  22.832  0.00  0.00    +0.129 A 
ATOM     27  F   UNL     1       9.614  -1.727  22.802  0.00  0.00    -0.205 F 
ENDBRANCH  19  20
ENDBRANCH  11  19
TORSDOF 5
ENDMDL
MODEL 9
REMARK VINA RESULT:      -6.5      2.172      2.613
REMARK  Name = 
REMARK  5 active torsions:
REMARK  status: ('A' for Active; 'I' for Inactive)
REMARK    1  A    between atoms: O_1  and  C_2
REMARK    2  A    between atoms: C_2  and  C_4
REMARK    3  A    between atoms: C_4  and  N_5
REMARK    4  A    between atoms: N_8  and  C_9
REMARK    5  A    between atoms: C_9  and  C_10
REMARK                            x       y       z     vdW  Elec       q    Type
REMARK                         _______ _______ _______ _____ _____    ______ ____
ROOT
ATOM      1  N   UNL     1       7.040  -2.768  25.609  0.00  0.00    -0.282 N 
ATOM      2  C   UNL     1       6.747  -3.678  24.552  0.00  0.00    +0.061 A 
ATOM      3  C   UNL     1       5.745  -4.658  24.647  0.00  0.00    +0.046 A 
ATOM      4  C   UNL     1       5.627  -5.645  23.663  0.00  0.00    +0.043 A 
ATOM      5  C   UNL     1       6.461  -5.642  22.550  0.00  0.00    +0.021 A 
ATOM      6  C   UNL     1       7.401  -4.623  22.403  0.00  0.00    +0.017 A 
ATOM      7 CL   UNL     1       4.471  -6.904  23.855  0.00  0.00    -0.083 Cl
ATOM      8  C   UNL     1       7.538  -3.646  23.402  0.00  0.00    +0.063 A 
ATOM      9  C   UNL     1       8.534  -2.566  23.243  0.00  0.00    +0.265 A 
ATOM     10  O   UNL     1       9.149  -2.481  22.184  0.00  0.00    -0.267 OA
ATOM     11  N   UNL     1       8.735  -1.736  24.336  0.00  0.00    -0.256 N 
ATOM     12  C   UNL     1       8.199  -1.993  25.585  0.00  0.00    +0.333 A 
ATOM     13  O   UNL     1       8.699  -1.549  26.618  0.00  0.00    -0.246 OA
ENDROOT
BRANCH   1  14
ATOM     14  C   UNL     1       6.235  -2.731  26.839  0.00  0.00    +0.247 C 
BRANCH  14  15
ATOM     15  C   UNL     1       5.203  -1.606  26.833  0.00  0.00    +0.325 C 
ATOM     16  O   UNL     1       4.388  -1.446  25.929  0.00  0.00    -0.249 OA
BRANCH  15  17
ATOM     17  O   UNL     1       5.265  -0.762  27.894  0.00  0.00    -0.479 OA
ATOM     18  H   UNL     1       6.180  -0.595  28.194  0.00  0.00    +0.295 HD
ENDBRANCH  15  17
ENDBRANCH  14  15
ENDBRANCH   1  14
BRANCH  11  19
ATOM     19  C   UNL     1       9.824  -0.768  24.267  0.00  0.00    +0.168 C 
BRANCH  19  20
ATOM     20  C   UNL     1       9.418   0.669  23.993  0.00  0.00    +0.008 A 
ATOM     21  C   UNL     1       8.892   1.465  25.027  0.00  0.00    +0.009 A 
ATOM     22  C   UNL     1       8.700   2.840  24.846  0.00  0.00    +0.016 A 
ATOM     23  C   UNL     1       9.037   3.435  23.631  0.00  0.00    +0.021 A 
ATOM     24 BR   UNL     1       8.890   5.311  23.433  0.00  0.00    -0.050 Br
ATOM     25  C   UNL     1       9.509   2.658  22.576  0.00  0.00    +0.054 A 
ATOM     26  C   UNL     1       9.690   1.287  22.765  0.00  0.00    +0.129 A 
ATOM     27  F   UNL     1      10.174   0.561  21.748  0.00  0.00    -0.205 F 
ENDBRANCH  19  20
ENDBRANCH  11  19
TORSDOF 5
ENDMDL
