MODEL 1
REMARK VINA RESULT:      -6.5      0.000      0.000
REMARK  Name = 
REMARK  8 active torsions:
REMARK  status: ('A' for Active; 'I' for Inactive)
REMARK    1  A    between atoms: C_1  and  N_2
REMARK    2  A    between atoms: N_2  and  C_3
REMARK    3  A    between atoms: C_6  and  O_8
REMARK    4  A    between atoms: O_8  and  C_9
REMARK    5  A    between atoms: C_9  and  C_11
REMARK    6  A    between atoms: C_11  and  O_12
REMARK    7  A    between atoms: C_11  and  C_13
REMARK    8  A    between atoms: C_11  and  C_18
REMARK                            x       y       z     vdW  Elec       q    Type
REMARK                         _______ _______ _______ _____ _____    ______ ____
ROOT
ATOM      1  C   UNL     1       8.796  -4.062  24.406  0.00  0.00    +0.190 C 
ENDROOT
BRANCH   1   2
ATOM      2  C   UNL     1       7.874  -4.496  23.250  0.00  0.00    -0.005 A 
ATOM      3  C   UNL     1       7.668  -5.855  22.944  0.00  0.00    +0.007 A 
ATOM      4  C   UNL     1       6.779  -6.252  21.941  0.00  0.00    +0.000 A 
ATOM      5  C   UNL     1       6.070  -5.301  21.218  0.00  0.00    +0.000 A 
ATOM      6  C   UNL     1       6.265  -3.950  21.486  0.00  0.00    +0.000 A 
ATOM      7  C   UNL     1       7.161  -3.553  22.485  0.00  0.00    +0.007 A 
ENDBRANCH   1   2
BRANCH   1   8
ATOM      8  C   UNL     1       8.064  -3.908  25.772  0.00  0.00    +0.036 C 
ATOM      9  C   UNL     1       8.109  -5.090  26.759  0.00  0.00    +0.007 C 
ATOM     10  C   UNL     1       6.795  -5.062  27.544  0.00  0.00    +0.000 C 
ATOM     11  C   UNL     1       6.041  -3.833  27.064  0.00  0.00    +0.000 C 
ATOM     12  C   UNL     1       6.557  -3.615  25.651  0.00  0.00    +0.007 C 
ENDBRANCH   1   8
BRANCH   1  13
ATOM     13  C   UNL     1       9.548  -2.752  24.007  0.00  0.00    +0.344 C 
ATOM     14  O   UNL     1      10.500  -2.677  23.235  0.00  0.00    -0.247 OA
BRANCH  13  15
ATOM     15  O   UNL     1       9.027  -1.643  24.631  0.00  0.00    -0.454 OA
BRANCH  15  19
ATOM     16  C   UNL     1       7.806   2.531  23.103  0.00  0.00    +0.192 C 
ATOM     17  N   UNL     1       7.466   1.312  23.956  0.00  0.00    +0.242 N 
ATOM     18  C   UNL     1       7.892   0.011  23.246  0.00  0.00    +0.178 C 
ATOM     19  C   UNL     1       9.219  -0.424  23.889  0.00  0.00    +0.226 C 
ATOM     20  C   UNL     1       9.608   0.703  24.839  0.00  0.00    +0.101 C 
ATOM     21  C   UNL     1       8.282   1.307  25.248  0.00  0.00    +0.136 C 
ATOM     22  C   UNL     1       5.979   1.323  24.256  0.00  0.00    +0.192 C 
ENDBRANCH  15  19
ENDBRANCH  13  15
ENDBRANCH   1  13
BRANCH   1  23
ATOM     23  O   UNL     1       9.776  -5.114  24.584  0.00  0.00    -0.373 OA
ATOM     24  H   UNL     1      10.352  -5.119  23.804  0.00  0.00    +0.211 HD
ENDBRANCH   1  23
TORSDOF 6
ENDMDL
MODEL 2
REMARK VINA RESULT:      -6.5      1.173      3.684
REMARK  Name = 
REMARK  8 active torsions:
REMARK  status: ('A' for Active; 'I' for Inactive)
REMARK    1  A    between atoms: C_1  and  N_2
REMARK    2  A    between atoms: N_2  and  C_3
REMARK    3  A    between atoms: C_6  and  O_8
REMARK    4  A    between atoms: O_8  and  C_9
REMARK    5  A    between atoms: C_9  and  C_11
REMARK    6  A    between atoms: C_11  and  O_12
REMARK    7  A    between atoms: C_11  and  C_13
REMARK    8  A    between atoms: C_11  and  C_18
REMARK                            x       y       z     vdW  Elec       q    Type
REMARK                         _______ _______ _______ _____ _____    ______ ____
ROOT
ATOM      1  C   UNL     1       7.665  -3.223  24.088  0.00  0.00    +0.190 C 
ENDROOT
BRANCH   1   2
ATOM      2  C   UNL     1       7.121  -3.969  25.322  0.00  0.00    -0.005 A 
ATOM      3  C   UNL     1       5.740  -4.063  25.575  0.00  0.00    +0.007 A 
ATOM      4  C   UNL     1       5.242  -4.797  26.655  0.00  0.00    +0.000 A 
ATOM      5  C   UNL     1       6.113  -5.458  27.511  0.00  0.00    +0.000 A 
ATOM      6  C   UNL     1       7.484  -5.370  27.298  0.00  0.00    +0.000 A 
ATOM      7  C   UNL     1       7.983  -4.628  26.220  0.00  0.00    +0.007 A 
ENDBRANCH   1   2
BRANCH   1   8
ATOM      8  C   UNL     1       7.527  -4.021  22.758  0.00  0.00    +0.036 C 
ATOM      9  C   UNL     1       6.274  -3.786  21.894  0.00  0.00    +0.007 C 
ATOM     10  C   UNL     1       5.968  -5.109  21.187  0.00  0.00    +0.000 C 
ATOM     11  C   UNL     1       7.078  -6.067  21.584  0.00  0.00    +0.000 C 
ATOM     12  C   UNL     1       7.544  -5.551  22.935  0.00  0.00    +0.007 C 
ENDBRANCH   1   8
BRANCH   1  13
ATOM     13  C   UNL     1       9.145  -2.794  24.350  0.00  0.00    +0.344 C 
ATOM     14  O   UNL     1      10.140  -3.475  24.127  0.00  0.00    -0.247 OA
BRANCH  13  15
ATOM     15  O   UNL     1       9.232  -1.529  24.883  0.00  0.00    -0.454 OA
BRANCH  15  19
ATOM     16  C   UNL     1      10.207   2.045  22.139  0.00  0.00    +0.192 C 
ATOM     17  N   UNL     1       9.151   1.230  22.881  0.00  0.00    +0.242 N 
ATOM     18  C   UNL     1       9.470  -0.277  22.805  0.00  0.00    +0.178 C 
ATOM     19  C   UNL     1      10.112  -0.657  24.149  0.00  0.00    +0.226 C 
ATOM     20  C   UNL     1      10.292   0.654  24.907  0.00  0.00    +0.101 C 
ATOM     21  C   UNL     1       9.180   1.535  24.378  0.00  0.00    +0.136 C 
ATOM     22  C   UNL     1       7.788   1.542  22.292  0.00  0.00    +0.192 C 
ENDBRANCH  15  19
ENDBRANCH  13  15
ENDBRANCH   1  13
BRANCH   1  23
ATOM     23  O   UNL     1       6.865  -2.026  23.930  0.00  0.00    -0.373 OA
ATOM     24  H   UNL     1       6.606  -1.961  22.998  0.00  0.00    +0.211 HD
ENDBRANCH   1  23
TORSDOF 6
ENDMDL
MODEL 3
REMARK VINA RESULT:      -6.4      1.688      1.880
REMARK  Name = 
REMARK  8 active torsions:
REMARK  status: ('A' for Active; 'I' for Inactive)
REMARK    1  A    between atoms: C_1  and  N_2
REMARK    2  A    between atoms: N_2  and  C_3
REMARK    3  A    between atoms: C_6  and  O_8
REMARK    4  A    between atoms: O_8  and  C_9
REMARK    5  A    between atoms: C_9  and  C_11
REMARK    6  A    between atoms: C_11  and  O_12
REMARK    7  A    between atoms: C_11  and  C_13
REMARK    8  A    between atoms: C_11  and  C_18
REMARK                            x       y       z     vdW  Elec       q    Type
REMARK                         _______ _______ _______ _____ _____    ______ ____
ROOT
ATOM      1  C   UNL     1       8.085  -3.194  24.205  0.00  0.00    +0.190 C 
ENDROOT
BRANCH   1   2
ATOM      2  C   UNL     1       7.478  -4.054  23.080  0.00  0.00    -0.005 A 
ATOM      3  C   UNL     1       7.582  -5.458  23.089  0.00  0.00    +0.007 A 
ATOM      4  C   UNL     1       6.974  -6.243  22.106  0.00  0.00    +0.000 A 
ATOM      5  C   UNL     1       6.242  -5.645  21.087  0.00  0.00    +0.000 A 
ATOM      6  C   UNL     1       6.135  -4.260  21.042  0.00  0.00    +0.000 A 
ATOM      7  C   UNL     1       6.751  -3.473  22.022  0.00  0.00    +0.007 A 
ENDBRANCH   1   2
BRANCH   1   8
ATOM      8  C   UNL     1       7.063  -2.237  24.887  0.00  0.00    +0.036 C 
ATOM      9  C   UNL     1       7.382  -1.722  26.303  0.00  0.00    +0.007 C 
ATOM     10  C   UNL     1       6.041  -1.532  27.018  0.00  0.00    +0.000 C 
ATOM     11  C   UNL     1       4.966  -1.862  25.996  0.00  0.00    +0.000 C 
ATOM     12  C   UNL     1       5.650  -2.828  25.043  0.00  0.00    +0.007 C 
ENDBRANCH   1   8
BRANCH   1  13
ATOM     13  C   UNL     1       9.323  -2.415  23.654  0.00  0.00    +0.344 C 
ATOM     14  O   UNL     1      10.470  -2.844  23.590  0.00  0.00    -0.247 OA
BRANCH  13  15
ATOM     15  O   UNL     1       8.994  -1.147  23.235  0.00  0.00    -0.454 OA
BRANCH  15  19
ATOM     16  C   UNL     1      10.820   3.083  23.390  0.00  0.00    +0.192 C 
ATOM     17  N   UNL     1       9.572   2.213  23.257  0.00  0.00    +0.242 N 
ATOM     18  C   UNL     1       9.862   0.969  22.393  0.00  0.00    +0.178 C 
ATOM     19  C   UNL     1      10.072  -0.202  23.366  0.00  0.00    +0.226 C 
ATOM     20  C   UNL     1      10.053   0.412  24.762  0.00  0.00    +0.101 C 
ATOM     21  C   UNL     1       9.168   1.631  24.611  0.00  0.00    +0.136 C 
ATOM     22  C   UNL     1       8.450   3.050  22.671  0.00  0.00    +0.192 C 
ENDBRANCH  15  19
ENDBRANCH  13  15
ENDBRANCH   1  13
BRANCH   1  23
ATOM     23  O   UNL     1       8.542  -4.104  25.235  0.00  0.00    -0.373 OA
ATOM     24  H   UNL     1       8.239  -4.995  25.000  0.00  0.00    +0.211 HD
ENDBRANCH   1  23
TORSDOF 6
ENDMDL
MODEL 4
REMARK VINA RESULT:      -6.3      2.289      5.531
REMARK  Name = 
REMARK  8 active torsions:
REMARK  status: ('A' for Active; 'I' for Inactive)
REMARK    1  A    between atoms: C_1  and  N_2
REMARK    2  A    between atoms: N_2  and  C_3
REMARK    3  A    between atoms: C_6  and  O_8
REMARK    4  A    between atoms: O_8  and  C_9
REMARK    5  A    between atoms: C_9  and  C_11
REMARK    6  A    between atoms: C_11  and  O_12
REMARK    7  A    between atoms: C_11  and  C_13
REMARK    8  A    between atoms: C_11  and  C_18
REMARK                            x       y       z     vdW  Elec       q    Type
REMARK                         _______ _______ _______ _____ _____    ______ ____
ROOT
ATOM      1  C   UNL     1       8.356  -2.975  24.054  0.00  0.00    +0.190 C 
ENDROOT
BRANCH   1   2
ATOM      2  C   UNL     1       8.525  -1.690  23.220  0.00  0.00    -0.005 A 
ATOM      3  C   UNL     1       7.621  -0.617  23.331  0.00  0.00    +0.007 A 
ATOM      4  C   UNL     1       7.810   0.575  22.627  0.00  0.00    +0.000 A 
ATOM      5  C   UNL     1       8.911   0.727  21.793  0.00  0.00    +0.000 A 
ATOM      6  C   UNL     1       9.813  -0.322  21.649  0.00  0.00    +0.000 A 
ATOM      7  C   UNL     1       9.618  -1.519  22.349  0.00  0.00    +0.007 A 
ENDBRANCH   1   2
BRANCH   1   8
ATOM      8  C   UNL     1       7.365  -4.003  23.433  0.00  0.00    +0.036 C 
ATOM      9  C   UNL     1       7.849  -5.452  23.236  0.00  0.00    +0.007 C 
ATOM     10  C   UNL     1       7.131  -5.995  21.998  0.00  0.00    +0.000 C 
ATOM     11  C   UNL     1       6.191  -4.894  21.537  0.00  0.00    +0.000 C 
ATOM     12  C   UNL     1       6.849  -3.617  22.034  0.00  0.00    +0.007 C 
ENDBRANCH   1   8
BRANCH   1  13
ATOM     13  C   UNL     1       7.951  -2.597  25.515  0.00  0.00    +0.344 C 
ATOM     14  O   UNL     1       8.653  -1.998  26.323  0.00  0.00    -0.247 OA
BRANCH  13  15
ATOM     15  O   UNL     1       6.680  -3.021  25.828  0.00  0.00    -0.454 OA
BRANCH  15  19
ATOM     16  C   UNL     1       4.826  -6.031  28.786  0.00  0.00    +0.192 C 
ATOM     17  N   UNL     1       4.781  -5.367  27.412  0.00  0.00    +0.242 N 
ATOM     18  C   UNL     1       5.140  -3.871  27.515  0.00  0.00    +0.178 C 
ATOM     19  C   UNL     1       6.606  -3.742  27.072  0.00  0.00    +0.226 C 
ATOM     20  C   UNL     1       7.106  -5.169  26.873  0.00  0.00    +0.101 C 
ATOM     21  C   UNL     1       5.860  -5.941  26.495  0.00  0.00    +0.136 C 
ATOM     22  C   UNL     1       3.400  -5.569  26.815  0.00  0.00    +0.192 C 
ENDBRANCH  15  19
ENDBRANCH  13  15
ENDBRANCH   1  13
BRANCH   1  23
ATOM     23  O   UNL     1       9.649  -3.627  24.095  0.00  0.00    -0.373 OA
ATOM     24  H   UNL     1      10.136  -3.275  24.856  0.00  0.00    +0.211 HD
ENDBRANCH   1  23
TORSDOF 6
ENDMDL
MODEL 5
REMARK VINA RESULT:      -6.1      2.412      5.661
REMARK  Name = 
REMARK  8 active torsions:
REMARK  status: ('A' for Active; 'I' for Inactive)
REMARK    1  A    between atoms: C_1  and  N_2
REMARK    2  A    between atoms: N_2  and  C_3
REMARK    3  A    between atoms: C_6  and  O_8
REMARK    4  A    between atoms: O_8  and  C_9
REMARK    5  A    between atoms: C_9  and  C_11
REMARK    6  A    between atoms: C_11  and  O_12
REMARK    7  A    between atoms: C_11  and  C_13
REMARK    8  A    between atoms: C_11  and  C_18
REMARK                            x       y       z     vdW  Elec       q    Type
REMARK                         _______ _______ _______ _____ _____    ______ ____
ROOT
ATOM      1  C   UNL     1       8.432  -3.049  23.788  0.00  0.00    +0.190 C 
ENDROOT
BRANCH   1   2
ATOM      2  C   UNL     1       9.088  -1.767  23.241  0.00  0.00    -0.005 A 
ATOM      3  C   UNL     1       8.875  -1.339  21.917  0.00  0.00    +0.007 A 
ATOM      4  C   UNL     1       9.414  -0.140  21.440  0.00  0.00    +0.000 A 
ATOM      5  C   UNL     1      10.180   0.663  22.275  0.00  0.00    +0.000 A 
ATOM      6  C   UNL     1      10.422   0.258  23.583  0.00  0.00    +0.000 A 
ATOM      7  C   UNL     1       9.889  -0.946  24.058  0.00  0.00    +0.007 A 
ENDBRANCH   1   2
BRANCH   1   8
ATOM      8  C   UNL     1       7.750  -3.923  22.694  0.00  0.00    +0.036 C 
ATOM      9  C   UNL     1       6.289  -3.610  22.318  0.00  0.00    +0.007 C 
ATOM     10  C   UNL     1       5.639  -4.938  21.921  0.00  0.00    +0.000 C 
ATOM     11  C   UNL     1       6.738  -5.986  21.995  0.00  0.00    +0.000 C 
ATOM     12  C   UNL     1       7.709  -5.427  23.022  0.00  0.00    +0.007 C 
ENDBRANCH   1   8
BRANCH   1  13
ATOM     13  C   UNL     1       7.432  -2.675  24.930  0.00  0.00    +0.344 C 
ATOM     14  O   UNL     1       6.793  -1.631  25.011  0.00  0.00    -0.247 OA
BRANCH  13  15
ATOM     15  O   UNL     1       7.335  -3.665  25.880  0.00  0.00    -0.454 OA
BRANCH  15  19
ATOM     16  C   UNL     1       3.288  -5.615  26.913  0.00  0.00    +0.192 C 
ATOM     17  N   UNL     1       4.629  -5.715  26.191  0.00  0.00    +0.242 N 
ATOM     18  C   UNL     1       5.019  -4.359  25.570  0.00  0.00    +0.178 C 
ATOM     19  C   UNL     1       6.046  -3.722  26.519  0.00  0.00    +0.226 C 
ATOM     20  C   UNL     1       6.113  -4.640  27.735  0.00  0.00    +0.101 C 
ATOM     21  C   UNL     1       5.759  -6.003  27.179  0.00  0.00    +0.136 C 
ATOM     22  C   UNL     1       4.539  -6.806  25.140  0.00  0.00    +0.192 C 
ENDBRANCH  15  19
ENDBRANCH  13  15
ENDBRANCH   1  13
BRANCH   1  23
ATOM     23  O   UNL     1       9.490  -3.858  24.356  0.00  0.00    -0.373 OA
ATOM     24  H   UNL     1       9.193  -4.169  25.226  0.00  0.00    +0.211 HD
ENDBRANCH   1  23
TORSDOF 6
ENDMDL
MODEL 6
REMARK VINA RESULT:      -6.1      2.546      5.764
REMARK  Name = 
REMARK  8 active torsions:
REMARK  status: ('A' for Active; 'I' for Inactive)
REMARK    1  A    between atoms: C_1  and  N_2
REMARK    2  A    between atoms: N_2  and  C_3
REMARK    3  A    between atoms: C_6  and  O_8
REMARK    4  A    between atoms: O_8  and  C_9
REMARK    5  A    between atoms: C_9  and  C_11
REMARK    6  A    between atoms: C_11  and  O_12
REMARK    7  A    between atoms: C_11  and  C_13
REMARK    8  A    between atoms: C_11  and  C_18
REMARK                            x       y       z     vdW  Elec       q    Type
REMARK                         _______ _______ _______ _____ _____    ______ ____
ROOT
ATOM      1  C   UNL     1       8.263  -4.854  24.844  0.00  0.00    +0.190 C 
ENDROOT
BRANCH   1   2
ATOM      2  C   UNL     1       8.663  -3.366  24.851  0.00  0.00    -0.005 A 
ATOM      3  C   UNL     1       8.210  -2.487  25.854  0.00  0.00    +0.007 A 
ATOM      4  C   UNL     1       8.627  -1.154  25.901  0.00  0.00    +0.000 A 
ATOM      5  C   UNL     1       9.509  -0.664  24.947  0.00  0.00    +0.000 A 
ATOM      6  C   UNL     1       9.961  -1.502  23.935  0.00  0.00    +0.000 A 
ATOM      7  C   UNL     1       9.537  -2.835  23.883  0.00  0.00    +0.007 A 
ENDBRANCH   1   2
BRANCH   1   8
ATOM      8  C   UNL     1       7.144  -5.200  23.817  0.00  0.00    +0.036 C 
ATOM      9  C   UNL     1       7.563  -5.768  22.448  0.00  0.00    +0.007 C 
ATOM     10  C   UNL     1       6.525  -5.286  21.431  0.00  0.00    +0.000 C 
ATOM     11  C   UNL     1       5.483  -4.515  22.224  0.00  0.00    +0.000 C 
ATOM     12  C   UNL     1       6.245  -4.009  23.438  0.00  0.00    +0.007 C 
ENDBRANCH   1   8
BRANCH   1  13
ATOM     13  C   UNL     1       7.871  -5.294  26.291  0.00  0.00    +0.344 C 
ATOM     14  O   UNL     1       8.497  -5.037  27.314  0.00  0.00    -0.247 OA
BRANCH  13  15
ATOM     15  O   UNL     1       6.711  -6.034  26.312  0.00  0.00    -0.454 OA
BRANCH  15  19
ATOM     16  C   UNL     1       2.724  -4.322  27.868  0.00  0.00    +0.192 C 
ATOM     17  N   UNL     1       3.579  -4.737  26.673  0.00  0.00    +0.242 N 
ATOM     18  C   UNL     1       5.054  -4.344  26.893  0.00  0.00    +0.178 C 
ATOM     19  C   UNL     1       5.786  -5.621  27.335  0.00  0.00    +0.226 C 
ATOM     20  C   UNL     1       4.703  -6.680  27.510  0.00  0.00    +0.101 C 
ATOM     21  C   UNL     1       3.623  -6.258  26.537  0.00  0.00    +0.136 C 
ATOM     22  C   UNL     1       3.013  -4.097  25.419  0.00  0.00    +0.192 C 
ENDBRANCH  15  19
ENDBRANCH  13  15
ENDBRANCH   1  13
BRANCH   1  23
ATOM     23  O   UNL     1       9.433  -5.606  24.441  0.00  0.00    -0.373 OA
ATOM     24  H   UNL     1       9.987  -5.739  25.226  0.00  0.00    +0.211 HD
ENDBRANCH   1  23
TORSDOF 6
ENDMDL
MODEL 7
REMARK VINA RESULT:      -6.1      2.502      5.696
REMARK  Name = 
REMARK  8 active torsions:
REMARK  status: ('A' for Active; 'I' for Inactive)
REMARK    1  A    between atoms: C_1  and  N_2
REMARK    2  A    between atoms: N_2  and  C_3
REMARK    3  A    between atoms: C_6  and  O_8
REMARK    4  A    between atoms: O_8  and  C_9
REMARK    5  A    between atoms: C_9  and  C_11
REMARK    6  A    between atoms: C_11  and  O_12
REMARK    7  A    between atoms: C_11  and  C_13
REMARK    8  A    between atoms: C_11  and  C_18
REMARK                            x       y       z     vdW  Elec       q    Type
REMARK                         _______ _______ _______ _____ _____    ______ ____
ROOT
ATOM      1  C   UNL     1       7.722  -1.153  23.695  0.00  0.00    +0.190 C 
ENDROOT
BRANCH   1   2
ATOM      2  C   UNL     1       8.718  -0.023  23.374  0.00  0.00    -0.005 A 
ATOM      3  C   UNL     1       8.930   0.417  22.053  0.00  0.00    +0.007 A 
ATOM      4  C   UNL     1       9.781   1.488  21.766  0.00  0.00    +0.000 A 
ATOM      5  C   UNL     1      10.443   2.149  22.793  0.00  0.00    +0.000 A 
ATOM      6  C   UNL     1      10.267   1.728  24.106  0.00  0.00    +0.000 A 
ATOM      7  C   UNL     1       9.421   0.650  24.392  0.00  0.00    +0.007 A 
ENDBRANCH   1   2
BRANCH   1   8
ATOM      8  C   UNL     1       7.097  -1.056  25.118  0.00  0.00    +0.036 C 
ATOM      9  C   UNL     1       7.457  -2.143  26.148  0.00  0.00    +0.007 C 
ATOM     10  C   UNL     1       6.237  -2.315  27.056  0.00  0.00    +0.000 C 
ATOM     11  C   UNL     1       5.219  -1.284  26.598  0.00  0.00    +0.000 C 
ATOM     12  C   UNL     1       5.557  -1.060  25.133  0.00  0.00    +0.007 C 
ENDBRANCH   1   8
BRANCH   1  13
ATOM     13  C   UNL     1       8.414  -2.536  23.466  0.00  0.00    +0.344 C 
ATOM     14  O   UNL     1       9.522  -2.862  23.877  0.00  0.00    -0.247 OA
BRANCH  13  15
ATOM     15  O   UNL     1       7.633  -3.390  22.722  0.00  0.00    -0.454 OA
BRANCH  15  19
ATOM     16  C   UNL     1       4.948  -6.851  24.158  0.00  0.00    +0.192 C 
ATOM     17  N   UNL     1       5.066  -5.526  23.408  0.00  0.00    +0.242 N 
ATOM     18  C   UNL     1       6.035  -4.571  24.134  0.00  0.00    +0.178 C 
ATOM     19  C   UNL     1       7.371  -4.645  23.377  0.00  0.00    +0.226 C 
ATOM     20  C   UNL     1       7.197  -5.745  22.336  0.00  0.00    +0.101 C 
ATOM     21  C   UNL     1       5.713  -5.732  22.039  0.00  0.00    +0.136 C 
ATOM     22  C   UNL     1       3.683  -4.917  23.268  0.00  0.00    +0.192 C 
ENDBRANCH  15  19
ENDBRANCH  13  15
ENDBRANCH   1  13
BRANCH   1  23
ATOM     23  O   UNL     1       6.625  -1.032  22.758  0.00  0.00    -0.373 OA
ATOM     24  H   UNL     1       5.851  -0.711  23.245  0.00  0.00    +0.211 HD
ENDBRANCH   1  23
TORSDOF 6
ENDMDL
MODEL 8
REMARK VINA RESULT:      -6.0      1.810      2.746
REMARK  Name = 
REMARK  8 active torsions:
REMARK  status: ('A' for Active; 'I' for Inactive)
REMARK    1  A    between atoms: C_1  and  N_2
REMARK    2  A    between atoms: N_2  and  C_3
REMARK    3  A    between atoms: C_6  and  O_8
REMARK    4  A    between atoms: O_8  and  C_9
REMARK    5  A    between atoms: C_9  and  C_11
REMARK    6  A    between atoms: C_11  and  O_12
REMARK    7  A    between atoms: C_11  and  C_13
REMARK    8  A    between atoms: C_11  and  C_18
REMARK                            x       y       z     vdW  Elec       q    Type
REMARK                         _______ _______ _______ _____ _____    ______ ____
ROOT
ATOM      1  C   UNL     1       6.620  -4.063  25.385  0.00  0.00    +0.190 C 
ENDROOT
BRANCH   1   2
ATOM      2  C   UNL     1       6.521  -4.713  23.992  0.00  0.00    -0.005 A 
ATOM      3  C   UNL     1       7.642  -5.294  23.370  0.00  0.00    +0.007 A 
ATOM      4  C   UNL     1       7.540  -5.944  22.137  0.00  0.00    +0.000 A 
ATOM      5  C   UNL     1       6.312  -6.031  21.492  0.00  0.00    +0.000 A 
ATOM      6  C   UNL     1       5.190  -5.452  22.073  0.00  0.00    +0.000 A 
ATOM      7  C   UNL     1       5.294  -4.794  23.305  0.00  0.00    +0.007 A 
ENDBRANCH   1   2
BRANCH   1   8
ATOM      8  C   UNL     1       5.617  -4.647  26.425  0.00  0.00    +0.036 C 
ATOM      9  C   UNL     1       5.767  -4.223  27.898  0.00  0.00    +0.007 C 
ATOM     10  C   UNL     1       5.306  -5.409  28.750  0.00  0.00    +0.000 C 
ATOM     11  C   UNL     1       4.826  -6.470  27.773  0.00  0.00    +0.000 C 
ATOM     12  C   UNL     1       5.614  -6.184  26.505  0.00  0.00    +0.007 C 
ENDBRANCH   1   8
BRANCH   1  13
ATOM     13  C   UNL     1       6.469  -2.514  25.249  0.00  0.00    +0.344 C 
ATOM     14  O   UNL     1       5.411  -1.892  25.257  0.00  0.00    -0.247 OA
BRANCH  13  15
ATOM     15  O   UNL     1       7.684  -1.884  25.107  0.00  0.00    -0.454 OA
BRANCH  15  19
ATOM     16  C   UNL     1       9.831   0.895  22.122  0.00  0.00    +0.192 C 
ATOM     17  N   UNL     1       9.860   0.156  23.457  0.00  0.00    +0.242 N 
ATOM     18  C   UNL     1       8.479   0.207  24.141  0.00  0.00    +0.178 C 
ATOM     19  C   UNL     1       7.809  -1.150  23.875  0.00  0.00    +0.226 C 
ATOM     20  C   UNL     1       8.740  -1.893  22.923  0.00  0.00    +0.101 C 
ATOM     21  C   UNL     1      10.110  -1.337  23.249  0.00  0.00    +0.136 C 
ATOM     22  C   UNL     1      10.938   0.768  24.333  0.00  0.00    +0.192 C 
ENDBRANCH  15  19
ENDBRANCH  13  15
ENDBRANCH   1  13
BRANCH   1  23
ATOM     23  O   UNL     1       7.946  -4.348  25.893  0.00  0.00    -0.373 OA
ATOM     24  H   UNL     1       7.940  -5.249  26.252  0.00  0.00    +0.211 HD
ENDBRANCH   1  23
TORSDOF 6
ENDMDL
MODEL 9
REMARK VINA RESULT:      -6.0      2.653      7.113
REMARK  Name = 
REMARK  8 active torsions:
REMARK  status: ('A' for Active; 'I' for Inactive)
REMARK    1  A    between atoms: C_1  and  N_2
REMARK    2  A    between atoms: N_2  and  C_3
REMARK    3  A    between atoms: C_6  and  O_8
REMARK    4  A    between atoms: O_8  and  C_9
REMARK    5  A    between atoms: C_9  and  C_11
REMARK    6  A    between atoms: C_11  and  O_12
REMARK    7  A    between atoms: C_11  and  C_13
REMARK    8  A    between atoms: C_11  and  C_18
REMARK                            x       y       z     vdW  Elec       q    Type
REMARK                         _______ _______ _______ _____ _____    ______ ____
ROOT
ATOM      1  C   UNL     1       9.245   2.406  23.646  0.00  0.00    +0.190 C 
ENDROOT
BRANCH   1   2
ATOM      2  C   UNL     1       7.710   2.527  23.657  0.00  0.00    -0.005 A 
ATOM      3  C   UNL     1       6.997   2.961  22.523  0.00  0.00    +0.007 A 
ATOM      4  C   UNL     1       5.600   3.006  22.509  0.00  0.00    +0.000 A 
ATOM      5  C   UNL     1       4.878   2.617  23.630  0.00  0.00    +0.000 A 
ATOM      6  C   UNL     1       5.553   2.200  24.772  0.00  0.00    +0.000 A 
ATOM      7  C   UNL     1       6.952   2.163  24.788  0.00  0.00    +0.007 A 
ENDBRANCH   1   2
BRANCH   1   8
ATOM      8  C   UNL     1       9.978   3.727  23.268  0.00  0.00    +0.036 C 
ATOM      9  C   UNL     1      11.515   3.759  23.361  0.00  0.00    +0.007 C 
ATOM     10  C   UNL     1      11.908   5.191  23.734  0.00  0.00    +0.000 C 
ATOM     11  C   UNL     1      10.614   5.986  23.779  0.00  0.00    +0.000 C 
ATOM     12  C   UNL     1       9.555   4.946  24.108  0.00  0.00    +0.007 C 
ENDBRANCH   1   8
BRANCH   1  13
ATOM     13  C   UNL     1       9.667   1.228  22.710  0.00  0.00    +0.344 C 
ATOM     14  O   UNL     1       9.820   1.296  21.494  0.00  0.00    -0.247 OA
BRANCH  13  15
ATOM     15  O   UNL     1       9.854   0.055  23.403  0.00  0.00    -0.454 OA
BRANCH  15  19
ATOM     16  C   UNL     1       7.814  -4.079  23.377  0.00  0.00    +0.192 C 
ATOM     17  N   UNL     1       8.417  -2.935  24.189  0.00  0.00    +0.242 N 
ATOM     18  C   UNL     1       9.674  -2.374  23.494  0.00  0.00    +0.178 C 
ATOM     19  C   UNL     1       9.239  -1.087  22.776  0.00  0.00    +0.226 C 
ATOM     20  C   UNL     1       7.725  -1.013  22.939  0.00  0.00    +0.101 C 
ATOM     21  C   UNL     1       7.464  -1.742  24.240  0.00  0.00    +0.136 C 
ATOM     22  C   UNL     1       8.730  -3.438  25.587  0.00  0.00    +0.192 C 
ENDBRANCH  15  19
ENDBRANCH  13  15
ENDBRANCH   1  13
BRANCH   1  23
ATOM     23  O   UNL     1       9.656   2.083  24.996  0.00  0.00    -0.373 OA
ATOM     24  H   UNL     1      10.557   1.726  24.957  0.00  0.00    +0.211 HD
ENDBRANCH   1  23
TORSDOF 6
ENDMDL
