MODEL 1
REMARK VINA RESULT:      -6.8      0.000      0.000
REMARK  Name = 
REMARK  12 active torsions:
REMARK  status: ('A' for Active; 'I' for Inactive)
REMARK    1  A    between atoms: C_1  and  C_2
REMARK    2  A    between atoms: C_2  and  C_3
REMARK    3  A    between atoms: C_3  and  C_4
REMARK    4  A    between atoms: C_4  and  O_5
REMARK    5  A    between atoms: O_5  and  C_6
REMARK    6  A    between atoms: C_9  and  S_12
REMARK    7  A    between atoms: S_12  and  N_15
REMARK    8  A    between atoms: C_17  and  N_26
REMARK    9  A    between atoms: C_20  and  C_22
REMARK   10  A    between atoms: N_24  and  O_25
REMARK   11  A    between atoms: N_26  and  S_27
REMARK   12  A    between atoms: S_27  and  C_28
REMARK                            x       y       z     vdW  Elec       q    Type
REMARK                         _______ _______ _______ _____ _____    ______ ____
ROOT
ATOM      1  N   UNL     1       5.743  -5.632  24.216  0.00  0.00    -0.163 NA
ATOM      2  C   UNL     1       4.294  -5.629  24.537  0.00  0.00    +0.169 C 
ATOM      3  C   UNL     1       4.244  -5.528  26.075  0.00  0.00    +0.051 C 
ATOM      4  C   UNL     1       5.637  -5.914  26.558  0.00  0.00    +0.094 C 
ATOM      5  C   UNL     1       6.511  -5.340  25.437  0.00  0.00    +0.130 C 
ENDROOT
BRANCH   2   6
ATOM      6  C   UNL     1       3.541  -6.869  24.036  0.00  0.00    +0.254 C 
ATOM      7  N   UNL     1       2.834  -6.693  22.868  0.00  0.00    -0.196 N 
ATOM      8  H   UNL     1       3.200  -6.079  22.132  0.00  0.00    +0.182 HD
ATOM      9  O   UNL     1       3.488  -7.936  24.649  0.00  0.00    -0.272 OA
BRANCH   7  10
ATOM     10  O   UNL     1       2.117  -7.827  22.413  0.00  0.00    -0.295 OA
ATOM     11  H   UNL     1       2.270  -8.478  23.131  0.00  0.00    +0.241 HD
ENDBRANCH   7  10
ENDBRANCH   2   6
BRANCH   1  12
ATOM     12  S   UNL     1       6.316  -5.103  22.736  0.00  0.00    +0.062 S 
ATOM     13  O   UNL     1       7.465  -5.919  22.407  0.00  0.00    -0.153 OA
ATOM     14  O   UNL     1       5.185  -5.028  21.838  0.00  0.00    -0.153 OA
BRANCH  12  18
ATOM     15  C   UNL     1       7.755  -0.776  22.773  0.00  0.00    +0.121 A 
ATOM     16  C   UNL     1       6.455  -1.070  23.197  0.00  0.00    +0.047 A 
ATOM     17  C   UNL     1       6.023  -2.403  23.301  0.00  0.00    +0.032 A 
ATOM     18  C   UNL     1       6.906  -3.443  22.985  0.00  0.00    +0.106 A 
ATOM     19  C   UNL     1       8.218  -3.154  22.613  0.00  0.00    +0.032 A 
ATOM     20  C   UNL     1       8.640  -1.829  22.524  0.00  0.00    +0.047 A 
BRANCH  15  21
ATOM     21  O   UNL     1       8.055   0.555  22.588  0.00  0.00    -0.492 OA
BRANCH  21  22
ATOM     22  C   UNL     1       9.428   0.813  22.277  0.00  0.00    +0.229 C 
BRANCH  22  23
ATOM     23  C   UNL     1      10.108   1.654  23.352  0.00  0.00    +0.041 C 
BRANCH  23  25
ATOM     24  C   UNL     1      10.092   0.075  25.333  0.00  0.00    +0.004 C 
ATOM     25  C   UNL     1      10.935   0.739  24.261  0.00  0.00    -0.000 C 
ENDBRANCH  23  25
ENDBRANCH  22  23
ENDBRANCH  21  22
ENDBRANCH  15  21
ENDBRANCH  12  18
ENDBRANCH   1  12
BRANCH   4  26
ATOM     26  N   UNL     1       5.978  -5.308  27.859  0.00  0.00    -0.190 NA
ATOM     27  H   UNL     1       6.766  -4.660  27.889  0.00  0.00    +0.148 HD
BRANCH  26  28
ATOM     28  S   UNL     1       5.860  -6.197  29.284  0.00  0.00    +0.027 S 
ATOM     29  O   UNL     1       6.023  -5.298  30.402  0.00  0.00    -0.158 OA
ATOM     30  O   UNL     1       6.726  -7.340  29.098  0.00  0.00    -0.158 OA
ATOM     31  C   UNL     1       4.175  -6.777  29.245  0.00  0.00    +0.214 C 
ENDBRANCH  26  28
ENDBRANCH   4  26
TORSDOF 10
ENDMDL
MODEL 2
REMARK VINA RESULT:      -6.8      3.461      6.433
REMARK  Name = 
REMARK  12 active torsions:
REMARK  status: ('A' for Active; 'I' for Inactive)
REMARK    1  A    between atoms: C_1  and  C_2
REMARK    2  A    between atoms: C_2  and  C_3
REMARK    3  A    between atoms: C_3  and  C_4
REMARK    4  A    between atoms: C_4  and  O_5
REMARK    5  A    between atoms: O_5  and  C_6
REMARK    6  A    between atoms: C_9  and  S_12
REMARK    7  A    between atoms: S_12  and  N_15
REMARK    8  A    between atoms: C_17  and  N_26
REMARK    9  A    between atoms: C_20  and  C_22
REMARK   10  A    between atoms: N_24  and  O_25
REMARK   11  A    between atoms: N_26  and  S_27
REMARK   12  A    between atoms: S_27  and  C_28
REMARK                            x       y       z     vdW  Elec       q    Type
REMARK                         _______ _______ _______ _____ _____    ______ ____
ROOT
ATOM      1  N   UNL     1       8.786  -1.409  23.472  0.00  0.00    -0.163 NA
ATOM      2  C   UNL     1       8.939  -2.148  24.750  0.00  0.00    +0.169 C 
ATOM      3  C   UNL     1       8.289  -3.519  24.478  0.00  0.00    +0.051 C 
ATOM      4  C   UNL     1       7.432  -3.329  23.232  0.00  0.00    +0.094 C 
ATOM      5  C   UNL     1       8.278  -2.327  22.439  0.00  0.00    +0.130 C 
ENDROOT
BRANCH   2   6
ATOM      6  C   UNL     1       8.291  -1.453  25.955  0.00  0.00    +0.254 C 
ATOM      7  N   UNL     1       9.136  -0.663  26.700  0.00  0.00    -0.196 N 
ATOM      8  H   UNL     1       9.882  -0.129  26.239  0.00  0.00    +0.182 HD
ATOM      9  O   UNL     1       7.122  -1.629  26.303  0.00  0.00    -0.272 OA
BRANCH   7  10
ATOM     10  O   UNL     1       8.548  -0.037  27.828  0.00  0.00    -0.295 OA
ATOM     11  H   UNL     1       9.314   0.413  28.245  0.00  0.00    +0.241 HD
ENDBRANCH   7  10
ENDBRANCH   2   6
BRANCH   1  12
ATOM     12  S   UNL     1       9.831  -0.177  23.037  0.00  0.00    +0.062 S 
ATOM     13  O   UNL     1      10.929  -0.197  23.979  0.00  0.00    -0.153 OA
ATOM     14  O   UNL     1      10.075  -0.302  21.617  0.00  0.00    -0.153 OA
BRANCH  12  18
ATOM     15  C   UNL     1       8.121   4.001  23.682  0.00  0.00    +0.121 A 
ATOM     16  C   UNL     1       8.057   3.422  22.410  0.00  0.00    +0.047 A 
ATOM     17  C   UNL     1       8.474   2.096  22.208  0.00  0.00    +0.032 A 
ATOM     18  C   UNL     1       8.950   1.348  23.291  0.00  0.00    +0.106 A 
ATOM     19  C   UNL     1       8.966   1.906  24.569  0.00  0.00    +0.032 A 
ATOM     20  C   UNL     1       8.538   3.217  24.761  0.00  0.00    +0.047 A 
BRANCH  15  21
ATOM     21  O   UNL     1       7.802   5.337  23.765  0.00  0.00    -0.492 OA
BRANCH  21  22
ATOM     22  C   UNL     1       8.861   6.222  23.382  0.00  0.00    +0.229 C 
BRANCH  22  23
ATOM     23  C   UNL     1       9.991   6.235  24.405  0.00  0.00    +0.041 C 
BRANCH  23  25
ATOM     24  C   UNL     1      11.646   4.602  23.401  0.00  0.00    +0.004 C 
ATOM     25  C   UNL     1      11.329   6.058  23.682  0.00  0.00    -0.000 C 
ENDBRANCH  23  25
ENDBRANCH  22  23
ENDBRANCH  21  22
ENDBRANCH  15  21
ENDBRANCH  12  18
ENDBRANCH   1  12
BRANCH   4  26
ATOM     26  N   UNL     1       7.242  -4.580  22.473  0.00  0.00    -0.190 NA
ATOM     27  H   UNL     1       7.911  -4.792  21.732  0.00  0.00    +0.148 HD
BRANCH  26  28
ATOM     28  S   UNL     1       5.699  -5.127  22.081  0.00  0.00    +0.027 S 
ATOM     29  O   UNL     1       5.781  -5.906  20.869  0.00  0.00    -0.158 OA
ATOM     30  O   UNL     1       4.842  -3.966  22.178  0.00  0.00    -0.158 OA
ATOM     31  C   UNL     1       5.309  -6.208  23.443  0.00  0.00    +0.214 C 
ENDBRANCH  26  28
ENDBRANCH   4  26
TORSDOF 10
ENDMDL
MODEL 3
REMARK VINA RESULT:      -6.7      2.594      3.697
REMARK  Name = 
REMARK  12 active torsions:
REMARK  status: ('A' for Active; 'I' for Inactive)
REMARK    1  A    between atoms: C_1  and  C_2
REMARK    2  A    between atoms: C_2  and  C_3
REMARK    3  A    between atoms: C_3  and  C_4
REMARK    4  A    between atoms: C_4  and  O_5
REMARK    5  A    between atoms: O_5  and  C_6
REMARK    6  A    between atoms: C_9  and  S_12
REMARK    7  A    between atoms: S_12  and  N_15
REMARK    8  A    between atoms: C_17  and  N_26
REMARK    9  A    between atoms: C_20  and  C_22
REMARK   10  A    between atoms: N_24  and  O_25
REMARK   11  A    between atoms: N_26  and  S_27
REMARK   12  A    between atoms: S_27  and  C_28
REMARK                            x       y       z     vdW  Elec       q    Type
REMARK                         _______ _______ _______ _____ _____    ______ ____
ROOT
ATOM      1  N   UNL     1       6.985  -5.273  25.273  0.00  0.00    -0.163 NA
ATOM      2  C   UNL     1       6.210  -4.535  24.244  0.00  0.00    +0.169 C 
ATOM      3  C   UNL     1       4.741  -4.710  24.676  0.00  0.00    +0.051 C 
ATOM      4  C   UNL     1       4.734  -5.877  25.655  0.00  0.00    +0.094 C 
ATOM      5  C   UNL     1       6.081  -5.681  26.361  0.00  0.00    +0.130 C 
ENDROOT
BRANCH   2   6
ATOM      6  C   UNL     1       6.434  -5.041  22.813  0.00  0.00    +0.254 C 
ATOM      7  N   UNL     1       5.512  -5.960  22.365  0.00  0.00    -0.196 N 
ATOM      8  H   UNL     1       4.529  -5.885  22.651  0.00  0.00    +0.182 HD
ATOM      9  O   UNL     1       7.401  -4.728  22.116  0.00  0.00    -0.272 OA
BRANCH   7  10
ATOM     10  O   UNL     1       5.728  -6.449  21.052  0.00  0.00    -0.295 OA
ATOM     11  H   UNL     1       5.827  -5.623  20.531  0.00  0.00    +0.241 HD
ENDBRANCH   7  10
ENDBRANCH   2   6
BRANCH   1  12
ATOM     12  S   UNL     1       8.573  -4.883  25.626  0.00  0.00    +0.062 S 
ATOM     13  O   UNL     1       8.749  -5.054  27.051  0.00  0.00    -0.153 OA
ATOM     14  O   UNL     1       9.410  -5.601  24.689  0.00  0.00    -0.153 OA
BRANCH  12  18
ATOM     15  C   UNL     1       9.539  -0.458  25.096  0.00  0.00    +0.121 A 
ATOM     16  C   UNL     1       9.870  -1.359  24.078  0.00  0.00    +0.047 A 
ATOM     17  C   UNL     1       9.485  -2.706  24.166  0.00  0.00    +0.032 A 
ATOM     18  C   UNL     1       8.758  -3.147  25.278  0.00  0.00    +0.106 A 
ATOM     19  C   UNL     1       8.382  -2.241  26.268  0.00  0.00    +0.032 A 
ATOM     20  C   UNL     1       8.758  -0.903  26.166  0.00  0.00    +0.047 A 
BRANCH  15  21
ATOM     21  O   UNL     1      10.055   0.813  24.983  0.00  0.00    -0.492 OA
BRANCH  21  22
ATOM     22  C   UNL     1       9.187   1.748  24.333  0.00  0.00    +0.229 C 
BRANCH  22  23
ATOM     23  C   UNL     1       9.922   2.574  23.283  0.00  0.00    +0.041 C 
BRANCH  23  25
ATOM     24  C   UNL     1       8.718   1.147  21.572  0.00  0.00    +0.004 C 
ATOM     25  C   UNL     1      10.040   1.760  21.991  0.00  0.00    -0.000 C 
ENDBRANCH  23  25
ENDBRANCH  22  23
ENDBRANCH  21  22
ENDBRANCH  15  21
ENDBRANCH  12  18
ENDBRANCH   1  12
BRANCH   4  26
ATOM     26  N   UNL     1       3.617  -5.810  26.616  0.00  0.00    -0.190 NA
ATOM     27  H   UNL     1       3.841  -5.880  27.610  0.00  0.00    +0.148 HD
BRANCH  26  28
ATOM     28  S   UNL     1       2.135  -6.528  26.270  0.00  0.00    +0.027 S 
ATOM     29  O   UNL     1       1.325  -5.583  25.539  0.00  0.00    -0.158 OA
ATOM     30  O   UNL     1       1.685  -7.105  27.518  0.00  0.00    -0.158 OA
ATOM     31  C   UNL     1       2.591  -7.866  25.184  0.00  0.00    +0.214 C 
ENDBRANCH  26  28
ENDBRANCH   4  26
TORSDOF 10
ENDMDL
MODEL 4
REMARK VINA RESULT:      -6.6      2.101      2.894
REMARK  Name = 
REMARK  12 active torsions:
REMARK  status: ('A' for Active; 'I' for Inactive)
REMARK    1  A    between atoms: C_1  and  C_2
REMARK    2  A    between atoms: C_2  and  C_3
REMARK    3  A    between atoms: C_3  and  C_4
REMARK    4  A    between atoms: C_4  and  O_5
REMARK    5  A    between atoms: O_5  and  C_6
REMARK    6  A    between atoms: C_9  and  S_12
REMARK    7  A    between atoms: S_12  and  N_15
REMARK    8  A    between atoms: C_17  and  N_26
REMARK    9  A    between atoms: C_20  and  C_22
REMARK   10  A    between atoms: N_24  and  O_25
REMARK   11  A    between atoms: N_26  and  S_27
REMARK   12  A    between atoms: S_27  and  C_28
REMARK                            x       y       z     vdW  Elec       q    Type
REMARK                         _______ _______ _______ _____ _____    ______ ____
ROOT
ATOM      1  N   UNL     1       7.137  -4.895  25.445  0.00  0.00    -0.163 NA
ATOM      2  C   UNL     1       6.011  -4.104  24.890  0.00  0.00    +0.169 C 
ATOM      3  C   UNL     1       4.921  -4.176  25.978  0.00  0.00    +0.051 C 
ATOM      4  C   UNL     1       5.313  -5.341  26.879  0.00  0.00    +0.094 C 
ATOM      5  C   UNL     1       6.843  -5.240  26.846  0.00  0.00    +0.130 C 
ENDROOT
BRANCH   2   6
ATOM      6  C   UNL     1       5.488  -4.624  23.543  0.00  0.00    +0.254 C 
ATOM      7  N   UNL     1       5.891  -5.896  23.210  0.00  0.00    -0.196 N 
ATOM      8  H   UNL     1       6.000  -6.610  23.939  0.00  0.00    +0.182 HD
ATOM      9  O   UNL     1       4.819  -3.949  22.759  0.00  0.00    -0.272 OA
BRANCH   7  10
ATOM     10  O   UNL     1       5.432  -6.372  21.956  0.00  0.00    -0.295 OA
ATOM     11  H   UNL     1       5.345  -5.546  21.434  0.00  0.00    +0.241 HD
ENDBRANCH   7  10
ENDBRANCH   2   6
BRANCH   1  12
ATOM     12  S   UNL     1       8.720  -4.618  24.981  0.00  0.00    +0.062 S 
ATOM     13  O   UNL     1       9.566  -5.025  26.081  0.00  0.00    -0.153 OA
ATOM     14  O   UNL     1       8.890  -5.198  23.666  0.00  0.00    -0.153 OA
BRANCH  12  18
ATOM     15  C   UNL     1       9.685  -0.163  24.863  0.00  0.00    +0.121 A 
ATOM     16  C   UNL     1       9.945  -0.951  23.736  0.00  0.00    +0.047 A 
ATOM     17  C   UNL     1       9.556  -2.300  23.705  0.00  0.00    +0.032 A 
ATOM     18  C   UNL     1       8.896  -2.855  24.808  0.00  0.00    +0.106 A 
ATOM     19  C   UNL     1       8.590  -2.059  25.910  0.00  0.00    +0.032 A 
ATOM     20  C   UNL     1       8.969  -0.718  25.927  0.00  0.00    +0.047 A 
BRANCH  15  21
ATOM     21  O   UNL     1      10.203   1.112  24.852  0.00  0.00    -0.492 OA
BRANCH  21  22
ATOM     22  C   UNL     1      10.384   1.666  23.544  0.00  0.00    +0.229 C 
BRANCH  22  23
ATOM     23  C   UNL     1       9.582   2.949  23.353  0.00  0.00    +0.041 C 
BRANCH  23  25
ATOM     24  C   UNL     1       8.545   1.590  21.484  0.00  0.00    +0.004 C 
ATOM     25  C   UNL     1       8.312   2.637  22.555  0.00  0.00    -0.000 C 
ENDBRANCH  23  25
ENDBRANCH  22  23
ENDBRANCH  21  22
ENDBRANCH  15  21
ENDBRANCH  12  18
ENDBRANCH   1  12
BRANCH   4  26
ATOM     26  N   UNL     1       4.802  -5.196  28.255  0.00  0.00    -0.190 NA
ATOM     27  H   UNL     1       4.700  -4.251  28.626  0.00  0.00    +0.148 HD
BRANCH  26  28
ATOM     28  S   UNL     1       5.245  -6.284  29.460  0.00  0.00    +0.027 S 
ATOM     29  O   UNL     1       6.191  -5.638  30.339  0.00  0.00    -0.158 OA
ATOM     30  O   UNL     1       5.570  -7.513  28.770  0.00  0.00    -0.158 OA
ATOM     31  C   UNL     1       3.716  -6.541  30.338  0.00  0.00    +0.214 C 
ENDBRANCH  26  28
ENDBRANCH   4  26
TORSDOF 10
ENDMDL
MODEL 5
REMARK VINA RESULT:      -6.6      2.104      2.777
REMARK  Name = 
REMARK  12 active torsions:
REMARK  status: ('A' for Active; 'I' for Inactive)
REMARK    1  A    between atoms: C_1  and  C_2
REMARK    2  A    between atoms: C_2  and  C_3
REMARK    3  A    between atoms: C_3  and  C_4
REMARK    4  A    between atoms: C_4  and  O_5
REMARK    5  A    between atoms: O_5  and  C_6
REMARK    6  A    between atoms: C_9  and  S_12
REMARK    7  A    between atoms: S_12  and  N_15
REMARK    8  A    between atoms: C_17  and  N_26
REMARK    9  A    between atoms: C_20  and  C_22
REMARK   10  A    between atoms: N_24  and  O_25
REMARK   11  A    between atoms: N_26  and  S_27
REMARK   12  A    between atoms: S_27  and  C_28
REMARK                            x       y       z     vdW  Elec       q    Type
REMARK                         _______ _______ _______ _____ _____    ______ ____
ROOT
ATOM      1  N   UNL     1       7.552  -4.206  24.951  0.00  0.00    -0.163 NA
ATOM      2  C   UNL     1       6.075  -4.080  24.872  0.00  0.00    +0.169 C 
ATOM      3  C   UNL     1       5.578  -4.536  26.258  0.00  0.00    +0.051 C 
ATOM      4  C   UNL     1       6.742  -5.294  26.885  0.00  0.00    +0.094 C 
ATOM      5  C   UNL     1       7.939  -4.506  26.340  0.00  0.00    +0.130 C 
ENDROOT
BRANCH   2   6
ATOM      6  C   UNL     1       5.438  -4.913  23.751  0.00  0.00    +0.254 C 
ATOM      7  N   UNL     1       6.285  -5.796  23.122  0.00  0.00    -0.196 N 
ATOM      8  H   UNL     1       7.019  -6.275  23.657  0.00  0.00    +0.182 HD
ATOM      9  O   UNL     1       4.276  -4.771  23.364  0.00  0.00    -0.272 OA
BRANCH   7  10
ATOM     10  O   UNL     1       5.709  -6.550  22.070  0.00  0.00    -0.295 OA
ATOM     11  H   UNL     1       4.812  -6.749  22.417  0.00  0.00    +0.241 HD
ENDBRANCH   7  10
ENDBRANCH   2   6
BRANCH   1  12
ATOM     12  S   UNL     1       8.566  -3.281  23.995  0.00  0.00    +0.062 S 
ATOM     13  O   UNL     1       9.915  -3.755  24.218  0.00  0.00    -0.153 OA
ATOM     14  O   UNL     1       8.002  -3.262  22.663  0.00  0.00    -0.153 OA
BRANCH  12  18
ATOM     15  C   UNL     1       8.536   1.153  25.064  0.00  0.00    +0.121 A 
ATOM     16  C   UNL     1       7.327   0.505  24.791  0.00  0.00    +0.047 A 
ATOM     17  C   UNL     1       7.295  -0.881  24.568  0.00  0.00    +0.032 A 
ATOM     18  C   UNL     1       8.483  -1.619  24.629  0.00  0.00    +0.106 A 
ATOM     19  C   UNL     1       9.681  -0.985  24.953  0.00  0.00    +0.032 A 
ATOM     20  C   UNL     1       9.701   0.389  25.184  0.00  0.00    +0.047 A 
BRANCH  15  21
ATOM     21  O   UNL     1       8.491   2.525  25.153  0.00  0.00    -0.492 OA
BRANCH  21  22
ATOM     22  C   UNL     1       8.364   3.195  23.894  0.00  0.00    +0.229 C 
BRANCH  22  23
ATOM     23  C   UNL     1       9.379   2.689  22.875  0.00  0.00    +0.041 C 
BRANCH  23  25
ATOM     24  C   UNL     1       9.214   0.636  21.401  0.00  0.00    +0.004 C 
ATOM     25  C   UNL     1       8.638   2.001  21.724  0.00  0.00    -0.000 C 
ENDBRANCH  23  25
ENDBRANCH  22  23
ENDBRANCH  21  22
ENDBRANCH  15  21
ENDBRANCH  12  18
ENDBRANCH   1  12
BRANCH   4  26
ATOM     26  N   UNL     1       6.716  -5.264  28.359  0.00  0.00    -0.190 NA
ATOM     27  H   UNL     1       7.581  -5.025  28.845  0.00  0.00    +0.148 HD
BRANCH  26  28
ATOM     28  S   UNL     1       5.814  -6.388  29.230  0.00  0.00    +0.027 S 
ATOM     29  O   UNL     1       6.495  -6.660  30.474  0.00  0.00    -0.158 OA
ATOM     30  O   UNL     1       5.503  -7.444  28.291  0.00  0.00    -0.158 OA
ATOM     31  C   UNL     1       4.307  -5.502  29.572  0.00  0.00    +0.214 C 
ENDBRANCH  26  28
ENDBRANCH   4  26
TORSDOF 10
ENDMDL
MODEL 6
REMARK VINA RESULT:      -6.6      2.578      3.708
REMARK  Name = 
REMARK  12 active torsions:
REMARK  status: ('A' for Active; 'I' for Inactive)
REMARK    1  A    between atoms: C_1  and  C_2
REMARK    2  A    between atoms: C_2  and  C_3
REMARK    3  A    between atoms: C_3  and  C_4
REMARK    4  A    between atoms: C_4  and  O_5
REMARK    5  A    between atoms: O_5  and  C_6
REMARK    6  A    between atoms: C_9  and  S_12
REMARK    7  A    between atoms: S_12  and  N_15
REMARK    8  A    between atoms: C_17  and  N_26
REMARK    9  A    between atoms: C_20  and  C_22
REMARK   10  A    between atoms: N_24  and  O_25
REMARK   11  A    between atoms: N_26  and  S_27
REMARK   12  A    between atoms: S_27  and  C_28
REMARK                            x       y       z     vdW  Elec       q    Type
REMARK                         _______ _______ _______ _____ _____    ______ ____
ROOT
ATOM      1  N   UNL     1       6.421  -4.833  24.729  0.00  0.00    -0.163 NA
ATOM      2  C   UNL     1       5.846  -3.758  23.884  0.00  0.00    +0.169 C 
ATOM      3  C   UNL     1       4.453  -3.498  24.492  0.00  0.00    +0.051 C 
ATOM      4  C   UNL     1       4.147  -4.716  25.356  0.00  0.00    +0.094 C 
ATOM      5  C   UNL     1       5.543  -5.062  25.888  0.00  0.00    +0.130 C 
ENDROOT
BRANCH   2   6
ATOM      6  C   UNL     1       5.744  -4.120  22.396  0.00  0.00    +0.254 C 
ATOM      7  N   UNL     1       5.961  -5.446  22.099  0.00  0.00    -0.196 N 
ATOM      8  H   UNL     1       5.646  -6.177  22.748  0.00  0.00    +0.182 HD
ATOM      9  O   UNL     1       5.561  -3.296  21.498  0.00  0.00    -0.272 OA
BRANCH   7  10
ATOM     10  O   UNL     1       5.893  -5.783  20.724  0.00  0.00    -0.295 OA
ATOM     11  H   UNL     1       6.291  -4.996  20.293  0.00  0.00    +0.241 HD
ENDBRANCH   7  10
ENDBRANCH   2   6
BRANCH   1  12
ATOM     12  S   UNL     1       8.074  -5.031  24.896  0.00  0.00    +0.062 S 
ATOM     13  O   UNL     1       8.297  -5.730  26.143  0.00  0.00    -0.153 OA
ATOM     14  O   UNL     1       8.571  -5.570  23.650  0.00  0.00    -0.153 OA
BRANCH  12  18
ATOM     15  C   UNL     1       9.381  -0.663  25.012  0.00  0.00    +0.121 A 
ATOM     16  C   UNL     1       8.706  -1.207  26.110  0.00  0.00    +0.047 A 
ATOM     17  C   UNL     1       8.390  -2.575  26.148  0.00  0.00    +0.032 A 
ATOM     18  C   UNL     1       8.763  -3.400  25.080  0.00  0.00    +0.106 A 
ATOM     19  C   UNL     1       9.481  -2.871  24.009  0.00  0.00    +0.032 A 
ATOM     20  C   UNL     1       9.800  -1.515  23.986  0.00  0.00    +0.047 A 
BRANCH  15  21
ATOM     21  O   UNL     1       9.545   0.703  25.007  0.00  0.00    -0.492 OA
BRANCH  21  22
ATOM     22  C   UNL     1      10.714   1.155  24.315  0.00  0.00    +0.229 C 
BRANCH  22  23
ATOM     23  C   UNL     1      10.388   2.236  23.289  0.00  0.00    +0.041 C 
BRANCH  23  25
ATOM     24  C   UNL     1       8.428   1.753  21.759  0.00  0.00    +0.004 C 
ATOM     25  C   UNL     1       9.916   1.574  21.991  0.00  0.00    -0.000 C 
ENDBRANCH  23  25
ENDBRANCH  22  23
ENDBRANCH  21  22
ENDBRANCH  15  21
ENDBRANCH  12  18
ENDBRANCH   1  12
BRANCH   4  26
ATOM     26  N   UNL     1       3.219  -4.413  26.461  0.00  0.00    -0.190 NA
ATOM     27  H   UNL     1       3.550  -4.567  27.415  0.00  0.00    +0.148 HD
BRANCH  26  28
ATOM     28  S   UNL     1       1.574  -4.742  26.323  0.00  0.00    +0.027 S 
ATOM     29  O   UNL     1       1.040  -4.986  27.642  0.00  0.00    -0.158 OA
ATOM     30  O   UNL     1       1.465  -5.727  25.268  0.00  0.00    -0.158 OA
ATOM     31  C   UNL     1       0.918  -3.205  25.703  0.00  0.00    +0.214 C 
ENDBRANCH  26  28
ENDBRANCH   4  26
TORSDOF 10
ENDMDL
MODEL 7
REMARK VINA RESULT:      -6.5      3.185      6.051
REMARK  Name = 
REMARK  12 active torsions:
REMARK  status: ('A' for Active; 'I' for Inactive)
REMARK    1  A    between atoms: C_1  and  C_2
REMARK    2  A    between atoms: C_2  and  C_3
REMARK    3  A    between atoms: C_3  and  C_4
REMARK    4  A    between atoms: C_4  and  O_5
REMARK    5  A    between atoms: O_5  and  C_6
REMARK    6  A    between atoms: C_9  and  S_12
REMARK    7  A    between atoms: S_12  and  N_15
REMARK    8  A    between atoms: C_17  and  N_26
REMARK    9  A    between atoms: C_20  and  C_22
REMARK   10  A    between atoms: N_24  and  O_25
REMARK   11  A    between atoms: N_26  and  S_27
REMARK   12  A    between atoms: S_27  and  C_28
REMARK                            x       y       z     vdW  Elec       q    Type
REMARK                         _______ _______ _______ _____ _____    ______ ____
ROOT
ATOM      1  N   UNL     1       7.465  -2.176  25.558  0.00  0.00    -0.163 NA
ATOM      2  C   UNL     1       8.119  -3.493  25.754  0.00  0.00    +0.169 C 
ATOM      3  C   UNL     1       7.968  -4.200  24.393  0.00  0.00    +0.051 C 
ATOM      4  C   UNL     1       6.876  -3.438  23.651  0.00  0.00    +0.094 C 
ATOM      5  C   UNL     1       7.132  -2.006  24.134  0.00  0.00    +0.130 C 
ENDROOT
BRANCH   2   6
ATOM      6  C   UNL     1       7.511  -4.331  26.887  0.00  0.00    +0.254 C 
ATOM      7  N   UNL     1       8.080  -5.570  27.071  0.00  0.00    -0.196 N 
ATOM      8  H   UNL     1       9.088  -5.700  26.927  0.00  0.00    +0.182 HD
ATOM      9  O   UNL     1       6.533  -3.982  27.551  0.00  0.00    -0.272 OA
BRANCH   7  10
ATOM     10  O   UNL     1       7.507  -6.357  28.101  0.00  0.00    -0.295 OA
ATOM     11  H   UNL     1       6.882  -5.730  28.525  0.00  0.00    +0.241 HD
ENDBRANCH   7  10
ENDBRANCH   2   6
BRANCH   1  12
ATOM     12  S   UNL     1       7.889  -0.839  26.470  0.00  0.00    +0.062 S 
ATOM     13  O   UNL     1       6.684  -0.355  27.107  0.00  0.00    -0.153 OA
ATOM     14  O   UNL     1       9.045  -1.206  27.259  0.00  0.00    -0.153 OA
BRANCH  12  18
ATOM     15  C   UNL     1       9.326   2.722  24.009  0.00  0.00    +0.121 A 
ATOM     16  C   UNL     1      10.193   1.646  24.230  0.00  0.00    +0.047 A 
ATOM     17  C   UNL     1       9.742   0.491  24.888  0.00  0.00    +0.032 A 
ATOM     18  C   UNL     1       8.411   0.414  25.318  0.00  0.00    +0.106 A 
ATOM     19  C   UNL     1       7.533   1.463  25.052  0.00  0.00    +0.032 A 
ATOM     20  C   UNL     1       7.986   2.600  24.388  0.00  0.00    +0.047 A 
BRANCH  15  21
ATOM     21  O   UNL     1       9.882   3.856  23.462  0.00  0.00    -0.492 OA
BRANCH  21  22
ATOM     22  C   UNL     1       9.720   5.036  24.258  0.00  0.00    +0.229 C 
BRANCH  22  23
ATOM     23  C   UNL     1       9.539   6.282  23.399  0.00  0.00    +0.041 C 
BRANCH  23  25
ATOM     24  C   UNL     1       7.451   6.017  21.991  0.00  0.00    +0.004 C 
ATOM     25  C   UNL     1       8.045   6.590  23.263  0.00  0.00    -0.000 C 
ENDBRANCH  23  25
ENDBRANCH  22  23
ENDBRANCH  21  22
ENDBRANCH  15  21
ENDBRANCH  12  18
ENDBRANCH   1  12
BRANCH   4  26
ATOM     26  N   UNL     1       7.006  -3.535  22.185  0.00  0.00    -0.190 NA
ATOM     27  H   UNL     1       6.919  -2.674  21.643  0.00  0.00    +0.148 HD
BRANCH  26  28
ATOM     28  S   UNL     1       6.381  -4.854  21.347  0.00  0.00    +0.027 S 
ATOM     29  O   UNL     1       7.386  -5.889  21.303  0.00  0.00    -0.158 OA
ATOM     30  O   UNL     1       5.806  -4.306  20.139  0.00  0.00    -0.158 OA
ATOM     31  C   UNL     1       5.042  -5.386  22.396  0.00  0.00    +0.214 C 
ENDBRANCH  26  28
ENDBRANCH   4  26
TORSDOF 10
ENDMDL
MODEL 8
REMARK VINA RESULT:      -6.5      2.133      4.333
REMARK  Name = 
REMARK  12 active torsions:
REMARK  status: ('A' for Active; 'I' for Inactive)
REMARK    1  A    between atoms: C_1  and  C_2
REMARK    2  A    between atoms: C_2  and  C_3
REMARK    3  A    between atoms: C_3  and  C_4
REMARK    4  A    between atoms: C_4  and  O_5
REMARK    5  A    between atoms: O_5  and  C_6
REMARK    6  A    between atoms: C_9  and  S_12
REMARK    7  A    between atoms: S_12  and  N_15
REMARK    8  A    between atoms: C_17  and  N_26
REMARK    9  A    between atoms: C_20  and  C_22
REMARK   10  A    between atoms: N_24  and  O_25
REMARK   11  A    between atoms: N_26  and  S_27
REMARK   12  A    between atoms: S_27  and  C_28
REMARK                            x       y       z     vdW  Elec       q    Type
REMARK                         _______ _______ _______ _____ _____    ______ ____
ROOT
ATOM      1  N   UNL     1       6.142  -4.824  23.784  0.00  0.00    -0.163 NA
ATOM      2  C   UNL     1       6.003  -5.870  24.829  0.00  0.00    +0.169 C 
ATOM      3  C   UNL     1       4.707  -6.615  24.452  0.00  0.00    +0.051 C 
ATOM      4  C   UNL     1       3.966  -5.693  23.490  0.00  0.00    +0.094 C 
ATOM      5  C   UNL     1       5.134  -5.049  22.735  0.00  0.00    +0.130 C 
ENDROOT
BRANCH   2   6
ATOM      6  C   UNL     1       5.932  -5.318  26.259  0.00  0.00    +0.254 C 
ATOM      7  N   UNL     1       6.759  -5.937  27.168  0.00  0.00    -0.196 N 
ATOM      8  H   UNL     1       7.684  -6.273  26.877  0.00  0.00    +0.182 HD
ATOM      9  O   UNL     1       5.147  -4.438  26.619  0.00  0.00    -0.272 OA
BRANCH   7  10
ATOM     10  O   UNL     1       6.681  -5.448  28.495  0.00  0.00    -0.295 OA
ATOM     11  H   UNL     1       7.039  -6.196  29.020  0.00  0.00    +0.241 HD
ENDBRANCH   7  10
ENDBRANCH   2   6
BRANCH   1  12
ATOM     12  S   UNL     1       7.633  -4.187  23.371  0.00  0.00    +0.062 S 
ATOM     13  O   UNL     1       8.641  -5.049  23.948  0.00  0.00    -0.153 OA
ATOM     14  O   UNL     1       7.610  -3.930  21.948  0.00  0.00    -0.153 OA
BRANCH  12  18
ATOM     15  C   UNL     1       8.182   0.056  24.950  0.00  0.00    +0.121 A 
ATOM     16  C   UNL     1       6.907  -0.372  24.563  0.00  0.00    +0.047 A 
ATOM     17  C   UNL     1       6.690  -1.705  24.179  0.00  0.00    +0.032 A 
ATOM     18  C   UNL     1       7.756  -2.612  24.192  0.00  0.00    +0.106 A 
ATOM     19  C   UNL     1       9.015  -2.201  24.627  0.00  0.00    +0.032 A 
ATOM     20  C   UNL     1       9.218  -0.880  25.018  0.00  0.00    +0.047 A 
BRANCH  15  21
ATOM     21  O   UNL     1       8.328   1.402  25.198  0.00  0.00    -0.492 OA
BRANCH  21  22
ATOM     22  C   UNL     1       9.371   2.031  24.446  0.00  0.00    +0.229 C 
BRANCH  22  23
ATOM     23  C   UNL     1       8.974   2.245  22.990  0.00  0.00    +0.041 C 
BRANCH  23  25
ATOM     24  C   UNL     1       9.344   0.282  21.433  0.00  0.00    +0.004 C 
ATOM     25  C   UNL     1       9.962   1.505  22.082  0.00  0.00    -0.000 C 
ENDBRANCH  23  25
ENDBRANCH  22  23
ENDBRANCH  21  22
ENDBRANCH  15  21
ENDBRANCH  12  18
ENDBRANCH   1  12
BRANCH   4  26
ATOM     26  N   UNL     1       3.078  -6.425  22.568  0.00  0.00    -0.190 NA
ATOM     27  H   UNL     1       3.030  -6.104  21.600  0.00  0.00    +0.148 HD
BRANCH  26  28
ATOM     28  S   UNL     1       1.593  -7.022  23.090  0.00  0.00    +0.027 S 
ATOM     29  O   UNL     1       1.809  -8.299  23.729  0.00  0.00    -0.158 OA
ATOM     30  O   UNL     1       0.702  -6.883  21.960  0.00  0.00    -0.158 OA
ATOM     31  C   UNL     1       1.102  -5.830  24.321  0.00  0.00    +0.214 C 
ENDBRANCH  26  28
ENDBRANCH   4  26
TORSDOF 10
ENDMDL
MODEL 9
REMARK VINA RESULT:      -6.5      2.659      3.818
REMARK  Name = 
REMARK  12 active torsions:
REMARK  status: ('A' for Active; 'I' for Inactive)
REMARK    1  A    between atoms: C_1  and  C_2
REMARK    2  A    between atoms: C_2  and  C_3
REMARK    3  A    between atoms: C_3  and  C_4
REMARK    4  A    between atoms: C_4  and  O_5
REMARK    5  A    between atoms: O_5  and  C_6
REMARK    6  A    between atoms: C_9  and  S_12
REMARK    7  A    between atoms: S_12  and  N_15
REMARK    8  A    between atoms: C_17  and  N_26
REMARK    9  A    between atoms: C_20  and  C_22
REMARK   10  A    between atoms: N_24  and  O_25
REMARK   11  A    between atoms: N_26  and  S_27
REMARK   12  A    between atoms: S_27  and  C_28
REMARK                            x       y       z     vdW  Elec       q    Type
REMARK                         _______ _______ _______ _____ _____    ______ ____
ROOT
ATOM      1  N   UNL     1       6.619  -4.015  24.372  0.00  0.00    -0.163 NA
ATOM      2  C   UNL     1       6.943  -5.275  25.088  0.00  0.00    +0.169 C 
ATOM      3  C   UNL     1       5.734  -5.509  26.015  0.00  0.00    +0.051 C 
ATOM      4  C   UNL     1       5.009  -4.170  26.094  0.00  0.00    +0.094 C 
ATOM      5  C   UNL     1       5.232  -3.628  24.677  0.00  0.00    +0.130 C 
ENDROOT
BRANCH   2   6
ATOM      6  C   UNL     1       8.254  -5.220  25.885  0.00  0.00    +0.254 C 
ATOM      7  N   UNL     1       9.376  -5.619  25.195  0.00  0.00    -0.196 N 
ATOM      8  H   UNL     1       9.467  -5.412  24.194  0.00  0.00    +0.182 HD
ATOM      9  O   UNL     1       8.321  -4.920  27.078  0.00  0.00    -0.272 OA
BRANCH   7  10
ATOM     10  O   UNL     1      10.586  -5.593  25.933  0.00  0.00    -0.295 OA
ATOM     11  H   UNL     1      10.988  -6.461  25.713  0.00  0.00    +0.241 HD
ENDBRANCH   7  10
ENDBRANCH   2   6
BRANCH   1  12
ATOM     12  S   UNL     1       7.257  -3.671  22.865  0.00  0.00    +0.062 S 
ATOM     13  O   UNL     1       7.931  -4.865  22.403  0.00  0.00    -0.153 OA
ATOM     14  O   UNL     1       6.203  -3.069  22.079  0.00  0.00    -0.153 OA
BRANCH  12  18
ATOM     15  C   UNL     1      10.022  -0.080  23.370  0.00  0.00    +0.121 A 
ATOM     16  C   UNL     1       9.499  -0.708  24.506  0.00  0.00    +0.047 A 
ATOM     17  C   UNL     1       8.736  -1.881  24.384  0.00  0.00    +0.032 A 
ATOM     18  C   UNL     1       8.506  -2.428  23.116  0.00  0.00    +0.106 A 
ATOM     19  C   UNL     1       9.070  -1.833  21.988  0.00  0.00    +0.032 A 
ATOM     20  C   UNL     1       9.835  -0.677  22.120  0.00  0.00    +0.047 A 
BRANCH  15  21
ATOM     21  O   UNL     1      10.657   1.124  23.573  0.00  0.00    -0.492 OA
BRANCH  21  22
ATOM     22  C   UNL     1      10.225   2.174  22.700  0.00  0.00    +0.229 C 
BRANCH  22  23
ATOM     23  C   UNL     1       8.902   2.783  23.152  0.00  0.00    +0.041 C 
BRANCH  23  25
ATOM     24  C   UNL     1       6.824   1.536  22.415  0.00  0.00    +0.004 C 
ATOM     25  C   UNL     1       7.854   2.588  22.052  0.00  0.00    -0.000 C 
ENDBRANCH  23  25
ENDBRANCH  22  23
ENDBRANCH  21  22
ENDBRANCH  15  21
ENDBRANCH  12  18
ENDBRANCH   1  12
BRANCH   4  26
ATOM     26  N   UNL     1       3.571  -4.316  26.386  0.00  0.00    -0.190 NA
ATOM     27  H   UNL     1       2.914  -3.783  25.815  0.00  0.00    +0.148 HD
BRANCH  26  28
ATOM     28  S   UNL     1       3.023  -4.470  27.970  0.00  0.00    +0.027 S 
ATOM     29  O   UNL     1       3.097  -5.861  28.350  0.00  0.00    -0.158 OA
ATOM     30  O   UNL     1       1.777  -3.737  28.020  0.00  0.00    -0.158 OA
ATOM     31  C   UNL     1       4.235  -3.548  28.896  0.00  0.00    +0.214 C 
ENDBRANCH  26  28
ENDBRANCH   4  26
TORSDOF 10
ENDMDL
