MODEL 1
REMARK VINA RESULT:      -6.3      0.000      0.000
REMARK  Name = 
REMARK  1 active torsions:
REMARK  status: ('A' for Active; 'I' for Inactive)
REMARK    1  A    between atoms: C_4  and  C_6
REMARK                            x       y       z     vdW  Elec       q    Type
REMARK                         _______ _______ _______ _____ _____    ______ ____
ROOT
ATOM      1  C   UNL     1       9.413  -2.373  24.201  0.00  0.00    +0.159 A 
ATOM      2  N   UNL     1       9.691  -1.257  24.948  0.00  0.00    -0.337 N 
ATOM      3  H   UNL     1       9.775  -1.261  25.954  0.00  0.00    +0.167 HD
ATOM      4  C   UNL     1       9.828  -0.192  24.100  0.00  0.00    +0.067 A 
ATOM      5  C   UNL     1       9.617  -0.737  22.837  0.00  0.00    +0.090 A 
ATOM      6  C   UNL     1       9.686   0.098  21.712  0.00  0.00    +0.030 A 
ATOM      7  C   UNL     1       9.965   1.457  21.899  0.00  0.00    +0.002 A 
ATOM      8  C   UNL     1      10.171   1.976  23.180  0.00  0.00    +0.002 A 
ATOM      9  C   UNL     1      10.107   1.159  24.316  0.00  0.00    +0.028 A 
ATOM     10  N   UNL     1       9.362  -2.085  22.915  0.00  0.00    -0.226 NA
ENDROOT
BRANCH   1  14
ATOM     11  N   UNL     1       9.573  -5.706  25.407  0.00  0.00    -0.284 N 
ATOM     12  H   UNL     1      10.103  -6.566  25.507  0.00  0.00    +0.188 HD
ATOM     13  N   UNL     1      10.146  -4.672  24.765  0.00  0.00    -0.171 NA
ATOM     14  C   UNL     1       9.204  -3.717  24.805  0.00  0.00    +0.127 A 
ATOM     15  C   UNL     1       8.040  -4.150  25.473  0.00  0.00    +0.052 A 
ATOM     16  C   UNL     1       8.310  -5.442  25.851  0.00  0.00    +0.105 A 
ENDBRANCH   1  14
TORSDOF 1
ENDMDL
MODEL 2
REMARK VINA RESULT:      -6.3      3.565      6.919
REMARK  Name = 
REMARK  1 active torsions:
REMARK  status: ('A' for Active; 'I' for Inactive)
REMARK    1  A    between atoms: C_4  and  C_6
REMARK                            x       y       z     vdW  Elec       q    Type
REMARK                         _______ _______ _______ _____ _____    ______ ____
ROOT
ATOM      1  C   UNL     1      10.671   2.655  23.221  0.00  0.00    +0.159 A 
ATOM      2  N   UNL     1      10.154   2.219  22.028  0.00  0.00    -0.337 N 
ATOM      3  H   UNL     1      10.009   2.816  21.226  0.00  0.00    +0.167 HD
ATOM      4  C   UNL     1       9.891   0.881  22.135  0.00  0.00    +0.067 A 
ATOM      5  C   UNL     1      10.275   0.564  23.434  0.00  0.00    +0.090 A 
ATOM      6  C   UNL     1      10.136  -0.757  23.885  0.00  0.00    +0.030 A 
ATOM      7  C   UNL     1       9.613  -1.716  23.009  0.00  0.00    +0.002 A 
ATOM      8  C   UNL     1       9.235  -1.367  21.709  0.00  0.00    +0.002 A 
ATOM      9  C   UNL     1       9.366  -0.054  21.240  0.00  0.00    +0.028 A 
ATOM     10  N   UNL     1      10.755   1.671  24.093  0.00  0.00    -0.226 NA
ENDROOT
BRANCH   1  14
ATOM     11  N   UNL     1      10.943   6.119  23.946  0.00  0.00    -0.284 N 
ATOM     12  H   UNL     1      10.491   6.981  24.233  0.00  0.00    +0.188 HD
ATOM     13  N   UNL     1      10.195   5.004  23.850  0.00  0.00    -0.171 NA
ATOM     14  C   UNL     1      11.073   4.069  23.457  0.00  0.00    +0.127 A 
ATOM     15  C   UNL     1      12.373   4.594  23.306  0.00  0.00    +0.052 A 
ATOM     16  C   UNL     1      12.255   5.924  23.629  0.00  0.00    +0.105 A 
ENDBRANCH   1  14
TORSDOF 1
ENDMDL
MODEL 3
REMARK VINA RESULT:      -6.3      0.122      1.556
REMARK  Name = 
REMARK  1 active torsions:
REMARK  status: ('A' for Active; 'I' for Inactive)
REMARK    1  A    between atoms: C_4  and  C_6
REMARK                            x       y       z     vdW  Elec       q    Type
REMARK                         _______ _______ _______ _____ _____    ______ ____
ROOT
ATOM      1  C   UNL     1       9.403  -2.360  24.289  0.00  0.00    +0.159 A 
ATOM      2  N   UNL     1       9.253  -2.090  22.953  0.00  0.00    -0.337 N 
ATOM      3  H   UNL     1       8.986  -2.780  22.266  0.00  0.00    +0.167 HD
ATOM      4  C   UNL     1       9.521  -0.764  22.748  0.00  0.00    +0.067 A 
ATOM      5  C   UNL     1       9.832  -0.282  24.016  0.00  0.00    +0.090 A 
ATOM      6  C   UNL     1      10.165   1.072  24.170  0.00  0.00    +0.030 A 
ATOM      7  C   UNL     1      10.172   1.896  23.038  0.00  0.00    +0.002 A 
ATOM      8  C   UNL     1       9.856   1.383  21.777  0.00  0.00    +0.002 A 
ATOM      9  C   UNL     1       9.522   0.035  21.602  0.00  0.00    +0.028 A 
ATOM     10  N   UNL     1       9.755  -1.280  24.958  0.00  0.00    -0.226 NA
ENDROOT
BRANCH   1  14
ATOM     11  N   UNL     1       9.535  -5.725  25.409  0.00  0.00    -0.284 N 
ATOM     12  H   UNL     1      10.052  -6.596  25.473  0.00  0.00    +0.188 HD
ATOM     13  N   UNL     1      10.109  -4.685  24.776  0.00  0.00    -0.171 NA
ATOM     14  C   UNL     1       9.186  -3.714  24.867  0.00  0.00    +0.127 A 
ATOM     15  C   UNL     1       8.034  -4.143  25.557  0.00  0.00    +0.052 A 
ATOM     16  C   UNL     1       8.291  -5.449  25.895  0.00  0.00    +0.105 A 
ENDBRANCH   1  14
TORSDOF 1
ENDMDL
MODEL 4
REMARK VINA RESULT:      -6.0      1.960      5.550
REMARK  Name = 
REMARK  1 active torsions:
REMARK  status: ('A' for Active; 'I' for Inactive)
REMARK    1  A    between atoms: C_4  and  C_6
REMARK                            x       y       z     vdW  Elec       q    Type
REMARK                         _______ _______ _______ _____ _____    ______ ____
ROOT
ATOM      1  C   UNL     1       9.303  -0.942  23.099  0.00  0.00    +0.159 A 
ATOM      2  N   UNL     1       9.823  -1.694  24.121  0.00  0.00    -0.337 N 
ATOM      3  H   UNL     1      10.530  -1.361  24.761  0.00  0.00    +0.167 HD
ATOM      4  C   UNL     1       9.222  -2.923  24.102  0.00  0.00    +0.067 A 
ATOM      5  C   UNL     1       8.337  -2.850  23.031  0.00  0.00    +0.090 A 
ATOM      6  C   UNL     1       7.543  -3.964  22.723  0.00  0.00    +0.030 A 
ATOM      7  C   UNL     1       7.668  -5.117  23.508  0.00  0.00    +0.002 A 
ATOM      8  C   UNL     1       8.566  -5.161  24.578  0.00  0.00    +0.002 A 
ATOM      9  C   UNL     1       9.368  -4.059  24.901  0.00  0.00    +0.028 A 
ATOM     10  N   UNL     1       8.399  -1.620  22.421  0.00  0.00    -0.226 NA
ENDROOT
BRANCH   1  14
ATOM     11  N   UNL     1      10.116   2.253  21.786  0.00  0.00    -0.284 N 
ATOM     12  H   UNL     1      10.142   2.880  20.988  0.00  0.00    +0.188 HD
ATOM     13  N   UNL     1       9.629   1.011  21.610  0.00  0.00    -0.171 NA
ATOM     14  C   UNL     1       9.734   0.457  22.827  0.00  0.00    +0.127 A 
ATOM     15  C   UNL     1      10.285   1.349  23.769  0.00  0.00    +0.052 A 
ATOM     16  C   UNL     1      10.522   2.504  23.064  0.00  0.00    +0.105 A 
ENDBRANCH   1  14
TORSDOF 1
ENDMDL
MODEL 5
REMARK VINA RESULT:      -5.9      3.423      6.590
REMARK  Name = 
REMARK  1 active torsions:
REMARK  status: ('A' for Active; 'I' for Inactive)
REMARK    1  A    between atoms: C_4  and  C_6
REMARK                            x       y       z     vdW  Elec       q    Type
REMARK                         _______ _______ _______ _____ _____    ______ ____
ROOT
ATOM      1  C   UNL     1      10.523   2.510  23.224  0.00  0.00    +0.159 A 
ATOM      2  N   UNL     1      10.571   1.546  24.198  0.00  0.00    -0.337 N 
ATOM      3  H   UNL     1      10.850   1.724  25.152  0.00  0.00    +0.167 HD
ATOM      4  C   UNL     1      10.182   0.356  23.647  0.00  0.00    +0.067 A 
ATOM      5  C   UNL     1       9.909   0.671  22.319  0.00  0.00    +0.090 A 
ATOM      6  C   UNL     1       9.477  -0.342  21.451  0.00  0.00    +0.030 A 
ATOM      7  C   UNL     1       9.333  -1.642  21.952  0.00  0.00    +0.002 A 
ATOM      8  C   UNL     1       9.616  -1.929  23.290  0.00  0.00    +0.002 A 
ATOM      9  C   UNL     1      10.049  -0.931  24.173  0.00  0.00    +0.028 A 
ATOM     10  N   UNL     1      10.125   2.006  22.073  0.00  0.00    -0.226 NA
ENDROOT
BRANCH   1  14
ATOM     11  N   UNL     1      12.036   5.692  23.643  0.00  0.00    -0.284 N 
ATOM     12  H   UNL     1      12.873   6.266  23.599  0.00  0.00    +0.188 HD
ATOM     13  N   UNL     1      12.134   4.390  23.317  0.00  0.00    -0.171 NA
ATOM     14  C   UNL     1      10.883   3.931  23.479  0.00  0.00    +0.127 A 
ATOM     15  C   UNL     1       9.999   4.944  23.905  0.00  0.00    +0.052 A 
ATOM     16  C   UNL     1      10.777   6.072  24.002  0.00  0.00    +0.105 A 
ENDBRANCH   1  14
TORSDOF 1
ENDMDL
MODEL 6
REMARK VINA RESULT:      -5.8      1.274      1.994
REMARK  Name = 
REMARK  1 active torsions:
REMARK  status: ('A' for Active; 'I' for Inactive)
REMARK    1  A    between atoms: C_4  and  C_6
REMARK                            x       y       z     vdW  Elec       q    Type
REMARK                         _______ _______ _______ _____ _____    ______ ____
ROOT
ATOM      1  C   UNL     1       9.110  -1.969  23.481  0.00  0.00    +0.159 A 
ATOM      2  N   UNL     1       8.973  -1.241  22.327  0.00  0.00    -0.337 N 
ATOM      3  H   UNL     1       8.546  -1.598  21.484  0.00  0.00    +0.167 HD
ATOM      4  C   UNL     1       9.501   0.004  22.536  0.00  0.00    +0.067 A 
ATOM      5  C   UNL     1       9.948  -0.036  23.853  0.00  0.00    +0.090 A 
ATOM      6  C   UNL     1      10.557   1.102  24.403  0.00  0.00    +0.030 A 
ATOM      7  C   UNL     1      10.695   2.243  23.604  0.00  0.00    +0.002 A 
ATOM      8  C   UNL     1      10.238   2.253  22.283  0.00  0.00    +0.002 A 
ATOM      9  C   UNL     1       9.627   1.127  21.716  0.00  0.00    +0.028 A 
ATOM     10  N   UNL     1       9.699  -1.261  24.424  0.00  0.00    -0.226 NA
ENDROOT
BRANCH   1  14
ATOM     11  N   UNL     1       8.523  -5.384  24.246  0.00  0.00    -0.284 N 
ATOM     12  H   UNL     1       8.792  -6.213  24.767  0.00  0.00    +0.188 HD
ATOM     13  N   UNL     1       9.239  -4.257  24.421  0.00  0.00    -0.171 NA
ATOM     14  C   UNL     1       8.638  -3.375  23.608  0.00  0.00    +0.127 A 
ATOM     15  C   UNL     1       7.546  -3.945  22.923  0.00  0.00    +0.052 A 
ATOM     16  C   UNL     1       7.498  -5.247  23.357  0.00  0.00    +0.105 A 
ENDBRANCH   1  14
TORSDOF 1
ENDMDL
MODEL 7
REMARK VINA RESULT:      -5.5      2.440      5.346
REMARK  Name = 
REMARK  1 active torsions:
REMARK  status: ('A' for Active; 'I' for Inactive)
REMARK    1  A    between atoms: C_4  and  C_6
REMARK                            x       y       z     vdW  Elec       q    Type
REMARK                         _______ _______ _______ _____ _____    ______ ____
ROOT
ATOM      1  C   UNL     1       8.752  -2.031  23.672  0.00  0.00    +0.159 A 
ATOM      2  N   UNL     1       7.707  -1.892  22.796  0.00  0.00    -0.337 N 
ATOM      3  H   UNL     1       7.396  -1.005  22.426  0.00  0.00    +0.167 HD
ATOM      4  C   UNL     1       7.195  -3.134  22.532  0.00  0.00    +0.067 A 
ATOM      5  C   UNL     1       7.985  -3.992  23.291  0.00  0.00    +0.090 A 
ATOM      6  C   UNL     1       7.728  -5.370  23.255  0.00  0.00    +0.030 A 
ATOM      7  C   UNL     1       6.679  -5.837  22.452  0.00  0.00    +0.002 A 
ATOM      8  C   UNL     1       5.902  -4.951  21.701  0.00  0.00    +0.002 A 
ATOM      9  C   UNL     1       6.144  -3.572  21.724  0.00  0.00    +0.028 A 
ATOM     10  N   UNL     1       8.943  -3.296  23.990  0.00  0.00    -0.226 NA
ENDROOT
BRANCH   1  14
ATOM     11  N   UNL     1      10.336   0.569  25.494  0.00  0.00    -0.284 N 
ATOM     12  H   UNL     1      10.474   1.047  26.379  0.00  0.00    +0.188 HD
ATOM     13  N   UNL     1       9.501  -0.485  25.457  0.00  0.00    -0.171 NA
ATOM     14  C   UNL     1       9.543  -0.875  24.174  0.00  0.00    +0.127 A 
ATOM     15  C   UNL     1      10.405  -0.067  23.404  0.00  0.00    +0.052 A 
ATOM     16  C   UNL     1      10.903   0.859  24.287  0.00  0.00    +0.105 A 
ENDBRANCH   1  14
TORSDOF 1
ENDMDL
MODEL 8
REMARK VINA RESULT:      -5.4      2.393      3.048
REMARK  Name = 
REMARK  1 active torsions:
REMARK  status: ('A' for Active; 'I' for Inactive)
REMARK    1  A    between atoms: C_4  and  C_6
REMARK                            x       y       z     vdW  Elec       q    Type
REMARK                         _______ _______ _______ _____ _____    ______ ____
ROOT
ATOM      1  C   UNL     1       8.139  -2.732  22.863  0.00  0.00    +0.159 A 
ATOM      2  N   UNL     1       8.520  -1.779  21.954  0.00  0.00    -0.337 N 
ATOM      3  H   UNL     1       8.315  -1.828  20.966  0.00  0.00    +0.167 HD
ATOM      4  C   UNL     1       9.197  -0.794  22.620  0.00  0.00    +0.067 A 
ATOM      5  C   UNL     1       9.193  -1.217  23.946  0.00  0.00    +0.090 A 
ATOM      6  C   UNL     1       9.816  -0.424  24.919  0.00  0.00    +0.030 A 
ATOM      7  C   UNL     1      10.426   0.773  24.523  0.00  0.00    +0.002 A 
ATOM      8  C   UNL     1      10.416   1.172  23.183  0.00  0.00    +0.002 A 
ATOM      9  C   UNL     1       9.798   0.394  22.196  0.00  0.00    +0.028 A 
ATOM     10  N   UNL     1       8.535  -2.417  24.079  0.00  0.00    -0.226 NA
ENDROOT
BRANCH   1  14
ATOM     11  N   UNL     1       5.957  -5.194  21.531  0.00  0.00    -0.284 N 
ATOM     12  H   UNL     1       5.184  -5.423  20.914  0.00  0.00    +0.188 HD
ATOM     13  N   UNL     1       6.368  -3.914  21.595  0.00  0.00    -0.171 NA
ATOM     14  C   UNL     1       7.377  -3.952  22.479  0.00  0.00    +0.127 A 
ATOM     15  C   UNL     1       7.600  -5.254  22.971  0.00  0.00    +0.052 A 
ATOM     16  C   UNL     1       6.665  -6.035  22.338  0.00  0.00    +0.105 A 
ENDBRANCH   1  14
TORSDOF 1
ENDMDL
MODEL 9
REMARK VINA RESULT:      -5.4      2.782      3.101
REMARK  Name = 
REMARK  1 active torsions:
REMARK  status: ('A' for Active; 'I' for Inactive)
REMARK    1  A    between atoms: C_4  and  C_6
REMARK                            x       y       z     vdW  Elec       q    Type
REMARK                         _______ _______ _______ _____ _____    ______ ____
ROOT
ATOM      1  C   UNL     1       7.146  -2.170  22.639  0.00  0.00    +0.159 A 
ATOM      2  N   UNL     1       6.602  -0.948  22.938  0.00  0.00    -0.337 N 
ATOM      3  H   UNL     1       5.669  -0.822  23.304  0.00  0.00    +0.167 HD
ATOM      4  C   UNL     1       7.529   0.018  22.660  0.00  0.00    +0.067 A 
ATOM      5  C   UNL     1       8.628  -0.694  22.188  0.00  0.00    +0.090 A 
ATOM      6  C   UNL     1       9.782   0.004  21.803  0.00  0.00    +0.030 A 
ATOM      7  C   UNL     1       9.789   1.401  21.906  0.00  0.00    +0.002 A 
ATOM      8  C   UNL     1       8.670   2.089  22.382  0.00  0.00    +0.002 A 
ATOM      9  C   UNL     1       7.508   1.411  22.772  0.00  0.00    +0.028 A 
ATOM     10  N   UNL     1       8.376  -2.045  22.181  0.00  0.00    -0.226 NA
ENDROOT
BRANCH   1  14
ATOM     11  N   UNL     1       4.870  -4.891  22.714  0.00  0.00    -0.284 N 
ATOM     12  H   UNL     1       3.963  -5.269  22.458  0.00  0.00    +0.188 HD
ATOM     13  N   UNL     1       5.171  -3.634  22.338  0.00  0.00    -0.171 NA
ATOM     14  C   UNL     1       6.408  -3.449  22.824  0.00  0.00    +0.127 A 
ATOM     15  C   UNL     1       6.885  -4.588  23.504  0.00  0.00    +0.052 A 
ATOM     16  C   UNL     1       5.866  -5.505  23.416  0.00  0.00    +0.105 A 
ENDBRANCH   1  14
TORSDOF 1
ENDMDL
