MODEL 1
REMARK VINA RESULT:      -7.4      0.000      0.000
REMARK  Name = 
REMARK  6 active torsions:
REMARK  status: ('A' for Active; 'I' for Inactive)
REMARK    1  A    between atoms: C_1  and  N_2
REMARK    2  A    between atoms: C_5  and  C_11
REMARK    3  A    between atoms: C_7  and  O_9
REMARK    4  A    between atoms: C_12  and  O_13
REMARK    5  A    between atoms: C_15  and  O_16
REMARK    6  A    between atoms: C_20  and  C_24
REMARK                            x       y       z     vdW  Elec       q    Type
REMARK                         _______ _______ _______ _____ _____    ______ ____
ROOT
ATOM      1  C   UNL     1       5.623  -5.500  25.781  0.00  0.00    +0.043 A 
ATOM      2  C   UNL     1       6.096  -4.691  24.683  0.00  0.00    +0.150 A 
ATOM      3  O   UNL     1       7.033  -3.690  24.914  0.00  0.00    -0.454 OA
ATOM      4  C   UNL     1       7.414  -2.817  23.883  0.00  0.00    +0.141 A 
ATOM      5  C   UNL     1       6.912  -2.897  22.645  0.00  0.00    +0.098 A 
ATOM      6  C   UNL     1       6.039  -4.007  22.279  0.00  0.00    +0.197 A 
ATOM      7  O   UNL     1       5.668  -4.080  21.115  0.00  0.00    -0.287 OA
ATOM      8  C   UNL     1       5.648  -4.928  23.356  0.00  0.00    +0.106 A 
ATOM      9  C   UNL     1       4.819  -6.008  23.063  0.00  0.00    +0.135 A 
ATOM     10  C   UNL     1       4.382  -6.816  24.087  0.00  0.00    +0.092 A 
ATOM     11  C   UNL     1       4.757  -6.563  25.407  0.00  0.00    +0.127 A 
ENDROOT
BRANCH   1  16
ATOM     12  C   UNL     1       4.084  -4.013  30.317  0.00  0.00    +0.105 C 
ATOM     13  N   UNL     1       3.826  -4.233  28.894  0.00  0.00    -0.303 NA
ATOM     14  C   UNL     1       3.959  -5.654  28.546  0.00  0.00    +0.116 C 
ATOM     15  C   UNL     1       5.428  -6.111  28.392  0.00  0.00    +0.136 C 
ATOM     16  C   UNL     1       6.124  -5.308  27.248  0.00  0.00    +0.057 C 
ATOM     17  C   UNL     1       6.087  -3.871  27.826  0.00  0.00    +0.026 C 
ATOM     18  C   UNL     1       4.647  -3.375  28.025  0.00  0.00    +0.085 C 
BRANCH  15  19
ATOM     19  O   UNL     1       5.520  -7.524  28.253  0.00  0.00    -0.390 OA
ATOM     20  H   UNL     1       5.852  -7.887  29.100  0.00  0.00    +0.210 HD
ENDBRANCH  15  19
ENDBRANCH   1  16
BRANCH   4  21
ATOM     21  C   UNL     1       8.333  -1.688  24.233  0.00  0.00    +0.036 A 
ATOM     22  C   UNL     1       8.145  -0.774  25.304  0.00  0.00    +0.052 A 
ATOM     23 CL   UNL     1       6.698  -0.687  26.258  0.00  0.00    -0.083 Cl
ATOM     24  C   UNL     1       9.127   0.175  25.644  0.00  0.00    +0.021 A 
ATOM     25  C   UNL     1      10.288   0.289  24.889  0.00  0.00    +0.001 A 
ATOM     26  C   UNL     1      10.469  -0.545  23.793  0.00  0.00    +0.001 A 
ATOM     27  C   UNL     1       9.514  -1.526  23.483  0.00  0.00    +0.013 A 
ENDBRANCH   4  21
BRANCH   9  28
ATOM     28  O   UNL     1       4.432  -6.314  21.793  0.00  0.00    -0.506 OA
ATOM     29  H   UNL     1       4.304  -5.505  21.274  0.00  0.00    +0.292 HD
ENDBRANCH   9  28
BRANCH  11  30
ATOM     30  O   UNL     1       4.179  -7.510  26.202  0.00  0.00    -0.506 OA
ATOM     31  H   UNL     1       4.815  -7.955  26.791  0.00  0.00    +0.292 HD
ENDBRANCH  11  30
TORSDOF 5
ENDMDL
MODEL 2
REMARK VINA RESULT:      -7.3      1.067      1.361
REMARK  Name = 
REMARK  6 active torsions:
REMARK  status: ('A' for Active; 'I' for Inactive)
REMARK    1  A    between atoms: C_1  and  N_2
REMARK    2  A    between atoms: C_5  and  C_11
REMARK    3  A    between atoms: C_7  and  O_9
REMARK    4  A    between atoms: C_12  and  O_13
REMARK    5  A    between atoms: C_15  and  O_16
REMARK    6  A    between atoms: C_20  and  C_24
REMARK                            x       y       z     vdW  Elec       q    Type
REMARK                         _______ _______ _______ _____ _____    ______ ____
ROOT
ATOM      1  C   UNL     1       5.643  -5.509  25.785  0.00  0.00    +0.043 A 
ATOM      2  C   UNL     1       6.154  -4.725  24.686  0.00  0.00    +0.150 A 
ATOM      3  O   UNL     1       7.122  -3.754  24.919  0.00  0.00    -0.454 OA
ATOM      4  C   UNL     1       7.542  -2.902  23.886  0.00  0.00    +0.141 A 
ATOM      5  C   UNL     1       7.050  -2.974  22.644  0.00  0.00    +0.098 A 
ATOM      6  C   UNL     1       6.144  -4.057  22.277  0.00  0.00    +0.197 A 
ATOM      7  O   UNL     1       5.782  -4.126  21.110  0.00  0.00    -0.287 OA
ATOM      8  C   UNL     1       5.712  -4.957  23.356  0.00  0.00    +0.106 A 
ATOM      9  C   UNL     1       4.849  -6.010  23.063  0.00  0.00    +0.135 A 
ATOM     10  C   UNL     1       4.375  -6.796  24.088  0.00  0.00    +0.092 A 
ATOM     11  C   UNL     1       4.745  -6.545  25.410  0.00  0.00    +0.127 A 
ENDROOT
BRANCH   1  16
ATOM     12  C   UNL     1       4.088  -4.011  30.312  0.00  0.00    +0.105 C 
ATOM     13  N   UNL     1       3.837  -4.227  28.887  0.00  0.00    -0.303 NA
ATOM     14  C   UNL     1       3.959  -5.650  28.538  0.00  0.00    +0.116 C 
ATOM     15  C   UNL     1       5.424  -6.120  28.394  0.00  0.00    +0.136 C 
ATOM     16  C   UNL     1       6.136  -5.324  27.256  0.00  0.00    +0.057 C 
ATOM     17  C   UNL     1       6.108  -3.887  27.835  0.00  0.00    +0.026 C 
ATOM     18  C   UNL     1       4.673  -3.377  28.024  0.00  0.00    +0.085 C 
BRANCH  15  19
ATOM     19  O   UNL     1       5.504  -7.534  28.255  0.00  0.00    -0.390 OA
ATOM     20  H   UNL     1       5.457  -7.926  29.151  0.00  0.00    +0.210 HD
ENDBRANCH  15  19
ENDBRANCH   1  16
BRANCH   4  21
ATOM     21  C   UNL     1       8.496  -1.802  24.237  0.00  0.00    +0.036 A 
ATOM     22  C   UNL     1       9.335  -1.114  23.319  0.00  0.00    +0.052 A 
ATOM     23 CL   UNL     1       9.546  -1.586  21.662  0.00  0.00    -0.083 Cl
ATOM     24  C   UNL     1      10.102  -0.004  23.713  0.00  0.00    +0.021 A 
ATOM     25  C   UNL     1      10.113   0.411  25.039  0.00  0.00    +0.001 A 
ATOM     26  C   UNL     1       9.357  -0.284  25.974  0.00  0.00    +0.001 A 
ATOM     27  C   UNL     1       8.551  -1.361  25.573  0.00  0.00    +0.013 A 
ENDBRANCH   4  21
BRANCH   9  28
ATOM     28  O   UNL     1       4.464  -6.312  21.791  0.00  0.00    -0.506 OA
ATOM     29  H   UNL     1       4.837  -7.166  21.519  0.00  0.00    +0.292 HD
ENDBRANCH   9  28
BRANCH  11  30
ATOM     30  O   UNL     1       4.128  -7.466  26.206  0.00  0.00    -0.506 OA
ATOM     31  H   UNL     1       4.403  -8.381  26.018  0.00  0.00    +0.292 HD
ENDBRANCH  11  30
TORSDOF 5
ENDMDL
MODEL 3
REMARK VINA RESULT:      -7.1      4.079      7.630
REMARK  Name = 
REMARK  6 active torsions:
REMARK  status: ('A' for Active; 'I' for Inactive)
REMARK    1  A    between atoms: C_1  and  N_2
REMARK    2  A    between atoms: C_5  and  C_11
REMARK    3  A    between atoms: C_7  and  O_9
REMARK    4  A    between atoms: C_12  and  O_13
REMARK    5  A    between atoms: C_15  and  O_16
REMARK    6  A    between atoms: C_20  and  C_24
REMARK                            x       y       z     vdW  Elec       q    Type
REMARK                         _______ _______ _______ _____ _____    ______ ____
ROOT
ATOM      1  C   UNL     1       7.650   1.040  22.745  0.00  0.00    +0.043 A 
ATOM      2  C   UNL     1       7.506  -0.321  23.202  0.00  0.00    +0.150 A 
ATOM      3  O   UNL     1       6.315  -0.730  23.793  0.00  0.00    -0.454 OA
ATOM      4  C   UNL     1       6.199  -2.013  24.352  0.00  0.00    +0.141 A 
ATOM      5  C   UNL     1       7.202  -2.899  24.344  0.00  0.00    +0.098 A 
ATOM      6  C   UNL     1       8.432  -2.607  23.615  0.00  0.00    +0.197 A 
ATOM      7  O   UNL     1       9.289  -3.478  23.572  0.00  0.00    -0.287 OA
ATOM      8  C   UNL     1       8.550  -1.267  23.021  0.00  0.00    +0.106 A 
ATOM      9  C   UNL     1       9.700  -0.934  22.310  0.00  0.00    +0.135 A 
ATOM     10  C   UNL     1       9.848   0.347  21.832  0.00  0.00    +0.092 A 
ATOM     11  C   UNL     1       8.863   1.311  22.056  0.00  0.00    +0.127 A 
ENDROOT
BRANCH   1  16
ATOM     12  C   UNL     1       5.881   4.567  25.842  0.00  0.00    +0.105 C 
ATOM     13  N   UNL     1       6.839   3.504  25.538  0.00  0.00    -0.303 NA
ATOM     14  C   UNL     1       7.644   3.841  24.355  0.00  0.00    +0.116 C 
ATOM     15  C   UNL     1       6.899   3.607  23.021  0.00  0.00    +0.136 C 
ATOM     16  C   UNL     1       6.511   2.101  22.878  0.00  0.00    +0.057 C 
ATOM     17  C   UNL     1       5.523   1.934  24.060  0.00  0.00    +0.026 C 
ATOM     18  C   UNL     1       6.206   2.181  25.412  0.00  0.00    +0.085 C 
BRANCH  15  19
ATOM     19  O   UNL     1       7.631   4.128  21.919  0.00  0.00    -0.390 OA
ATOM     20  H   UNL     1       7.174   4.937  21.611  0.00  0.00    +0.210 HD
ENDBRANCH  15  19
ENDBRANCH   1  16
BRANCH   4  21
ATOM     21  C   UNL     1       4.932  -2.342  25.079  0.00  0.00    +0.036 A 
ATOM     22  C   UNL     1       4.039  -3.395  24.742  0.00  0.00    +0.052 A 
ATOM     23 CL   UNL     1       4.163  -4.344  23.295  0.00  0.00    -0.083 Cl
ATOM     24  C   UNL     1       2.940  -3.717  25.560  0.00  0.00    +0.021 A 
ATOM     25  C   UNL     1       2.658  -2.962  26.692  0.00  0.00    +0.001 A 
ATOM     26  C   UNL     1       3.474  -1.884  27.009  0.00  0.00    +0.001 A 
ATOM     27  C   UNL     1       4.599  -1.592  26.223  0.00  0.00    +0.013 A 
ENDBRANCH   4  21
BRANCH   9  28
ATOM     28  O   UNL     1      10.688  -1.835  22.048  0.00  0.00    -0.506 OA
ATOM     29  H   UNL     1      10.348  -2.741  22.120  0.00  0.00    +0.292 HD
ENDBRANCH   9  28
BRANCH  11  30
ATOM     30  O   UNL     1       9.273   2.479  21.481  0.00  0.00    -0.506 OA
ATOM     31  H   UNL     1      10.071   2.376  20.931  0.00  0.00    +0.292 HD
ENDBRANCH  11  30
TORSDOF 5
ENDMDL
MODEL 4
REMARK VINA RESULT:      -6.9      3.341      6.988
REMARK  Name = 
REMARK  6 active torsions:
REMARK  status: ('A' for Active; 'I' for Inactive)
REMARK    1  A    between atoms: C_1  and  N_2
REMARK    2  A    between atoms: C_5  and  C_11
REMARK    3  A    between atoms: C_7  and  O_9
REMARK    4  A    between atoms: C_12  and  O_13
REMARK    5  A    between atoms: C_15  and  O_16
REMARK    6  A    between atoms: C_20  and  C_24
REMARK                            x       y       z     vdW  Elec       q    Type
REMARK                         _______ _______ _______ _____ _____    ______ ____
ROOT
ATOM      1  C   UNL     1       8.258  -2.362  23.806  0.00  0.00    +0.043 A 
ATOM      2  C   UNL     1       7.436  -3.252  24.590  0.00  0.00    +0.150 A 
ATOM      3  O   UNL     1       6.054  -3.099  24.588  0.00  0.00    -0.454 OA
ATOM      4  C   UNL     1       5.247  -3.875  25.435  0.00  0.00    +0.141 A 
ATOM      5  C   UNL     1       5.749  -4.791  26.272  0.00  0.00    +0.098 A 
ATOM      6  C   UNL     1       7.170  -5.120  26.231  0.00  0.00    +0.197 A 
ATOM      7  O   UNL     1       7.569  -6.017  26.960  0.00  0.00    -0.287 OA
ATOM      8  C   UNL     1       8.013  -4.314  25.336  0.00  0.00    +0.106 A 
ATOM      9  C   UNL     1       9.377  -4.586  25.253  0.00  0.00    +0.135 A 
ATOM     10  C   UNL     1      10.179  -3.775  24.485  0.00  0.00    +0.092 A 
ATOM     11  C   UNL     1       9.643  -2.686  23.795  0.00  0.00    +0.127 A 
ENDROOT
BRANCH   1  16
ATOM     12  C   UNL     1       8.327   2.623  23.261  0.00  0.00    +0.105 C 
ATOM     13  N   UNL     1       8.743   1.415  23.972  0.00  0.00    -0.303 NA
ATOM     14  C   UNL     1       9.519   0.526  23.095  0.00  0.00    +0.116 C 
ATOM     15  C   UNL     1       8.640  -0.297  22.127  0.00  0.00    +0.136 C 
ATOM     16  C   UNL     1       7.664  -1.212  22.932  0.00  0.00    +0.057 C 
ATOM     17  C   UNL     1       6.790  -0.155  23.653  0.00  0.00    +0.026 C 
ATOM     18  C   UNL     1       7.620   0.711  24.611  0.00  0.00    +0.085 C 
BRANCH  15  19
ATOM     19  O   UNL     1       9.431  -0.989  21.168  0.00  0.00    -0.390 OA
ATOM     20  H   UNL     1      10.205  -0.427  20.957  0.00  0.00    +0.210 HD
ENDBRANCH  15  19
ENDBRANCH   1  16
BRANCH   4  21
ATOM     21  C   UNL     1       3.781  -3.572  25.469  0.00  0.00    +0.036 A 
ATOM     22  C   UNL     1       2.791  -4.203  24.668  0.00  0.00    +0.052 A 
ATOM     23 CL   UNL     1       3.150  -5.285  23.360  0.00  0.00    -0.083 Cl
ATOM     24  C   UNL     1       1.420  -3.951  24.860  0.00  0.00    +0.021 A 
ATOM     25  C   UNL     1       0.999  -3.019  25.800  0.00  0.00    +0.001 A 
ATOM     26  C   UNL     1       1.947  -2.336  26.550  0.00  0.00    +0.001 A 
ATOM     27  C   UNL     1       3.313  -2.622  26.396  0.00  0.00    +0.013 A 
ENDBRANCH   4  21
BRANCH   9  28
ATOM     28  O   UNL     1       9.955  -5.642  25.891  0.00  0.00    -0.506 OA
ATOM     29  H   UNL     1      10.834  -5.822  25.521  0.00  0.00    +0.292 HD
ENDBRANCH   9  28
BRANCH  11  30
ATOM     30  O   UNL     1      10.657  -2.063  23.128  0.00  0.00    -0.506 OA
ATOM     31  H   UNL     1      11.510  -2.114  23.595  0.00  0.00    +0.292 HD
ENDBRANCH  11  30
TORSDOF 5
ENDMDL
MODEL 5
REMARK VINA RESULT:      -6.9      3.825      6.628
REMARK  Name = 
REMARK  6 active torsions:
REMARK  status: ('A' for Active; 'I' for Inactive)
REMARK    1  A    between atoms: C_1  and  N_2
REMARK    2  A    between atoms: C_5  and  C_11
REMARK    3  A    between atoms: C_7  and  O_9
REMARK    4  A    between atoms: C_12  and  O_13
REMARK    5  A    between atoms: C_15  and  O_16
REMARK    6  A    between atoms: C_20  and  C_24
REMARK                            x       y       z     vdW  Elec       q    Type
REMARK                         _______ _______ _______ _____ _____    ______ ____
ROOT
ATOM      1  C   UNL     1       9.069  -0.840  24.270  0.00  0.00    +0.043 A 
ATOM      2  C   UNL     1       8.621   0.510  24.512  0.00  0.00    +0.150 A 
ATOM      3  O   UNL     1       7.944   0.815  25.687  0.00  0.00    -0.454 OA
ATOM      4  C   UNL     1       7.396   2.093  25.885  0.00  0.00    +0.141 A 
ATOM      5  C   UNL     1       7.496   3.071  24.978  0.00  0.00    +0.098 A 
ATOM      6  C   UNL     1       8.316   2.884  23.786  0.00  0.00    +0.197 A 
ATOM      7  O   UNL     1       8.439   3.833  23.025  0.00  0.00    -0.287 OA
ATOM      8  C   UNL     1       8.898   1.549  23.583  0.00  0.00    +0.106 A 
ATOM      9  C   UNL     1       9.693   1.314  22.464  0.00  0.00    +0.135 A 
ATOM     10  C   UNL     1      10.163   0.043  22.228  0.00  0.00    +0.092 A 
ATOM     11  C   UNL     1       9.849  -1.007  23.093  0.00  0.00    +0.127 A 
ENDROOT
BRANCH   1  16
ATOM     12  C   UNL     1       6.094  -4.786  25.127  0.00  0.00    +0.105 C 
ATOM     13  N   UNL     1       6.463  -3.621  24.323  0.00  0.00    -0.303 NA
ATOM     14  C   UNL     1       7.812  -3.772  23.760  0.00  0.00    +0.116 C 
ATOM     15  C   UNL     1       8.936  -3.477  24.779  0.00  0.00    +0.136 C 
ATOM     16  C   UNL     1       8.831  -2.004  25.284  0.00  0.00    +0.057 C 
ATOM     17  C   UNL     1       7.465  -2.036  26.016  0.00  0.00    +0.026 C 
ATOM     18  C   UNL     1       6.312  -2.352  25.053  0.00  0.00    +0.085 C 
BRANCH  15  19
ATOM     19  O   UNL     1      10.213  -3.825  24.257  0.00  0.00    -0.390 OA
ATOM     20  H   UNL     1      10.893  -3.428  24.839  0.00  0.00    +0.210 HD
ENDBRANCH  15  19
ENDBRANCH   1  16
BRANCH   4  21
ATOM     21  C   UNL     1       6.576   2.313  27.118  0.00  0.00    +0.036 A 
ATOM     22  C   UNL     1       5.401   1.592  27.467  0.00  0.00    +0.052 A 
ATOM     23 CL   UNL     1       4.603   0.475  26.406  0.00  0.00    -0.083 Cl
ATOM     24  C   UNL     1       4.768   1.773  28.709  0.00  0.00    +0.021 A 
ATOM     25  C   UNL     1       5.239   2.721  29.609  0.00  0.00    +0.001 A 
ATOM     26  C   UNL     1       6.344   3.490  29.269  0.00  0.00    +0.001 A 
ATOM     27  C   UNL     1       7.008   3.276  28.051  0.00  0.00    +0.013 A 
ENDBRANCH   4  21
BRANCH   9  28
ATOM     28  O   UNL     1      10.045   2.301  21.592  0.00  0.00    -0.506 OA
ATOM     29  H   UNL     1       9.583   2.187  20.747  0.00  0.00    +0.292 HD
ENDBRANCH   9  28
BRANCH  11  30
ATOM     30  O   UNL     1      10.437  -2.142  22.615  0.00  0.00    -0.506 OA
ATOM     31  H   UNL     1      10.317  -2.911  23.201  0.00  0.00    +0.292 HD
ENDBRANCH  11  30
TORSDOF 5
ENDMDL
MODEL 6
REMARK VINA RESULT:      -6.7      4.261      7.399
REMARK  Name = 
REMARK  6 active torsions:
REMARK  status: ('A' for Active; 'I' for Inactive)
REMARK    1  A    between atoms: C_1  and  N_2
REMARK    2  A    between atoms: C_5  and  C_11
REMARK    3  A    between atoms: C_7  and  O_9
REMARK    4  A    between atoms: C_12  and  O_13
REMARK    5  A    between atoms: C_15  and  O_16
REMARK    6  A    between atoms: C_20  and  C_24
REMARK                            x       y       z     vdW  Elec       q    Type
REMARK                         _______ _______ _______ _____ _____    ______ ____
ROOT
ATOM      1  C   UNL     1       8.482  -0.176  23.353  0.00  0.00    +0.043 A 
ATOM      2  C   UNL     1       7.972  -0.909  24.487  0.00  0.00    +0.150 A 
ATOM      3  O   UNL     1       6.889  -0.412  25.203  0.00  0.00    -0.454 OA
ATOM      4  C   UNL     1       6.456  -1.049  26.377  0.00  0.00    +0.141 A 
ATOM      5  C   UNL     1       7.045  -2.148  26.863  0.00  0.00    +0.098 A 
ATOM      6  C   UNL     1       8.090  -2.819  26.097  0.00  0.00    +0.197 A 
ATOM      7  O   UNL     1       8.543  -3.862  26.545  0.00  0.00    -0.287 OA
ATOM      8  C   UNL     1       8.535  -2.159  24.861  0.00  0.00    +0.106 A 
ATOM      9  C   UNL     1       9.528  -2.756  24.088  0.00  0.00    +0.135 A 
ATOM     10  C   UNL     1      10.007  -2.094  22.982  0.00  0.00    +0.092 A 
ATOM     11  C   UNL     1       9.514  -0.836  22.632  0.00  0.00    +0.127 A 
ENDROOT
BRANCH   1  16
ATOM     12  C   UNL     1       8.379   4.722  24.430  0.00  0.00    +0.105 C 
ATOM     13  N   UNL     1       8.825   3.362  24.731  0.00  0.00    -0.303 NA
ATOM     14  C   UNL     1       9.650   2.823  23.640  0.00  0.00    +0.116 C 
ATOM     15  C   UNL     1       8.820   2.328  22.433  0.00  0.00    +0.136 C 
ATOM     16  C   UNL     1       7.863   1.176  22.874  0.00  0.00    +0.057 C 
ATOM     17  C   UNL     1       6.937   1.922  23.868  0.00  0.00    +0.026 C 
ATOM     18  C   UNL     1       7.716   2.459  25.078  0.00  0.00    +0.085 C 
BRANCH  15  19
ATOM     19  O   UNL     1       9.655   2.002  21.329  0.00  0.00    -0.390 OA
ATOM     20  H   UNL     1       9.837   2.829  20.837  0.00  0.00    +0.210 HD
ENDBRANCH  15  19
ENDBRANCH   1  16
BRANCH   4  21
ATOM     21  C   UNL     1       5.364  -0.390  27.162  0.00  0.00    +0.036 A 
ATOM     22  C   UNL     1       5.544   0.660  28.103  0.00  0.00    +0.052 A 
ATOM     23 CL   UNL     1       7.094   1.208  28.656  0.00  0.00    -0.083 Cl
ATOM     24  C   UNL     1       4.447   1.311  28.697  0.00  0.00    +0.021 A 
ATOM     25  C   UNL     1       3.149   0.894  28.428  0.00  0.00    +0.001 A 
ATOM     26  C   UNL     1       2.945  -0.175  27.565  0.00  0.00    +0.001 A 
ATOM     27  C   UNL     1       4.035  -0.793  26.933  0.00  0.00    +0.013 A 
ENDBRANCH   4  21
BRANCH   9  28
ATOM     28  O   UNL     1      10.038  -3.988  24.370  0.00  0.00    -0.506 OA
ATOM     29  H   UNL     1      10.374  -4.014  25.280  0.00  0.00    +0.292 HD
ENDBRANCH   9  28
BRANCH  11  30
ATOM     30  O   UNL     1      10.166  -0.420  21.508  0.00  0.00    -0.506 OA
ATOM     31  H   UNL     1      11.133  -0.376  21.621  0.00  0.00    +0.292 HD
ENDBRANCH  11  30
TORSDOF 5
ENDMDL
MODEL 7
REMARK VINA RESULT:      -6.7      2.967      4.004
REMARK  Name = 
REMARK  6 active torsions:
REMARK  status: ('A' for Active; 'I' for Inactive)
REMARK    1  A    between atoms: C_1  and  N_2
REMARK    2  A    between atoms: C_5  and  C_11
REMARK    3  A    between atoms: C_7  and  O_9
REMARK    4  A    between atoms: C_12  and  O_13
REMARK    5  A    between atoms: C_15  and  O_16
REMARK    6  A    between atoms: C_20  and  C_24
REMARK                            x       y       z     vdW  Elec       q    Type
REMARK                         _______ _______ _______ _____ _____    ______ ____
ROOT
ATOM      1  C   UNL     1       6.600  -3.727  25.849  0.00  0.00    +0.043 A 
ATOM      2  C   UNL     1       7.478  -2.882  25.077  0.00  0.00    +0.150 A 
ATOM      3  O   UNL     1       7.076  -1.596  24.733  0.00  0.00    -0.454 OA
ATOM      4  C   UNL     1       7.864  -0.805  23.882  0.00  0.00    +0.141 A 
ATOM      5  C   UNL     1       9.024  -1.230  23.367  0.00  0.00    +0.098 A 
ATOM      6  C   UNL     1       9.591  -2.505  23.793  0.00  0.00    +0.197 A 
ATOM      7  O   UNL     1      10.690  -2.815  23.354  0.00  0.00    -0.287 OA
ATOM      8  C   UNL     1       8.771  -3.329  24.693  0.00  0.00    +0.106 A 
ATOM      9  C   UNL     1       9.264  -4.554  25.135  0.00  0.00    +0.135 A 
ATOM     10  C   UNL     1       8.461  -5.364  25.903  0.00  0.00    +0.092 A 
ATOM     11  C   UNL     1       7.163  -4.973  26.238  0.00  0.00    +0.127 A 
ENDROOT
BRANCH   1  16
ATOM     12  C   UNL     1       1.768  -5.071  25.822  0.00  0.00    +0.105 C 
ATOM     13  N   UNL     1       3.158  -5.310  25.434  0.00  0.00    -0.303 NA
ATOM     14  C   UNL     1       4.011  -5.500  26.616  0.00  0.00    +0.116 C 
ATOM     15  C   UNL     1       4.391  -4.176  27.315  0.00  0.00    +0.136 C 
ATOM     16  C   UNL     1       5.191  -3.260  26.336  0.00  0.00    +0.057 C 
ATOM     17  C   UNL     1       4.123  -2.983  25.248  0.00  0.00    +0.026 C 
ATOM     18  C   UNL     1       3.689  -4.272  24.536  0.00  0.00    +0.085 C 
BRANCH  15  19
ATOM     19  O   UNL     1       5.044  -4.413  28.556  0.00  0.00    -0.390 OA
ATOM     20  H   UNL     1       5.374  -3.554  28.891  0.00  0.00    +0.210 HD
ENDBRANCH  15  19
ENDBRANCH   1  16
BRANCH   4  21
ATOM     21  C   UNL     1       7.312   0.521  23.457  0.00  0.00    +0.036 A 
ATOM     22  C   UNL     1       7.779   1.294  22.360  0.00  0.00    +0.052 A 
ATOM     23 CL   UNL     1       9.215   0.925  21.458  0.00  0.00    -0.083 Cl
ATOM     24  C   UNL     1       7.115   2.465  21.949  0.00  0.00    +0.021 A 
ATOM     25  C   UNL     1       6.015   2.936  22.656  0.00  0.00    +0.001 A 
ATOM     26  C   UNL     1       5.578   2.239  23.774  0.00  0.00    +0.001 A 
ATOM     27  C   UNL     1       6.207   1.044  24.155  0.00  0.00    +0.013 A 
ENDBRANCH   4  21
BRANCH   9  28
ATOM     28  O   UNL     1      10.526  -4.983  24.854  0.00  0.00    -0.506 OA
ATOM     29  H   UNL     1      11.098  -4.231  24.632  0.00  0.00    +0.292 HD
ENDBRANCH   9  28
BRANCH  11  30
ATOM     30  O   UNL     1       6.602  -5.962  26.993  0.00  0.00    -0.506 OA
ATOM     31  H   UNL     1       6.066  -6.586  26.470  0.00  0.00    +0.292 HD
ENDBRANCH  11  30
TORSDOF 5
ENDMDL
MODEL 8
REMARK VINA RESULT:      -6.7      3.355      6.806
REMARK  Name = 
REMARK  6 active torsions:
REMARK  status: ('A' for Active; 'I' for Inactive)
REMARK    1  A    between atoms: C_1  and  N_2
REMARK    2  A    between atoms: C_5  and  C_11
REMARK    3  A    between atoms: C_7  and  O_9
REMARK    4  A    between atoms: C_12  and  O_13
REMARK    5  A    between atoms: C_15  and  O_16
REMARK    6  A    between atoms: C_20  and  C_24
REMARK                            x       y       z     vdW  Elec       q    Type
REMARK                         _______ _______ _______ _____ _____    ______ ____
ROOT
ATOM      1  C   UNL     1       8.436  -2.129  24.185  0.00  0.00    +0.043 A 
ATOM      2  C   UNL     1       7.610  -2.802  25.157  0.00  0.00    +0.150 A 
ATOM      3  O   UNL     1       6.349  -2.301  25.460  0.00  0.00    -0.454 OA
ATOM      4  C   UNL     1       5.581  -2.873  26.488  0.00  0.00    +0.141 A 
ATOM      5  C   UNL     1       6.006  -3.911  27.216  0.00  0.00    +0.098 A 
ATOM      6  C   UNL     1       7.250  -4.591  26.867  0.00  0.00    +0.197 A 
ATOM      7  O   UNL     1       7.557  -5.583  27.513  0.00  0.00    -0.287 OA
ATOM      8  C   UNL     1       8.048  -4.000  25.784  0.00  0.00    +0.106 A 
ATOM      9  C   UNL     1       9.243  -4.608  25.405  0.00  0.00    +0.135 A 
ATOM     10  C   UNL     1      10.033  -4.005  24.455  0.00  0.00    +0.092 A 
ATOM     11  C   UNL     1       9.653  -2.795  23.873  0.00  0.00    +0.127 A 
ENDROOT
BRANCH   1  16
ATOM     12  C   UNL     1       9.452   2.765  23.755  0.00  0.00    +0.105 C 
ATOM     13  N   UNL     1       9.705   1.461  24.369  0.00  0.00    -0.303 NA
ATOM     14  C   UNL     1      10.153   0.483  23.367  0.00  0.00    +0.116 C 
ATOM     15  C   UNL     1       8.999  -0.095  22.518  0.00  0.00    +0.136 C 
ATOM     16  C   UNL     1       7.976  -0.838  23.434  0.00  0.00    +0.057 C 
ATOM     17  C   UNL     1       7.446   0.332  24.300  0.00  0.00    +0.026 C 
ATOM     18  C   UNL     1       8.560   0.963  25.148  0.00  0.00    +0.085 C 
BRANCH  15  19
ATOM     19  O   UNL     1       9.491  -0.879  21.438  0.00  0.00    -0.390 OA
ATOM     20  H   UNL     1       9.531  -1.810  21.737  0.00  0.00    +0.210 HD
ENDBRANCH  15  19
ENDBRANCH   1  16
BRANCH   4  21
ATOM     21  C   UNL     1       4.288  -2.206  26.841  0.00  0.00    +0.036 A 
ATOM     22  C   UNL     1       4.156  -0.906  27.401  0.00  0.00    +0.052 A 
ATOM     23 CL   UNL     1       5.494   0.042  27.967  0.00  0.00    -0.083 Cl
ATOM     24  C   UNL     1       2.897  -0.306  27.577  0.00  0.00    +0.021 A 
ATOM     25  C   UNL     1       1.734  -1.001  27.270  0.00  0.00    +0.001 A 
ATOM     26  C   UNL     1       1.828  -2.299  26.786  0.00  0.00    +0.001 A 
ATOM     27  C   UNL     1       3.085  -2.883  26.561  0.00  0.00    +0.013 A 
ENDBRANCH   4  21
BRANCH   9  28
ATOM     28  O   UNL     1       9.659  -5.797  25.927  0.00  0.00    -0.506 OA
ATOM     29  H   UNL     1       9.087  -6.062  26.664  0.00  0.00    +0.292 HD
ENDBRANCH   9  28
BRANCH  11  30
ATOM     30  O   UNL     1      10.618  -2.431  22.979  0.00  0.00    -0.506 OA
ATOM     31  H   UNL     1      11.277  -3.130  22.822  0.00  0.00    +0.292 HD
ENDBRANCH  11  30
TORSDOF 5
ENDMDL
MODEL 9
REMARK VINA RESULT:      -6.6      2.518      3.027
REMARK  Name = 
REMARK  6 active torsions:
REMARK  status: ('A' for Active; 'I' for Inactive)
REMARK    1  A    between atoms: C_1  and  N_2
REMARK    2  A    between atoms: C_5  and  C_11
REMARK    3  A    between atoms: C_7  and  O_9
REMARK    4  A    between atoms: C_12  and  O_13
REMARK    5  A    between atoms: C_15  and  O_16
REMARK    6  A    between atoms: C_20  and  C_24
REMARK                            x       y       z     vdW  Elec       q    Type
REMARK                         _______ _______ _______ _____ _____    ______ ____
ROOT
ATOM      1  C   UNL     1       5.647  -3.680  25.928  0.00  0.00    +0.043 A 
ATOM      2  C   UNL     1       6.181  -3.484  24.603  0.00  0.00    +0.150 A 
ATOM      3  O   UNL     1       6.870  -2.314  24.300  0.00  0.00    -0.454 OA
ATOM      4  C   UNL     1       7.291  -2.054  22.986  0.00  0.00    +0.141 A 
ATOM      5  C   UNL     1       7.065  -2.897  21.973  0.00  0.00    +0.098 A 
ATOM      6  C   UNL     1       6.484  -4.211  22.229  0.00  0.00    +0.197 A 
ATOM      7  O   UNL     1       6.367  -4.977  21.283  0.00  0.00    -0.287 OA
ATOM      8  C   UNL     1       6.052  -4.489  23.607  0.00  0.00    +0.106 A 
ATOM      9  C   UNL     1       5.493  -5.728  23.911  0.00  0.00    +0.135 A 
ATOM     10  C   UNL     1       5.008  -5.954  25.177  0.00  0.00    +0.092 A 
ATOM     11  C   UNL     1       5.066  -4.958  26.153  0.00  0.00    +0.127 A 
ENDROOT
BRANCH   1  16
ATOM     12  C   UNL     1       3.909   0.764  27.473  0.00  0.00    +0.105 C 
ATOM     13  N   UNL     1       3.932  -0.324  26.495  0.00  0.00    -0.303 NA
ATOM     14  C   UNL     1       3.483  -1.586  27.098  0.00  0.00    +0.116 C 
ATOM     15  C   UNL     1       4.570  -2.277  27.953  0.00  0.00    +0.136 C 
ATOM     16  C   UNL     1       5.808  -2.625  27.069  0.00  0.00    +0.057 C 
ATOM     17  C   UNL     1       6.291  -1.211  26.661  0.00  0.00    +0.026 C 
ATOM     18  C   UNL     1       5.236  -0.467  25.829  0.00  0.00    +0.085 C 
BRANCH  15  19
ATOM     19  O   UNL     1       4.038  -3.381  28.675  0.00  0.00    -0.390 OA
ATOM     20  H   UNL     1       3.225  -3.675  28.217  0.00  0.00    +0.210 HD
ENDBRANCH  15  19
ENDBRANCH   1  16
BRANCH   4  21
ATOM     21  C   UNL     1       7.917  -0.722  22.709  0.00  0.00    +0.036 A 
ATOM     22  C   UNL     1       9.287  -0.504  22.397  0.00  0.00    +0.052 A 
ATOM     23 CL   UNL     1      10.508  -1.732  22.496  0.00  0.00    -0.083 Cl
ATOM     24  C   UNL     1       9.762   0.765  22.020  0.00  0.00    +0.021 A 
ATOM     25  C   UNL     1       8.911   1.863  22.009  0.00  0.00    +0.001 A 
ATOM     26  C   UNL     1       7.582   1.695  22.376  0.00  0.00    +0.001 A 
ATOM     27  C   UNL     1       7.094   0.420  22.704  0.00  0.00    +0.013 A 
ENDBRANCH   4  21
BRANCH   9  28
ATOM     28  O   UNL     1       5.422  -6.744  23.005  0.00  0.00    -0.506 OA
ATOM     29  H   UNL     1       6.312  -7.017  22.732  0.00  0.00    +0.292 HD
ENDBRANCH   9  28
BRANCH  11  30
ATOM     30  O   UNL     1       4.513  -5.452  27.299  0.00  0.00    -0.506 OA
ATOM     31  H   UNL     1       4.866  -6.325  27.549  0.00  0.00    +0.292 HD
ENDBRANCH  11  30
TORSDOF 5
ENDMDL
