MODEL 1
REMARK VINA RESULT:      -7.9      0.000      0.000
REMARK  Name = 
REMARK  8 active torsions:
REMARK  status: ('A' for Active; 'I' for Inactive)
REMARK    1  A    between atoms: C_7  and  S_30
REMARK    2  A    between atoms: C_13  and  N_15
REMARK    3  A    between atoms: C_16  and  C_18
REMARK    4  A    between atoms: C_18  and  C_19
REMARK    5  A    between atoms: C_18  and  C_20
REMARK    6  A    between atoms: C_18  and  O_21
REMARK    7  A    between atoms: O_21  and  C_22
REMARK    8  A    between atoms: S_30  and  C_31
REMARK                            x       y       z     vdW  Elec       q    Type
REMARK                         _______ _______ _______ _____ _____    ______ ____
ROOT
ATOM      1  N   UNL     1       9.133  -1.086  23.254  0.00  0.00    -0.309 N 
ATOM      2  H   UNL     1       9.946  -1.082  22.650  0.00  0.00    +0.149 HD
ATOM      3  C   UNL     1       9.158  -2.248  23.983  0.00  0.00    +0.257 C 
ATOM      4  O   UNL     1      10.118  -2.991  23.719  0.00  0.00    -0.271 OA
ENDROOT
BRANCH   1   8
ATOM      5  C   UNL     1      10.630   2.140  23.223  0.00  0.00    -0.008 C 
ATOM      6  C   UNL     1      10.083   1.440  21.969  0.00  0.00    +0.009 C 
ATOM      7  C   UNL     1       8.603   1.105  22.170  0.00  0.00    +0.012 C 
ATOM      8  C   UNL     1       8.464   0.223  23.418  0.00  0.00    +0.079 C 
ATOM      9  C   UNL     1       8.954   0.966  24.681  0.00  0.00    +0.012 C 
ATOM     10  C   UNL     1       8.141   2.285  24.851  0.00  0.00    +0.035 C 
ATOM     11  C   UNL     1       8.330   3.186  23.606  0.00  0.00    +0.088 C 
ATOM     12  C   UNL     1       7.780   2.408  22.390  0.00  0.00    +0.035 C 
ATOM     13  C   UNL     1       9.852   3.444  23.394  0.00  0.00    +0.033 C 
ATOM     14  C   UNL     1      10.438   1.311  24.505  0.00  0.00    +0.009 C 
BRANCH  11  15
ATOM     15  S   UNL     1       7.590   4.837  23.793  0.00  0.00    -0.028 S 
ATOM     16  O   UNL     1       7.224   5.009  25.192  0.00  0.00    -0.174 OA
ATOM     17  O   UNL     1       6.576   4.976  22.763  0.00  0.00    -0.174 OA
ATOM     18  C   UNL     1       8.809   6.084  23.444  0.00  0.00    +0.194 C 
ENDBRANCH  11  15
ENDBRANCH   1   8
BRANCH   3  19
ATOM     19  C   UNL     1       8.021  -2.713  24.955  0.00  0.00    +0.180 C 
ATOM     20  C   UNL     1       6.721  -2.271  24.260  0.00  0.00    +0.065 C 
ATOM     21  C   UNL     1       8.289  -2.185  26.360  0.00  0.00    +0.065 C 
BRANCH  19  22
ATOM     22  O   UNL     1       8.064  -4.144  24.960  0.00  0.00    -0.476 OA
BRANCH  22  23
ATOM     23  C   UNL     1       7.012  -4.960  24.639  0.00  0.00    +0.140 A 
ATOM     24  C   UNL     1       6.388  -5.400  25.817  0.00  0.00    +0.050 A 
ATOM     25  C   UNL     1       5.283  -6.248  25.785  0.00  0.00    +0.042 A 
ATOM     26  C   UNL     1       4.765  -6.642  24.562  0.00  0.00    +0.125 A 
ATOM     27  F   UNL     1       3.717  -7.454  24.510  0.00  0.00    -0.205 F 
ATOM     28  C   UNL     1       5.347  -6.206  23.378  0.00  0.00    +0.062 A 
ATOM     29  C   UNL     1       6.492  -5.406  23.400  0.00  0.00    +0.085 A 
ATOM     30 CL   UNL     1       7.129  -5.140  21.806  0.00  0.00    -0.080 Cl
ENDBRANCH  22  23
ENDBRANCH  19  22
ENDBRANCH   3  19
TORSDOF 5
ENDMDL
MODEL 2
REMARK VINA RESULT:      -7.7      1.479      1.868
REMARK  Name = 
REMARK  8 active torsions:
REMARK  status: ('A' for Active; 'I' for Inactive)
REMARK    1  A    between atoms: C_7  and  S_30
REMARK    2  A    between atoms: C_13  and  N_15
REMARK    3  A    between atoms: C_16  and  C_18
REMARK    4  A    between atoms: C_18  and  C_19
REMARK    5  A    between atoms: C_18  and  C_20
REMARK    6  A    between atoms: C_18  and  O_21
REMARK    7  A    between atoms: O_21  and  C_22
REMARK    8  A    between atoms: S_30  and  C_31
REMARK                            x       y       z     vdW  Elec       q    Type
REMARK                         _______ _______ _______ _____ _____    ______ ____
ROOT
ATOM      1  N   UNL     1       9.273  -1.435  23.833  0.00  0.00    -0.309 N 
ATOM      2  H   UNL     1      10.270  -1.402  24.008  0.00  0.00    +0.149 HD
ATOM      3  C   UNL     1       8.872  -2.742  23.945  0.00  0.00    +0.257 C 
ATOM      4  O   UNL     1       9.793  -3.535  24.199  0.00  0.00    -0.271 OA
ENDROOT
BRANCH   1   8
ATOM      5  C   UNL     1      10.567   1.763  22.970  0.00  0.00    -0.008 C 
ATOM      6  C   UNL     1       9.834   0.843  21.981  0.00  0.00    +0.009 C 
ATOM      7  C   UNL     1       8.436   0.520  22.517  0.00  0.00    +0.012 C 
ATOM      8  C   UNL     1       8.579  -0.131  23.899  0.00  0.00    +0.079 C 
ATOM      9  C   UNL     1       9.255   0.832  24.899  0.00  0.00    +0.012 C 
ATOM     10  C   UNL     1       8.420   2.145  24.997  0.00  0.00    +0.035 C 
ATOM     11  C   UNL     1       8.327   2.816  23.605  0.00  0.00    +0.088 C 
ATOM     12  C   UNL     1       7.602   1.825  22.667  0.00  0.00    +0.035 C 
ATOM     13  C   UNL     1       9.767   3.061  23.063  0.00  0.00    +0.033 C 
ATOM     14  C   UNL     1      10.660   1.169  24.387  0.00  0.00    +0.009 C 
BRANCH  11  15
ATOM     15  S   UNL     1       7.549   4.460  23.649  0.00  0.00    -0.028 S 
ATOM     16  O   UNL     1       6.552   4.513  22.589  0.00  0.00    -0.174 OA
ATOM     17  O   UNL     1       8.617   5.444  23.681  0.00  0.00    -0.174 OA
ATOM     18  C   UNL     1       6.659   4.660  25.176  0.00  0.00    +0.194 C 
ENDBRANCH  11  15
ENDBRANCH   1   8
BRANCH   3  19
ATOM     19  C   UNL     1       7.425  -3.257  23.634  0.00  0.00    +0.180 C 
ATOM     20  C   UNL     1       7.253  -3.022  22.123  0.00  0.00    +0.065 C 
ATOM     21  C   UNL     1       6.423  -2.596  24.574  0.00  0.00    +0.065 C 
BRANCH  19  22
ATOM     22  O   UNL     1       7.448  -4.670  23.869  0.00  0.00    -0.476 OA
BRANCH  22  23
ATOM     23  C   UNL     1       6.483  -5.367  24.545  0.00  0.00    +0.140 A 
ATOM     24  C   UNL     1       5.554  -5.884  23.629  0.00  0.00    +0.050 A 
ATOM     25  C   UNL     1       4.460  -6.639  24.045  0.00  0.00    +0.042 A 
ATOM     26  C   UNL     1       4.301  -6.917  25.393  0.00  0.00    +0.125 A 
ATOM     27  F   UNL     1       3.262  -7.629  25.811  0.00  0.00    -0.205 F 
ATOM     28  C   UNL     1       5.216  -6.438  26.324  0.00  0.00    +0.062 A 
ATOM     29  C   UNL     1       6.280  -5.628  25.922  0.00  0.00    +0.085 A 
ATOM     30 CL   UNL     1       7.176  -5.014  27.277  0.00  0.00    -0.080 Cl
ENDBRANCH  22  23
ENDBRANCH  19  22
ENDBRANCH   3  19
TORSDOF 5
ENDMDL
MODEL 3
REMARK VINA RESULT:      -7.7      1.676      2.148
REMARK  Name = 
REMARK  8 active torsions:
REMARK  status: ('A' for Active; 'I' for Inactive)
REMARK    1  A    between atoms: C_7  and  S_30
REMARK    2  A    between atoms: C_13  and  N_15
REMARK    3  A    between atoms: C_16  and  C_18
REMARK    4  A    between atoms: C_18  and  C_19
REMARK    5  A    between atoms: C_18  and  C_20
REMARK    6  A    between atoms: C_18  and  O_21
REMARK    7  A    between atoms: O_21  and  C_22
REMARK    8  A    between atoms: S_30  and  C_31
REMARK                            x       y       z     vdW  Elec       q    Type
REMARK                         _______ _______ _______ _____ _____    ______ ____
ROOT
ATOM      1  N   UNL     1       9.187  -1.954  23.858  0.00  0.00    -0.309 N 
ATOM      2  H   UNL     1      10.006  -2.001  23.264  0.00  0.00    +0.149 HD
ATOM      3  C   UNL     1       9.171  -3.082  24.638  0.00  0.00    +0.257 C 
ATOM      4  O   UNL     1      10.112  -3.863  24.420  0.00  0.00    -0.271 OA
ENDROOT
BRANCH   1   8
ATOM      5  C   UNL     1      10.170   1.045  22.218  0.00  0.00    -0.008 C 
ATOM      6  C   UNL     1       9.164   0.041  21.633  0.00  0.00    +0.009 C 
ATOM      7  C   UNL     1       7.997  -0.146  22.606  0.00  0.00    +0.012 C 
ATOM      8  C   UNL     1       8.553  -0.622  23.954  0.00  0.00    +0.079 C 
ATOM      9  C   UNL     1       9.509   0.428  24.562  0.00  0.00    +0.012 C 
ATOM     10  C   UNL     1       8.752   1.780  24.730  0.00  0.00    +0.035 C 
ATOM     11  C   UNL     1       8.240   2.273  23.355  0.00  0.00    +0.088 C 
ATOM     12  C   UNL     1       7.256   1.206  22.824  0.00  0.00    +0.035 C 
ATOM     13  C   UNL     1       9.445   2.380  22.373  0.00  0.00    +0.033 C 
ATOM     14  C   UNL     1      10.691   0.632  23.606  0.00  0.00    +0.009 C 
BRANCH  11  15
ATOM     15  S   UNL     1       7.521   3.943  23.410  0.00  0.00    -0.028 S 
ATOM     16  O   UNL     1       6.543   3.975  24.488  0.00  0.00    -0.174 OA
ATOM     17  O   UNL     1       7.114   4.284  22.058  0.00  0.00    -0.174 OA
ATOM     18  C   UNL     1       8.779   5.122  23.848  0.00  0.00    +0.194 C 
ENDBRANCH  11  15
ENDBRANCH   1   8
BRANCH   3  19
ATOM     19  C   UNL     1       8.010  -3.471  25.616  0.00  0.00    +0.180 C 
ATOM     20  C   UNL     1       7.996  -2.340  26.659  0.00  0.00    +0.065 C 
ATOM     21  C   UNL     1       8.208  -4.896  26.118  0.00  0.00    +0.065 C 
BRANCH  19  22
ATOM     22  O   UNL     1       6.803  -3.391  24.850  0.00  0.00    -0.476 OA
BRANCH  22  23
ATOM     23  C   UNL     1       6.438  -4.274  23.869  0.00  0.00    +0.140 A 
ATOM     24  C   UNL     1       6.783  -3.745  22.615  0.00  0.00    +0.050 A 
ATOM     25  C   UNL     1       6.524  -4.438  21.435  0.00  0.00    +0.042 A 
ATOM     26  C   UNL     1       5.942  -5.694  21.499  0.00  0.00    +0.125 A 
ATOM     27  F   UNL     1       5.682  -6.368  20.385  0.00  0.00    -0.205 F 
ATOM     28  C   UNL     1       5.609  -6.254  22.726  0.00  0.00    +0.062 A 
ATOM     29  C   UNL     1       5.807  -5.541  23.911  0.00  0.00    +0.085 A 
ATOM     30 CL   UNL     1       5.154  -6.374  25.287  0.00  0.00    -0.080 Cl
ENDBRANCH  22  23
ENDBRANCH  19  22
ENDBRANCH   3  19
TORSDOF 5
ENDMDL
MODEL 4
REMARK VINA RESULT:      -7.7      1.104      1.421
REMARK  Name = 
REMARK  8 active torsions:
REMARK  status: ('A' for Active; 'I' for Inactive)
REMARK    1  A    between atoms: C_7  and  S_30
REMARK    2  A    between atoms: C_13  and  N_15
REMARK    3  A    between atoms: C_16  and  C_18
REMARK    4  A    between atoms: C_18  and  C_19
REMARK    5  A    between atoms: C_18  and  C_20
REMARK    6  A    between atoms: C_18  and  O_21
REMARK    7  A    between atoms: O_21  and  C_22
REMARK    8  A    between atoms: S_30  and  C_31
REMARK                            x       y       z     vdW  Elec       q    Type
REMARK                         _______ _______ _______ _____ _____    ______ ____
ROOT
ATOM      1  N   UNL     1       9.150  -0.802  22.907  0.00  0.00    -0.309 N 
ATOM      2  H   UNL     1       9.930  -0.751  22.262  0.00  0.00    +0.149 HD
ATOM      3  C   UNL     1       9.208  -2.018  23.539  0.00  0.00    +0.257 C 
ATOM      4  O   UNL     1      10.149  -2.738  23.167  0.00  0.00    -0.271 OA
ENDROOT
BRANCH   1   8
ATOM      5  C   UNL     1      10.696   2.378  23.290  0.00  0.00    -0.008 C 
ATOM      6  C   UNL     1      10.170   1.840  21.951  0.00  0.00    +0.009 C 
ATOM      7  C   UNL     1       8.680   1.510  22.077  0.00  0.00    +0.012 C 
ATOM      8  C   UNL     1       8.497   0.490  23.209  0.00  0.00    +0.079 C 
ATOM      9  C   UNL     1       8.967   1.071  24.561  0.00  0.00    +0.012 C 
ATOM     10  C   UNL     1       8.171   2.375  24.868  0.00  0.00    +0.035 C 
ATOM     11  C   UNL     1       8.404   3.413  23.743  0.00  0.00    +0.088 C 
ATOM     12  C   UNL     1       7.872   2.793  22.431  0.00  0.00    +0.035 C 
ATOM     13  C   UNL     1       9.935   3.666  23.596  0.00  0.00    +0.033 C 
ATOM     14  C   UNL     1      10.460   1.407  24.461  0.00  0.00    +0.009 C 
BRANCH  11  15
ATOM     15  S   UNL     1       7.684   5.044  24.107  0.00  0.00    -0.028 S 
ATOM     16  O   UNL     1       7.637   5.200  25.553  0.00  0.00    -0.174 OA
ATOM     17  O   UNL     1       6.462   5.160  23.330  0.00  0.00    -0.174 OA
ATOM     18  C   UNL     1       8.764   6.322  23.505  0.00  0.00    +0.194 C 
ENDBRANCH  11  15
ENDBRANCH   1   8
BRANCH   3  19
ATOM     19  C   UNL     1       8.121  -2.557  24.530  0.00  0.00    +0.180 C 
ATOM     20  C   UNL     1       6.789  -2.056  23.946  0.00  0.00    +0.065 C 
ATOM     21  C   UNL     1       8.468  -2.147  25.957  0.00  0.00    +0.065 C 
BRANCH  19  22
ATOM     22  O   UNL     1       8.153  -3.984  24.416  0.00  0.00    -0.476 OA
BRANCH  22  23
ATOM     23  C   UNL     1       7.068  -4.806  24.561  0.00  0.00    +0.140 A 
ATOM     24  C   UNL     1       6.666  -5.273  23.299  0.00  0.00    +0.050 A 
ATOM     25  C   UNL     1       5.580  -6.131  23.151  0.00  0.00    +0.042 A 
ATOM     26  C   UNL     1       4.896  -6.563  24.277  0.00  0.00    +0.125 A 
ATOM     27  F   UNL     1       3.855  -7.376  24.156  0.00  0.00    -0.205 F 
ATOM     28  C   UNL     1       5.283  -6.136  25.541  0.00  0.00    +0.062 A 
ATOM     29  C   UNL     1       6.332  -5.227  25.695  0.00  0.00    +0.085 A 
ATOM     30 CL   UNL     1       6.510  -4.713  27.344  0.00  0.00    -0.080 Cl
ENDBRANCH  22  23
ENDBRANCH  19  22
ENDBRANCH   3  19
TORSDOF 5
ENDMDL
MODEL 5
REMARK VINA RESULT:      -7.7      4.174      8.157
REMARK  Name = 
REMARK  8 active torsions:
REMARK  status: ('A' for Active; 'I' for Inactive)
REMARK    1  A    between atoms: C_7  and  S_30
REMARK    2  A    between atoms: C_13  and  N_15
REMARK    3  A    between atoms: C_16  and  C_18
REMARK    4  A    between atoms: C_18  and  C_19
REMARK    5  A    between atoms: C_18  and  C_20
REMARK    6  A    between atoms: C_18  and  O_21
REMARK    7  A    between atoms: O_21  and  C_22
REMARK    8  A    between atoms: S_30  and  C_31
REMARK                            x       y       z     vdW  Elec       q    Type
REMARK                         _______ _______ _______ _____ _____    ______ ____
ROOT
ATOM      1  N   UNL     1       8.778  -2.976  23.731  0.00  0.00    -0.309 N 
ATOM      2  H   UNL     1       9.272  -3.565  23.072  0.00  0.00    +0.149 HD
ATOM      3  C   UNL     1       9.418  -1.764  23.771  0.00  0.00    +0.257 C 
ATOM      4  O   UNL     1      10.418  -1.695  23.038  0.00  0.00    -0.271 OA
ENDROOT
BRANCH   1   8
ATOM      5  C   UNL     1       6.641  -5.138  21.884  0.00  0.00    -0.008 C 
ATOM      6  C   UNL     1       7.655  -5.627  22.930  0.00  0.00    +0.009 C 
ATOM      7  C   UNL     1       7.365  -4.965  24.279  0.00  0.00    +0.012 C 
ATOM      8  C   UNL     1       7.424  -3.442  24.102  0.00  0.00    +0.079 C 
ATOM      9  C   UNL     1       6.353  -2.958  23.100  0.00  0.00    +0.012 C 
ATOM     10  C   UNL     1       4.943  -3.395  23.600  0.00  0.00    +0.035 C 
ATOM     11  C   UNL     1       4.882  -4.937  23.726  0.00  0.00    +0.088 C 
ATOM     12  C   UNL     1       5.940  -5.352  24.774  0.00  0.00    +0.035 C 
ATOM     13  C   UNL     1       5.255  -5.573  22.354  0.00  0.00    +0.033 C 
ATOM     14  C   UNL     1       6.624  -3.606  21.736  0.00  0.00    +0.009 C 
BRANCH  11  15
ATOM     15  S   UNL     1       3.217  -5.563  24.105  0.00  0.00    -0.028 S 
ATOM     16  O   UNL     1       2.388  -5.378  22.923  0.00  0.00    -0.174 OA
ATOM     17  O   UNL     1       2.810  -4.973  25.369  0.00  0.00    -0.174 OA
ATOM     18  C   UNL     1       3.287  -7.317  24.390  0.00  0.00    +0.194 C 
ENDBRANCH  11  15
ENDBRANCH   1   8
BRANCH   3  19
ATOM     19  C   UNL     1       9.054  -0.597  24.752  0.00  0.00    +0.180 C 
ATOM     20  C   UNL     1      10.181   0.432  24.555  0.00  0.00    +0.065 C 
ATOM     21  C   UNL     1       8.834  -1.147  26.156  0.00  0.00    +0.065 C 
BRANCH  19  22
ATOM     22  O   UNL     1       7.836  -0.030  24.259  0.00  0.00    -0.476 OA
BRANCH  22  23
ATOM     23  C   UNL     1       7.694   1.261  23.823  0.00  0.00    +0.140 A 
ATOM     24  C   UNL     1       7.735   1.287  22.420  0.00  0.00    +0.050 A 
ATOM     25  C   UNL     1       7.614   2.477  21.708  0.00  0.00    +0.042 A 
ATOM     26  C   UNL     1       7.414   3.663  22.397  0.00  0.00    +0.125 A 
ATOM     27  F   UNL     1       7.302   4.809  21.737  0.00  0.00    -0.205 F 
ATOM     28  C   UNL     1       7.347   3.668  23.785  0.00  0.00    +0.062 A 
ATOM     29  C   UNL     1       7.529   2.488  24.510  0.00  0.00    +0.085 A 
ATOM     30 CL   UNL     1       7.577   2.779  26.222  0.00  0.00    -0.080 Cl
ENDBRANCH  22  23
ENDBRANCH  19  22
ENDBRANCH   3  19
TORSDOF 5
ENDMDL
MODEL 6
REMARK VINA RESULT:      -7.5      4.371      8.638
REMARK  Name = 
REMARK  8 active torsions:
REMARK  status: ('A' for Active; 'I' for Inactive)
REMARK    1  A    between atoms: C_7  and  S_30
REMARK    2  A    between atoms: C_13  and  N_15
REMARK    3  A    between atoms: C_16  and  C_18
REMARK    4  A    between atoms: C_18  and  C_19
REMARK    5  A    between atoms: C_18  and  C_20
REMARK    6  A    between atoms: C_18  and  O_21
REMARK    7  A    between atoms: O_21  and  C_22
REMARK    8  A    between atoms: S_30  and  C_31
REMARK                            x       y       z     vdW  Elec       q    Type
REMARK                         _______ _______ _______ _____ _____    ______ ____
ROOT
ATOM      1  N   UNL     1       9.238  -2.318  23.828  0.00  0.00    -0.309 N 
ATOM      2  H   UNL     1      10.073  -2.867  23.658  0.00  0.00    +0.149 HD
ATOM      3  C   UNL     1       9.450  -1.065  23.313  0.00  0.00    +0.257 C 
ATOM      4  O   UNL     1      10.574  -0.907  22.807  0.00  0.00    -0.271 OA
ENDROOT
BRANCH   1   8
ATOM      5  C   UNL     1       8.908  -4.733  26.419  0.00  0.00    -0.008 C 
ATOM      6  C   UNL     1       8.623  -3.234  26.605  0.00  0.00    +0.009 C 
ATOM      7  C   UNL     1       7.548  -2.786  25.611  0.00  0.00    +0.012 C 
ATOM      8  C   UNL     1       8.035  -3.098  24.189  0.00  0.00    +0.079 C 
ATOM      9  C   UNL     1       8.251  -4.615  23.996  0.00  0.00    +0.012 C 
ATOM     10  C   UNL     1       6.920  -5.369  24.295  0.00  0.00    +0.035 C 
ATOM     11  C   UNL     1       6.468  -5.085  25.748  0.00  0.00    +0.088 C 
ATOM     12  C   UNL     1       6.223  -3.563  25.863  0.00  0.00    +0.035 C 
ATOM     13  C   UNL     1       7.615  -5.485  26.724  0.00  0.00    +0.033 C 
ATOM     14  C   UNL     1       9.327  -5.089  24.981  0.00  0.00    +0.009 C 
BRANCH  11  15
ATOM     15  S   UNL     1       5.035  -6.080  26.264  0.00  0.00    -0.028 S 
ATOM     16  O   UNL     1       5.455  -6.934  27.366  0.00  0.00    -0.174 OA
ATOM     17  O   UNL     1       4.470  -6.678  25.067  0.00  0.00    -0.174 OA
ATOM     18  C   UNL     1       3.770  -5.015  26.918  0.00  0.00    +0.194 C 
ENDBRANCH  11  15
ENDBRANCH   1   8
BRANCH   3  19
ATOM     19  C   UNL     1       8.458   0.138  23.465  0.00  0.00    +0.180 C 
ATOM     20  C   UNL     1       8.595   0.562  24.938  0.00  0.00    +0.065 C 
ATOM     21  C   UNL     1       7.074  -0.263  22.969  0.00  0.00    +0.065 C 
BRANCH  19  22
ATOM     22  O   UNL     1       8.980   1.189  22.644  0.00  0.00    -0.476 OA
BRANCH  22  23
ATOM     23  C   UNL     1       9.196   2.475  23.062  0.00  0.00    +0.140 A 
ATOM     24  C   UNL     1      10.576   2.731  23.088  0.00  0.00    +0.050 A 
ATOM     25  C   UNL     1      11.081   3.969  23.477  0.00  0.00    +0.042 A 
ATOM     26  C   UNL     1      10.203   4.985  23.817  0.00  0.00    +0.125 A 
ATOM     27  F   UNL     1      10.664   6.169  24.197  0.00  0.00    -0.205 F 
ATOM     28  C   UNL     1       8.830   4.770  23.781  0.00  0.00    +0.062 A 
ATOM     29  C   UNL     1       8.316   3.514  23.452  0.00  0.00    +0.085 A 
ATOM     30 CL   UNL     1       6.591   3.446  23.647  0.00  0.00    -0.080 Cl
ENDBRANCH  22  23
ENDBRANCH  19  22
ENDBRANCH   3  19
TORSDOF 5
ENDMDL
MODEL 7
REMARK VINA RESULT:      -7.5      4.141      8.117
REMARK  Name = 
REMARK  8 active torsions:
REMARK  status: ('A' for Active; 'I' for Inactive)
REMARK    1  A    between atoms: C_7  and  S_30
REMARK    2  A    between atoms: C_13  and  N_15
REMARK    3  A    between atoms: C_16  and  C_18
REMARK    4  A    between atoms: C_18  and  C_19
REMARK    5  A    between atoms: C_18  and  C_20
REMARK    6  A    between atoms: C_18  and  O_21
REMARK    7  A    between atoms: O_21  and  C_22
REMARK    8  A    between atoms: S_30  and  C_31
REMARK                            x       y       z     vdW  Elec       q    Type
REMARK                         _______ _______ _______ _____ _____    ______ ____
ROOT
ATOM      1  N   UNL     1       9.064  -0.620  24.720  0.00  0.00    -0.309 N 
ATOM      2  H   UNL     1       9.443  -0.946  25.601  0.00  0.00    +0.149 HD
ATOM      3  C   UNL     1       9.880   0.380  24.257  0.00  0.00    +0.257 C 
ATOM      4  O   UNL     1      10.832   0.647  25.009  0.00  0.00    -0.271 OA
ENDROOT
BRANCH   1   8
ATOM      5  C   UNL     1       8.319  -3.987  25.590  0.00  0.00    -0.008 C 
ATOM      6  C   UNL     1       7.601  -2.770  26.192  0.00  0.00    +0.009 C 
ATOM      7  C   UNL     1       6.969  -1.938  25.073  0.00  0.00    +0.012 C 
ATOM      8  C   UNL     1       8.070  -1.517  24.092  0.00  0.00    +0.079 C 
ATOM      9  C   UNL     1       8.737  -2.750  23.443  0.00  0.00    +0.012 C 
ATOM     10  C   UNL     1       7.652  -3.600  22.714  0.00  0.00    +0.035 C 
ATOM     11  C   UNL     1       6.573  -4.059  23.726  0.00  0.00    +0.088 C 
ATOM     12  C   UNL     1       5.914  -2.785  24.302  0.00  0.00    +0.035 C 
ATOM     13  C   UNL     1       7.264  -4.837  24.885  0.00  0.00    +0.033 C 
ATOM     14  C   UNL     1       9.381  -3.600  24.545  0.00  0.00    +0.009 C 
BRANCH  11  15
ATOM     15  S   UNL     1       5.372  -5.227  23.017  0.00  0.00    -0.028 S 
ATOM     16  O   UNL     1       4.193  -4.472  22.620  0.00  0.00    -0.174 OA
ATOM     17  O   UNL     1       5.239  -6.331  23.952  0.00  0.00    -0.174 OA
ATOM     18  C   UNL     1       6.033  -5.933  21.524  0.00  0.00    +0.194 C 
ENDBRANCH  11  15
ENDBRANCH   1   8
BRANCH   3  19
ATOM     19  C   UNL     1       9.593   1.244  22.981  0.00  0.00    +0.180 C 
ATOM     20  C   UNL     1       9.883   0.294  21.805  0.00  0.00    +0.065 C 
ATOM     21  C   UNL     1      10.378   2.549  23.049  0.00  0.00    +0.065 C 
BRANCH  19  22
ATOM     22  O   UNL     1       8.189   1.522  22.999  0.00  0.00    -0.476 OA
BRANCH  22  23
ATOM     23  C   UNL     1       7.631   2.708  23.395  0.00  0.00    +0.140 A 
ATOM     24  C   UNL     1       7.422   3.523  22.271  0.00  0.00    +0.050 A 
ATOM     25  C   UNL     1       6.863   4.793  22.385  0.00  0.00    +0.042 A 
ATOM     26  C   UNL     1       6.472   5.254  23.632  0.00  0.00    +0.125 A 
ATOM     27  F   UNL     1       5.943   6.464  23.763  0.00  0.00    -0.205 F 
ATOM     28  C   UNL     1       6.646   4.463  24.761  0.00  0.00    +0.062 A 
ATOM     29  C   UNL     1       7.262   3.213  24.665  0.00  0.00    +0.085 A 
ATOM     30 CL   UNL     1       7.523   2.497  26.226  0.00  0.00    -0.080 Cl
ENDBRANCH  22  23
ENDBRANCH  19  22
ENDBRANCH   3  19
TORSDOF 5
ENDMDL
MODEL 8
REMARK VINA RESULT:      -7.1      2.202      2.829
REMARK  Name = 
REMARK  8 active torsions:
REMARK  status: ('A' for Active; 'I' for Inactive)
REMARK    1  A    between atoms: C_7  and  S_30
REMARK    2  A    between atoms: C_13  and  N_15
REMARK    3  A    between atoms: C_16  and  C_18
REMARK    4  A    between atoms: C_18  and  C_19
REMARK    5  A    between atoms: C_18  and  C_20
REMARK    6  A    between atoms: C_18  and  O_21
REMARK    7  A    between atoms: O_21  and  C_22
REMARK    8  A    between atoms: S_30  and  C_31
REMARK                            x       y       z     vdW  Elec       q    Type
REMARK                         _______ _______ _______ _____ _____    ______ ____
ROOT
ATOM      1  N   UNL     1       9.331  -2.304  24.010  0.00  0.00    -0.309 N 
ATOM      2  H   UNL     1      10.336  -2.200  24.077  0.00  0.00    +0.149 HD
ATOM      3  C   UNL     1       9.025  -3.612  24.285  0.00  0.00    +0.257 C 
ATOM      4  O   UNL     1      10.014  -4.326  24.517  0.00  0.00    -0.271 OA
ENDROOT
BRANCH   1   8
ATOM      5  C   UNL     1      10.164   0.758  22.403  0.00  0.00    -0.008 C 
ATOM      6  C   UNL     1       9.316  -0.346  21.752  0.00  0.00    +0.009 C 
ATOM      7  C   UNL     1       8.089  -0.635  22.621  0.00  0.00    +0.012 C 
ATOM      8  C   UNL     1       8.565  -1.039  24.023  0.00  0.00    +0.079 C 
ATOM      9  C   UNL     1       9.357   0.107  24.692  0.00  0.00    +0.012 C 
ATOM     10  C   UNL     1       8.460   1.380  24.765  0.00  0.00    +0.035 C 
ATOM     11  C   UNL     1       8.029   1.804  23.340  0.00  0.00    +0.088 C 
ATOM     12  C   UNL     1       7.204   0.639  22.745  0.00  0.00    +0.035 C 
ATOM     13  C   UNL     1       9.302   2.017  22.467  0.00  0.00    +0.033 C 
ATOM     14  C   UNL     1      10.594   0.414  23.840  0.00  0.00    +0.009 C 
BRANCH  11  15
ATOM     15  S   UNL     1       7.150   3.397  23.297  0.00  0.00    -0.028 S 
ATOM     16  O   UNL     1       7.370   3.996  21.989  0.00  0.00    -0.174 OA
ATOM     17  O   UNL     1       7.523   4.128  24.496  0.00  0.00    -0.174 OA
ATOM     18  C   UNL     1       5.398   3.118  23.426  0.00  0.00    +0.194 C 
ENDBRANCH  11  15
ENDBRANCH   1   8
BRANCH   3  19
ATOM     19  C   UNL     1       7.590  -4.233  24.173  0.00  0.00    +0.180 C 
ATOM     20  C   UNL     1       7.395  -4.982  25.504  0.00  0.00    +0.065 C 
ATOM     21  C   UNL     1       7.469  -5.035  22.884  0.00  0.00    +0.065 C 
BRANCH  19  22
ATOM     22  O   UNL     1       6.681  -3.127  24.143  0.00  0.00    -0.476 OA
BRANCH  22  23
ATOM     23  C   UNL     1       5.430  -3.126  24.700  0.00  0.00    +0.140 A 
ATOM     24  C   UNL     1       5.395  -2.209  25.762  0.00  0.00    +0.050 A 
ATOM     25  C   UNL     1       4.238  -2.003  26.510  0.00  0.00    +0.042 A 
ATOM     26  C   UNL     1       3.084  -2.696  26.180  0.00  0.00    +0.125 A 
ATOM     27  F   UNL     1       1.973  -2.519  26.885  0.00  0.00    -0.205 F 
ATOM     28  C   UNL     1       3.081  -3.595  25.121  0.00  0.00    +0.062 A 
ATOM     29  C   UNL     1       4.252  -3.853  24.404  0.00  0.00    +0.085 A 
ATOM     30 CL   UNL     1       4.039  -5.135  23.252  0.00  0.00    -0.080 Cl
ENDBRANCH  22  23
ENDBRANCH  19  22
ENDBRANCH   3  19
TORSDOF 5
ENDMDL
MODEL 9
REMARK VINA RESULT:      -7.1      4.174      7.704
REMARK  Name = 
REMARK  8 active torsions:
REMARK  status: ('A' for Active; 'I' for Inactive)
REMARK    1  A    between atoms: C_7  and  S_30
REMARK    2  A    between atoms: C_13  and  N_15
REMARK    3  A    between atoms: C_16  and  C_18
REMARK    4  A    between atoms: C_18  and  C_19
REMARK    5  A    between atoms: C_18  and  C_20
REMARK    6  A    between atoms: C_18  and  O_21
REMARK    7  A    between atoms: O_21  and  C_22
REMARK    8  A    between atoms: S_30  and  C_31
REMARK                            x       y       z     vdW  Elec       q    Type
REMARK                         _______ _______ _______ _____ _____    ______ ____
ROOT
ATOM      1  N   UNL     1       9.986   0.846  23.686  0.00  0.00    -0.309 N 
ATOM      2  H   UNL     1      10.875   0.364  23.632  0.00  0.00    +0.149 HD
ATOM      3  C   UNL     1      10.242   2.192  23.733  0.00  0.00    +0.257 C 
ATOM      4  O   UNL     1      11.451   2.479  23.722  0.00  0.00    -0.271 OA
ENDROOT
BRANCH   1   8
ATOM      5  C   UNL     1       9.284  -2.503  24.658  0.00  0.00    -0.008 C 
ATOM      6  C   UNL     1       8.834  -1.269  25.456  0.00  0.00    +0.009 C 
ATOM      7  C   UNL     1       7.980  -0.362  24.564  0.00  0.00    +0.012 C 
ATOM      8  C   UNL     1       8.805   0.030  23.331  0.00  0.00    +0.079 C 
ATOM      9  C   UNL     1       9.192  -1.215  22.503  0.00  0.00    +0.012 C 
ATOM     10  C   UNL     1       7.898  -1.974  22.076  0.00  0.00    +0.035 C 
ATOM     11  C   UNL     1       7.103  -2.407  23.332  0.00  0.00    +0.088 C 
ATOM     12  C   UNL     1       6.706  -1.119  24.089  0.00  0.00    +0.035 C 
ATOM     13  C   UNL     1       8.027  -3.265  24.247  0.00  0.00    +0.033 C 
ATOM     14  C   UNL     1      10.051  -2.139  23.373  0.00  0.00    +0.009 C 
BRANCH  11  15
ATOM     15  S   UNL     1       5.683  -3.478  22.950  0.00  0.00    -0.028 S 
ATOM     16  O   UNL     1       5.390  -3.346  21.530  0.00  0.00    -0.174 OA
ATOM     17  O   UNL     1       4.648  -3.190  23.927  0.00  0.00    -0.174 OA
ATOM     18  C   UNL     1       6.131  -5.180  23.207  0.00  0.00    +0.194 C 
ENDBRANCH  11  15
ENDBRANCH   1   8
BRANCH   3  19
ATOM     19  C   UNL     1       9.152   3.298  23.942  0.00  0.00    +0.180 C 
ATOM     20  C   UNL     1       9.935   4.622  23.880  0.00  0.00    +0.065 C 
ATOM     21  C   UNL     1       8.350   3.007  25.204  0.00  0.00    +0.065 C 
BRANCH  19  22
ATOM     22  O   UNL     1       8.294   3.231  22.798  0.00  0.00    -0.476 OA
BRANCH  22  23
ATOM     23  C   UNL     1       7.044   3.785  22.722  0.00  0.00    +0.140 A 
ATOM     24  C   UNL     1       6.079   2.768  22.803  0.00  0.00    +0.050 A 
ATOM     25  C   UNL     1       4.716   3.050  22.752  0.00  0.00    +0.042 A 
ATOM     26  C   UNL     1       4.299   4.367  22.651  0.00  0.00    +0.125 A 
ATOM     27  F   UNL     1       3.005   4.657  22.594  0.00  0.00    -0.205 F 
ATOM     28  C   UNL     1       5.229   5.398  22.591  0.00  0.00    +0.062 A 
ATOM     29  C   UNL     1       6.598   5.121  22.579  0.00  0.00    +0.085 A 
ATOM     30 CL   UNL     1       7.548   6.551  22.321  0.00  0.00    -0.080 Cl
ENDBRANCH  22  23
ENDBRANCH  19  22
ENDBRANCH   3  19
TORSDOF 5
ENDMDL
