MODEL 1
REMARK VINA RESULT:      -3.1      0.000      0.000
REMARK  Name = 
REMARK  7 active torsions:
REMARK  status: ('A' for Active; 'I' for Inactive)
REMARK    1  A    between atoms: N_1  and  C_2
REMARK    2  A    between atoms: C_2  and  C_3
REMARK    3  A    between atoms: C_2  and  C_5
REMARK    4  A    between atoms: C_2  and  C_7
REMARK    5  A    between atoms: C_3  and  O_4
REMARK    6  A    between atoms: C_5  and  O_6
REMARK    7  A    between atoms: C_7  and  O_8
REMARK                            x       y       z     vdW  Elec       q    Type
REMARK                         _______ _______ _______ _____ _____    ______ ____
ROOT
ATOM      1  C   UNL     1       9.775   0.196  23.141  0.00  0.00    +0.086 C 
ENDROOT
BRANCH   1   2
ATOM      2  N   UNL     1      10.565   0.678  24.312  0.00  0.00    -0.319 NA
ATOM      3  H   UNL     1      11.252   1.355  23.985  0.00  0.00    +0.119 HD
ATOM      4  H   UNL     1       9.945   1.170  24.957  0.00  0.00    +0.119 HD
ENDBRANCH   1   2
BRANCH   1   5
ATOM      5  C   UNL     1      10.010   1.210  21.992  0.00  0.00    +0.182 C 
BRANCH   5   6
ATOM      6  O   UNL     1       8.934   1.147  21.050  0.00  0.00    -0.393 OA
ATOM      7  H   UNL     1       8.246   1.732  21.425  0.00  0.00    +0.209 HD
ENDBRANCH   5   6
ENDBRANCH   1   5
BRANCH   1   8
ATOM      8  C   UNL     1       8.264   0.123  23.471  0.00  0.00    +0.182 C 
BRANCH   8   9
ATOM      9  O   UNL     1       7.629  -0.918  22.734  0.00  0.00    -0.393 OA
ATOM     10  H   UNL     1       7.256  -1.543  23.377  0.00  0.00    +0.209 HD
ENDBRANCH   8   9
ENDBRANCH   1   8
BRANCH   1  11
ATOM     11  C   UNL     1      10.254  -1.226  22.735  0.00  0.00    +0.182 C 
BRANCH  11  12
ATOM     12  O   UNL     1      10.107  -1.496  21.343  0.00  0.00    -0.393 OA
ATOM     13  H   UNL     1      10.327  -2.442  21.220  0.00  0.00    +0.209 HD
ENDBRANCH  11  12
ENDBRANCH   1  11
TORSDOF 7
ENDMDL
MODEL 2
REMARK VINA RESULT:      -3.1      2.114      2.885
REMARK  Name = 
REMARK  7 active torsions:
REMARK  status: ('A' for Active; 'I' for Inactive)
REMARK    1  A    between atoms: N_1  and  C_2
REMARK    2  A    between atoms: C_2  and  C_3
REMARK    3  A    between atoms: C_2  and  C_5
REMARK    4  A    between atoms: C_2  and  C_7
REMARK    5  A    between atoms: C_3  and  O_4
REMARK    6  A    between atoms: C_5  and  O_6
REMARK    7  A    between atoms: C_7  and  O_8
REMARK                            x       y       z     vdW  Elec       q    Type
REMARK                         _______ _______ _______ _____ _____    ______ ____
ROOT
ATOM      1  C   UNL     1       8.256   0.401  22.577  0.00  0.00    +0.086 C 
ENDROOT
BRANCH   1   2
ATOM      2  N   UNL     1       6.794   0.289  22.857  0.00  0.00    -0.319 NA
ATOM      3  H   UNL     1       6.611  -0.624  23.272  0.00  0.00    +0.119 HD
ATOM      4  H   UNL     1       6.529   0.990  23.551  0.00  0.00    +0.119 HD
ENDBRANCH   1   2
BRANCH   1   5
ATOM      5  C   UNL     1       8.736  -1.003  22.128  0.00  0.00    +0.182 C 
BRANCH   5   6
ATOM      6  O   UNL     1       9.799  -0.880  21.176  0.00  0.00    -0.393 OA
ATOM      7  H   UNL     1       9.376  -0.485  20.388  0.00  0.00    +0.209 HD
ENDBRANCH   5   6
ENDBRANCH   1   5
BRANCH   1   8
ATOM      8  C   UNL     1       9.040   0.841  23.837  0.00  0.00    +0.182 C 
BRANCH   8   9
ATOM      9  O   UNL     1      10.379   0.354  23.803  0.00  0.00    -0.393 OA
ATOM     10  H   UNL     1      10.549  -0.084  24.653  0.00  0.00    +0.209 HD
ENDBRANCH   8   9
ENDBRANCH   1   8
BRANCH   1  11
ATOM     11  C   UNL     1       8.496   1.455  21.459  0.00  0.00    +0.182 C 
BRANCH  11  12
ATOM     12  O   UNL     1       9.799   2.030  21.496  0.00  0.00    -0.393 OA
ATOM     13  H   UNL     1      10.166   1.825  22.380  0.00  0.00    +0.209 HD
ENDBRANCH  11  12
ENDBRANCH   1  11
TORSDOF 7
ENDMDL
MODEL 3
REMARK VINA RESULT:      -3.1      0.144      2.374
REMARK  Name = 
REMARK  7 active torsions:
REMARK  status: ('A' for Active; 'I' for Inactive)
REMARK    1  A    between atoms: N_1  and  C_2
REMARK    2  A    between atoms: C_2  and  C_3
REMARK    3  A    between atoms: C_2  and  C_5
REMARK    4  A    between atoms: C_2  and  C_7
REMARK    5  A    between atoms: C_3  and  O_4
REMARK    6  A    between atoms: C_5  and  O_6
REMARK    7  A    between atoms: C_7  and  O_8
REMARK                            x       y       z     vdW  Elec       q    Type
REMARK                         _______ _______ _______ _____ _____    ______ ____
ROOT
ATOM      1  C   UNL     1       9.716   0.068  23.204  0.00  0.00    +0.086 C 
ENDROOT
BRANCH   1   2
ATOM      2  N   UNL     1      10.391   0.547  24.446  0.00  0.00    -0.319 NA
ATOM      3  H   UNL     1      11.009   1.319  24.205  0.00  0.00    +0.119 HD
ATOM      4  H   UNL     1       9.689   0.916  25.090  0.00  0.00    +0.119 HD
ENDBRANCH   1   2
BRANCH   1   5
ATOM      5  C   UNL     1       8.198   0.001  23.515  0.00  0.00    +0.182 C 
BRANCH   5   6
ATOM      6  O   UNL     1       7.570  -0.988  22.692  0.00  0.00    -0.393 OA
ATOM      7  H   UNL     1       6.847  -1.342  23.246  0.00  0.00    +0.209 HD
ENDBRANCH   5   6
ENDBRANCH   1   5
BRANCH   1   8
ATOM      8  C   UNL     1      10.226  -1.333  22.789  0.00  0.00    +0.182 C 
BRANCH   8   9
ATOM      9  O   UNL     1      10.130  -1.515  21.378  0.00  0.00    -0.393 OA
ATOM     10  H   UNL     1       9.389  -0.971  21.065  0.00  0.00    +0.209 HD
ENDBRANCH   8   9
ENDBRANCH   1   8
BRANCH   1  11
ATOM     11  C   UNL     1      10.002   1.057  22.038  0.00  0.00    +0.182 C 
BRANCH  11  12
ATOM     12  O   UNL     1       8.957   1.106  21.071  0.00  0.00    -0.393 OA
ATOM     13  H   UNL     1       8.579   0.205  21.026  0.00  0.00    +0.209 HD
ENDBRANCH  11  12
ENDBRANCH   1  11
TORSDOF 7
ENDMDL
MODEL 4
REMARK VINA RESULT:      -3.0      1.738      2.170
REMARK  Name = 
REMARK  7 active torsions:
REMARK  status: ('A' for Active; 'I' for Inactive)
REMARK    1  A    between atoms: N_1  and  C_2
REMARK    2  A    between atoms: C_2  and  C_3
REMARK    3  A    between atoms: C_2  and  C_5
REMARK    4  A    between atoms: C_2  and  C_7
REMARK    5  A    between atoms: C_3  and  O_4
REMARK    6  A    between atoms: C_5  and  O_6
REMARK    7  A    between atoms: C_7  and  O_8
REMARK                            x       y       z     vdW  Elec       q    Type
REMARK                         _______ _______ _______ _____ _____    ______ ____
ROOT
ATOM      1  C   UNL     1       9.505   0.700  22.348  0.00  0.00    +0.086 C 
ENDROOT
BRANCH   1   2
ATOM      2  N   UNL     1       9.863   1.977  21.664  0.00  0.00    -0.319 NA
ATOM      3  H   UNL     1      10.766   1.860  21.207  0.00  0.00    +0.119 HD
ATOM      4  H   UNL     1       9.180   2.169  20.929  0.00  0.00    +0.119 HD
ENDBRANCH   1   2
BRANCH   1   5
ATOM      5  C   UNL     1       9.502  -0.406  21.262  0.00  0.00    +0.182 C 
BRANCH   5   6
ATOM      6  O   UNL     1      10.187  -1.568  21.740  0.00  0.00    -0.393 OA
ATOM      7  H   UNL     1       9.493  -2.096  22.183  0.00  0.00    +0.209 HD
ENDBRANCH   5   6
ENDBRANCH   1   5
BRANCH   1   8
ATOM      8  C   UNL     1       8.107   0.787  23.008  0.00  0.00    +0.182 C 
BRANCH   8   9
ATOM      9  O   UNL     1       7.467  -0.487  23.020  0.00  0.00    -0.393 OA
ATOM     10  H   UNL     1       7.994  -1.071  23.589  0.00  0.00    +0.209 HD
ENDBRANCH   8   9
ENDBRANCH   1   8
BRANCH   1  11
ATOM     11  C   UNL     1      10.549   0.389  23.458  0.00  0.00    +0.182 C 
BRANCH  11  12
ATOM     12  O   UNL     1      10.074  -0.530  24.438  0.00  0.00    -0.393 OA
ATOM     13  H   UNL     1      10.120  -1.418  24.029  0.00  0.00    +0.209 HD
ENDBRANCH  11  12
ENDBRANCH   1  11
TORSDOF 7
ENDMDL
MODEL 5
REMARK VINA RESULT:      -3.0      2.128      2.528
REMARK  Name = 
REMARK  7 active torsions:
REMARK  status: ('A' for Active; 'I' for Inactive)
REMARK    1  A    between atoms: N_1  and  C_2
REMARK    2  A    between atoms: C_2  and  C_3
REMARK    3  A    between atoms: C_2  and  C_5
REMARK    4  A    between atoms: C_2  and  C_7
REMARK    5  A    between atoms: C_3  and  O_4
REMARK    6  A    between atoms: C_5  and  O_6
REMARK    7  A    between atoms: C_7  and  O_8
REMARK                            x       y       z     vdW  Elec       q    Type
REMARK                         _______ _______ _______ _____ _____    ______ ____
ROOT
ATOM      1  C   UNL     1       8.253   0.427  22.552  0.00  0.00    +0.086 C 
ENDROOT
BRANCH   1   2
ATOM      2  N   UNL     1       6.788   0.412  22.837  0.00  0.00    -0.319 NA
ATOM      3  H   UNL     1       6.405   1.333  22.632  0.00  0.00    +0.119 HD
ATOM      4  H   UNL     1       6.329  -0.249  22.207  0.00  0.00    +0.119 HD
ENDBRANCH   1   2
BRANCH   1   5
ATOM      5  C   UNL     1       8.477   1.450  21.409  0.00  0.00    +0.182 C 
BRANCH   5   6
ATOM      6  O   UNL     1       9.786   2.021  21.508  0.00  0.00    -0.393 OA
ATOM      7  H   UNL     1      10.035   2.224  20.584  0.00  0.00    +0.209 HD
ENDBRANCH   5   6
ENDBRANCH   1   5
BRANCH   1   8
ATOM      8  C   UNL     1       8.757  -0.968  22.110  0.00  0.00    +0.182 C 
BRANCH   8   9
ATOM      9  O   UNL     1       9.854  -0.853  21.207  0.00  0.00    -0.393 OA
ATOM     10  H   UNL     1       9.486  -0.698  20.322  0.00  0.00    +0.209 HD
ENDBRANCH   8   9
ENDBRANCH   1   8
BRANCH   1  11
ATOM     11  C   UNL     1       9.031   0.844  23.833  0.00  0.00    +0.182 C 
BRANCH  11  12
ATOM     12  O   UNL     1      10.382   0.393  23.844  0.00  0.00    -0.393 OA
ATOM     13  H   UNL     1      10.391  -0.440  24.357  0.00  0.00    +0.209 HD
ENDBRANCH  11  12
ENDBRANCH   1  11
TORSDOF 7
ENDMDL
MODEL 6
REMARK VINA RESULT:      -3.0      1.727      2.246
REMARK  Name = 
REMARK  7 active torsions:
REMARK  status: ('A' for Active; 'I' for Inactive)
REMARK    1  A    between atoms: N_1  and  C_2
REMARK    2  A    between atoms: C_2  and  C_3
REMARK    3  A    between atoms: C_2  and  C_5
REMARK    4  A    between atoms: C_2  and  C_7
REMARK    5  A    between atoms: C_3  and  O_4
REMARK    6  A    between atoms: C_5  and  O_6
REMARK    7  A    between atoms: C_7  and  O_8
REMARK                            x       y       z     vdW  Elec       q    Type
REMARK                         _______ _______ _______ _____ _____    ______ ____
ROOT
ATOM      1  C   UNL     1       9.514   0.725  22.326  0.00  0.00    +0.086 C 
ENDROOT
BRANCH   1   2
ATOM      2  N   UNL     1       9.846   2.022  21.666  0.00  0.00    -0.319 NA
ATOM      3  H   UNL     1       9.242   2.747  22.048  0.00  0.00    +0.119 HD
ATOM      4  H   UNL     1      10.807   2.282  21.897  0.00  0.00    +0.119 HD
ENDBRANCH   1   2
BRANCH   1   5
ATOM      5  C   UNL     1       8.109   0.891  22.959  0.00  0.00    +0.182 C 
BRANCH   5   6
ATOM      6  O   UNL     1       7.408  -0.358  22.938  0.00  0.00    -0.393 OA
ATOM      7  H   UNL     1       7.413  -0.624  21.997  0.00  0.00    +0.209 HD
ENDBRANCH   5   6
ENDBRANCH   1   5
BRANCH   1   8
ATOM      8  C   UNL     1      10.544   0.373  23.427  0.00  0.00    +0.182 C 
BRANCH   8   9
ATOM      9  O   UNL     1       9.972  -0.495  24.403  0.00  0.00    -0.393 OA
ATOM     10  H   UNL     1       9.803  -1.347  23.970  0.00  0.00    +0.209 HD
ENDBRANCH   8   9
ENDBRANCH   1   8
BRANCH   1  11
ATOM     11  C   UNL     1       9.519  -0.417  21.271  0.00  0.00    +0.182 C 
BRANCH  11  12
ATOM     12  O   UNL     1      10.118  -1.620  21.743  0.00  0.00    -0.393 OA
ATOM     13  H   UNL     1       9.544  -1.950  22.464  0.00  0.00    +0.209 HD
ENDBRANCH  11  12
ENDBRANCH   1  11
TORSDOF 7
ENDMDL
MODEL 7
REMARK VINA RESULT:      -3.0      2.140      2.710
REMARK  Name = 
REMARK  7 active torsions:
REMARK  status: ('A' for Active; 'I' for Inactive)
REMARK    1  A    between atoms: N_1  and  C_2
REMARK    2  A    between atoms: C_2  and  C_3
REMARK    3  A    between atoms: C_2  and  C_5
REMARK    4  A    between atoms: C_2  and  C_7
REMARK    5  A    between atoms: C_3  and  O_4
REMARK    6  A    between atoms: C_5  and  O_6
REMARK    7  A    between atoms: C_7  and  O_8
REMARK                            x       y       z     vdW  Elec       q    Type
REMARK                         _______ _______ _______ _____ _____    ______ ____
ROOT
ATOM      1  C   UNL     1       8.217   0.459  22.552  0.00  0.00    +0.086 C 
ENDROOT
BRANCH   1   2
ATOM      2  N   UNL     1       6.760   0.358  22.863  0.00  0.00    -0.319 NA
ATOM      3  H   UNL     1       6.521  -0.624  22.993  0.00  0.00    +0.119 HD
ATOM      4  H   UNL     1       6.571   0.831  23.748  0.00  0.00    +0.119 HD
ENDBRANCH   1   2
BRANCH   1   5
ATOM      5  C   UNL     1       8.920   0.938  23.847  0.00  0.00    +0.182 C 
BRANCH   5   6
ATOM      6  O   UNL     1      10.256   0.426  23.902  0.00  0.00    -0.393 OA
ATOM      7  H   UNL     1      10.441   0.331  24.857  0.00  0.00    +0.209 HD
ENDBRANCH   5   6
ENDBRANCH   1   5
BRANCH   1   8
ATOM      8  C   UNL     1       8.481   1.470  21.410  0.00  0.00    +0.182 C 
BRANCH   8   9
ATOM      9  O   UNL     1       9.790   2.024  21.510  0.00  0.00    -0.393 OA
ATOM     10  H   UNL     1      10.069   2.272  20.614  0.00  0.00    +0.209 HD
ENDBRANCH   8   9
ENDBRANCH   1   8
BRANCH   1  11
ATOM     11  C   UNL     1       8.755  -0.931  22.108  0.00  0.00    +0.182 C 
BRANCH  11  12
ATOM     12  O   UNL     1       9.875  -0.848  21.230  0.00  0.00    -0.393 OA
ATOM     13  H   UNL     1       9.567  -0.367  20.435  0.00  0.00    +0.209 HD
ENDBRANCH  11  12
ENDBRANCH   1  11
TORSDOF 7
ENDMDL
MODEL 8
REMARK VINA RESULT:      -3.0      1.721      2.797
REMARK  Name = 
REMARK  7 active torsions:
REMARK  status: ('A' for Active; 'I' for Inactive)
REMARK    1  A    between atoms: N_1  and  C_2
REMARK    2  A    between atoms: C_2  and  C_3
REMARK    3  A    between atoms: C_2  and  C_5
REMARK    4  A    between atoms: C_2  and  C_7
REMARK    5  A    between atoms: C_3  and  O_4
REMARK    6  A    between atoms: C_5  and  O_6
REMARK    7  A    between atoms: C_7  and  O_8
REMARK                            x       y       z     vdW  Elec       q    Type
REMARK                         _______ _______ _______ _____ _____    ______ ____
ROOT
ATOM      1  C   UNL     1       9.487   0.695  22.293  0.00  0.00    +0.086 C 
ENDROOT
BRANCH   1   2
ATOM      2  N   UNL     1       9.859   2.002  21.674  0.00  0.00    -0.319 NA
ATOM      3  H   UNL     1       9.467   2.041  20.735  0.00  0.00    +0.119 HD
ATOM      4  H   UNL     1       9.432   2.761  22.207  0.00  0.00    +0.119 HD
ENDBRANCH   1   2
BRANCH   1   5
ATOM      5  C   UNL     1      10.531   0.411  23.404  0.00  0.00    +0.182 C 
BRANCH   5   6
ATOM      6  O   UNL     1       9.963  -0.435  24.409  0.00  0.00    -0.393 OA
ATOM      7  H   UNL     1      10.731  -0.895  24.803  0.00  0.00    +0.209 HD
ENDBRANCH   5   6
ENDBRANCH   1   5
BRANCH   1   8
ATOM      8  C   UNL     1       9.510  -0.449  21.251  0.00  0.00    +0.182 C 
BRANCH   8   9
ATOM      9  O   UNL     1      10.166  -1.602  21.772  0.00  0.00    -0.393 OA
ATOM     10  H   UNL     1       9.482  -2.182  22.146  0.00  0.00    +0.209 HD
ENDBRANCH   8   9
ENDBRANCH   1   8
BRANCH   1  11
ATOM     11  C   UNL     1       8.053   0.786  22.887  0.00  0.00    +0.182 C 
BRANCH  11  12
ATOM     12  O   UNL     1       7.382  -0.470  22.937  0.00  0.00    -0.393 OA
ATOM     13  H   UNL     1       7.940  -1.059  23.484  0.00  0.00    +0.209 HD
ENDBRANCH  11  12
ENDBRANCH   1  11
TORSDOF 7
ENDMDL
MODEL 9
REMARK VINA RESULT:      -3.0      2.250      2.716
REMARK  Name = 
REMARK  7 active torsions:
REMARK  status: ('A' for Active; 'I' for Inactive)
REMARK    1  A    between atoms: N_1  and  C_2
REMARK    2  A    between atoms: C_2  and  C_3
REMARK    3  A    between atoms: C_2  and  C_5
REMARK    4  A    between atoms: C_2  and  C_7
REMARK    5  A    between atoms: C_3  and  O_4
REMARK    6  A    between atoms: C_5  and  O_6
REMARK    7  A    between atoms: C_7  and  O_8
REMARK                            x       y       z     vdW  Elec       q    Type
REMARK                         _______ _______ _______ _____ _____    ______ ____
ROOT
ATOM      1  C   UNL     1      10.233   1.756  23.713  0.00  0.00    +0.086 C 
ENDROOT
BRANCH   1   2
ATOM      2  N   UNL     1      11.176   0.881  24.470  0.00  0.00    -0.319 NA
ATOM      3  H   UNL     1      11.606   1.430  25.212  0.00  0.00    +0.119 HD
ATOM      4  H   UNL     1      10.651   0.130  24.920  0.00  0.00    +0.119 HD
ENDBRANCH   1   2
BRANCH   1   5
ATOM      5  C   UNL     1      10.955   3.110  23.493  0.00  0.00    +0.182 C 
BRANCH   5   6
ATOM      6  O   UNL     1       9.998   4.145  23.246  0.00  0.00    -0.393 OA
ATOM      7  H   UNL     1       9.134   3.688  23.263  0.00  0.00    +0.209 HD
ENDBRANCH   5   6
ENDBRANCH   1   5
BRANCH   1   8
ATOM      8  C   UNL     1       8.922   1.987  24.503  0.00  0.00    +0.182 C 
BRANCH   8   9
ATOM      9  O   UNL     1       7.825   2.210  23.619  0.00  0.00    -0.393 OA
ATOM     10  H   UNL     1       7.198   2.793  24.077  0.00  0.00    +0.209 HD
ENDBRANCH   8   9
ENDBRANCH   1   8
BRANCH   1  11
ATOM     11  C   UNL     1       9.874   1.089  22.355  0.00  0.00    +0.182 C 
BRANCH  11  12
ATOM     12  O   UNL     1       9.615   2.028  21.316  0.00  0.00    -0.393 OA
ATOM     13  H   UNL     1       9.977   2.885  21.621  0.00  0.00    +0.209 HD
ENDBRANCH  11  12
ENDBRANCH   1  11
TORSDOF 7
ENDMDL
