MODEL 1
REMARK VINA RESULT:      -5.1      0.000      0.000
REMARK  Name = 
REMARK  2 active torsions:
REMARK  status: ('A' for Active; 'I' for Inactive)
REMARK    1  A    between atoms: C_2  and  N_3
REMARK    2  A    between atoms: C_12  and  O_14
REMARK                            x       y       z     vdW  Elec       q    Type
REMARK                         _______ _______ _______ _____ _____    ______ ____
ROOT
ATOM      1  C   UNL     1       9.182   1.508  23.749  0.00  0.00    +0.084 C 
ATOM      2  C   UNL     1      10.384   2.203  23.052  0.00  0.00    +0.161 C 
ATOM      3  C   UNL     1      10.584   3.637  23.502  0.00  0.00    -0.014 A 
ATOM      4  C   UNL     1       9.544   4.376  24.100  0.00  0.00    -0.042 A 
ATOM      5  C   UNL     1       9.783   5.700  24.499  0.00  0.00    +0.004 A 
ATOM      6  C   UNL     1      11.026   6.296  24.286  0.00  0.00    +0.000 A 
ATOM      7  C   UNL     1      12.046   5.576  23.670  0.00  0.00    +0.000 A 
ATOM      8  C   UNL     1       8.194   3.764  24.387  0.00  0.00    +0.037 C 
ATOM      9  C   UNL     1      11.826   4.256  23.278  0.00  0.00    +0.006 A 
ATOM     10  C   UNL     1       7.957   2.430  23.681  0.00  0.00    +0.026 C 
ENDROOT
BRANCH   1  11
ATOM     11  N   UNL     1       9.474   1.101  25.136  0.00  0.00    -0.325 NA
ATOM     12  H   UNL     1      10.372   1.487  25.428  0.00  0.00    +0.119 HD
ATOM     13  H   UNL     1       8.771   1.489  25.763  0.00  0.00    +0.119 HD
ENDBRANCH   1  11
BRANCH   2  14
ATOM     14  O   UNL     1      10.170   2.188  21.636  0.00  0.00    -0.386 OA
ATOM     15  H   UNL     1       9.294   1.797  21.476  0.00  0.00    +0.210 HD
ENDBRANCH   2  14
TORSDOF 2
ENDMDL
MODEL 2
REMARK VINA RESULT:      -5.0      2.572      4.728
REMARK  Name = 
REMARK  2 active torsions:
REMARK  status: ('A' for Active; 'I' for Inactive)
REMARK    1  A    between atoms: C_2  and  N_3
REMARK    2  A    between atoms: C_12  and  O_14
REMARK                            x       y       z     vdW  Elec       q    Type
REMARK                         _______ _______ _______ _____ _____    ______ ____
ROOT
ATOM      1  C   UNL     1       9.535   3.269  23.795  0.00  0.00    +0.084 C 
ATOM      2  C   UNL     1       9.693   1.909  24.529  0.00  0.00    +0.161 C 
ATOM      3  C   UNL     1       9.698   0.721  23.587  0.00  0.00    -0.014 A 
ATOM      4  C   UNL     1       9.156   0.805  22.289  0.00  0.00    -0.042 A 
ATOM      5  C   UNL     1       9.187  -0.324  21.458  0.00  0.00    +0.004 A 
ATOM      6  C   UNL     1       9.723  -1.530  21.911  0.00  0.00    +0.000 A 
ATOM      7  C   UNL     1      10.233  -1.622  23.203  0.00  0.00    +0.000 A 
ATOM      8  C   UNL     1       8.601   2.097  21.739  0.00  0.00    +0.037 C 
ATOM      9  C   UNL     1      10.218  -0.505  24.036  0.00  0.00    +0.006 A 
ATOM     10  C   UNL     1       8.371   3.173  22.799  0.00  0.00    +0.026 C 
ENDROOT
BRANCH   1  11
ATOM     11  N   UNL     1      10.775   3.716  23.133  0.00  0.00    -0.325 NA
ATOM     12  H   UNL     1      10.881   3.238  22.238  0.00  0.00    +0.119 HD
ATOM     13  H   UNL     1      10.715   4.712  22.927  0.00  0.00    +0.119 HD
ENDBRANCH   1  11
BRANCH   2  14
ATOM     14  O   UNL     1       8.614   1.757  25.459  0.00  0.00    -0.386 OA
ATOM     15  H   UNL     1       8.182   0.907  25.271  0.00  0.00    +0.210 HD
ENDBRANCH   2  14
TORSDOF 2
ENDMDL
MODEL 3
REMARK VINA RESULT:      -5.0      9.584     10.380
REMARK  Name = 
REMARK  2 active torsions:
REMARK  status: ('A' for Active; 'I' for Inactive)
REMARK    1  A    between atoms: C_2  and  N_3
REMARK    2  A    between atoms: C_12  and  O_14
REMARK                            x       y       z     vdW  Elec       q    Type
REMARK                         _______ _______ _______ _____ _____    ______ ____
ROOT
ATOM      1  C   UNL     1       5.076  -5.500  22.522  0.00  0.00    +0.084 C 
ATOM      2  C   UNL     1       4.803  -6.006  23.966  0.00  0.00    +0.161 C 
ATOM      3  C   UNL     1       5.918  -5.667  24.936  0.00  0.00    -0.014 A 
ATOM      4  C   UNL     1       7.219  -5.366  24.489  0.00  0.00    -0.042 A 
ATOM      5  C   UNL     1       8.214  -5.059  25.430  0.00  0.00    +0.004 A 
ATOM      6  C   UNL     1       7.934  -5.076  26.796  0.00  0.00    +0.000 A 
ATOM      7  C   UNL     1       6.656  -5.401  27.240  0.00  0.00    +0.000 A 
ATOM      8  C   UNL     1       7.562  -5.297  23.021  0.00  0.00    +0.037 C 
ATOM      9  C   UNL     1       5.655  -5.698  26.316  0.00  0.00    +0.006 A 
ATOM     10  C   UNL     1       6.498  -5.902  22.107  0.00  0.00    +0.026 C 
ENDROOT
BRANCH   1  11
ATOM     11  N   UNL     1       4.859  -4.049  22.368  0.00  0.00    -0.325 NA
ATOM     12  H   UNL     1       5.322  -3.547  23.126  0.00  0.00    +0.119 HD
ATOM     13  H   UNL     1       5.287  -3.728  21.500  0.00  0.00    +0.119 HD
ENDBRANCH   1  11
BRANCH   2  14
ATOM     14  O   UNL     1       4.633  -7.428  23.933  0.00  0.00    -0.386 OA
ATOM     15  H   UNL     1       3.970  -7.628  23.251  0.00  0.00    +0.210 HD
ENDBRANCH   2  14
TORSDOF 2
ENDMDL
MODEL 4
REMARK VINA RESULT:      -5.0      2.615      4.610
REMARK  Name = 
REMARK  2 active torsions:
REMARK  status: ('A' for Active; 'I' for Inactive)
REMARK    1  A    between atoms: C_2  and  N_3
REMARK    2  A    between atoms: C_12  and  O_14
REMARK                            x       y       z     vdW  Elec       q    Type
REMARK                         _______ _______ _______ _____ _____    ______ ____
ROOT
ATOM      1  C   UNL     1       8.253   2.835  22.648  0.00  0.00    +0.084 C 
ATOM      2  C   UNL     1       9.132   1.818  21.869  0.00  0.00    +0.161 C 
ATOM      3  C   UNL     1       9.374   0.532  22.634  0.00  0.00    -0.014 A 
ATOM      4  C   UNL     1       9.227   0.466  24.033  0.00  0.00    -0.042 A 
ATOM      5  C   UNL     1       9.463  -0.750  24.692  0.00  0.00    +0.004 A 
ATOM      6  C   UNL     1       9.866  -1.881  23.981  0.00  0.00    +0.000 A 
ATOM      7  C   UNL     1      10.039  -1.809  22.602  0.00  0.00    +0.000 A 
ATOM      8  C   UNL     1       8.757   1.651  24.842  0.00  0.00    +0.037 C 
ATOM      9  C   UNL     1       9.797  -0.610  21.933  0.00  0.00    +0.006 A 
ATOM     10  C   UNL     1       8.790   2.974  24.079  0.00  0.00    +0.026 C 
ENDROOT
BRANCH   1  11
ATOM     11  N   UNL     1       6.820   2.484  22.641  0.00  0.00    -0.325 NA
ATOM     12  H   UNL     1       6.274   3.267  22.280  0.00  0.00    +0.119 HD
ATOM     13  H   UNL     1       6.661   1.701  22.007  0.00  0.00    +0.119 HD
ENDBRANCH   1  11
BRANCH   2  14
ATOM     14  O   UNL     1      10.395   2.428  21.577  0.00  0.00    -0.386 OA
ATOM     15  H   UNL     1      10.821   1.902  20.878  0.00  0.00    +0.210 HD
ENDBRANCH   2  14
TORSDOF 2
ENDMDL
MODEL 5
REMARK VINA RESULT:      -5.0      8.596      9.735
REMARK  Name = 
REMARK  2 active torsions:
REMARK  status: ('A' for Active; 'I' for Inactive)
REMARK    1  A    between atoms: C_2  and  N_3
REMARK    2  A    between atoms: C_12  and  O_14
REMARK                            x       y       z     vdW  Elec       q    Type
REMARK                         _______ _______ _______ _____ _____    ______ ____
ROOT
ATOM      1  C   UNL     1       8.637  -4.236  26.246  0.00  0.00    +0.084 C 
ATOM      2  C   UNL     1       8.831  -4.688  24.772  0.00  0.00    +0.161 C 
ATOM      3  C   UNL     1       7.531  -5.067  24.090  0.00  0.00    -0.014 A 
ATOM      4  C   UNL     1       6.384  -5.418  24.829  0.00  0.00    -0.042 A 
ATOM      5  C   UNL     1       5.206  -5.760  24.148  0.00  0.00    +0.004 A 
ATOM      6  C   UNL     1       5.169  -5.782  22.754  0.00  0.00    +0.000 A 
ATOM      7  C   UNL     1       6.310  -5.463  22.022  0.00  0.00    +0.000 A 
ATOM      8  C   UNL     1       6.363  -5.372  26.338  0.00  0.00    +0.037 C 
ATOM      9  C   UNL     1       7.484  -5.111  22.687  0.00  0.00    +0.006 A 
ATOM     10  C   UNL     1       7.747  -5.253  26.973  0.00  0.00    +0.026 C 
ENDROOT
BRANCH   1  11
ATOM     11  N   UNL     1       8.099  -2.867  26.364  0.00  0.00    -0.325 NA
ATOM     12  H   UNL     1       7.210  -2.800  25.869  0.00  0.00    +0.119 HD
ATOM     13  H   UNL     1       7.904  -2.658  27.342  0.00  0.00    +0.119 HD
ENDBRANCH   1  11
BRANCH   2  14
ATOM     14  O   UNL     1       9.713  -5.816  24.748  0.00  0.00    -0.386 OA
ATOM     15  H   UNL     1       9.798  -6.101  23.822  0.00  0.00    +0.210 HD
ENDBRANCH   2  14
TORSDOF 2
ENDMDL
MODEL 6
REMARK VINA RESULT:      -5.0      3.151      4.415
REMARK  Name = 
REMARK  2 active torsions:
REMARK  status: ('A' for Active; 'I' for Inactive)
REMARK    1  A    between atoms: C_2  and  N_3
REMARK    2  A    between atoms: C_12  and  O_14
REMARK                            x       y       z     vdW  Elec       q    Type
REMARK                         _______ _______ _______ _____ _____    ______ ____
ROOT
ATOM      1  C   UNL     1       8.694  -2.549  24.016  0.00  0.00    +0.084 C 
ATOM      2  C   UNL     1       8.471  -1.589  22.814  0.00  0.00    +0.161 C 
ATOM      3  C   UNL     1       9.161  -0.250  22.986  0.00  0.00    -0.014 A 
ATOM      4  C   UNL     1       9.543   0.227  24.255  0.00  0.00    -0.042 A 
ATOM      5  C   UNL     1      10.179   1.473  24.357  0.00  0.00    +0.004 A 
ATOM      6  C   UNL     1      10.412   2.251  23.223  0.00  0.00    +0.000 A 
ATOM      7  C   UNL     1      10.009   1.793  21.971  0.00  0.00    +0.000 A 
ATOM      8  C   UNL     1       9.348  -0.594  25.507  0.00  0.00    +0.037 C 
ATOM      9  C   UNL     1       9.386   0.552  21.854  0.00  0.00    +0.006 A 
ATOM     10  C   UNL     1       8.419  -1.793  25.323  0.00  0.00    +0.026 C 
ENDROOT
BRANCH   1  11
ATOM     11  N   UNL     1      10.034  -3.166  24.021  0.00  0.00    -0.325 NA
ATOM     12  H   UNL     1      10.747  -2.444  24.134  0.00  0.00    +0.119 HD
ATOM     13  H   UNL     1      10.122  -3.790  24.822  0.00  0.00    +0.119 HD
ENDBRANCH   1  11
BRANCH   2  14
ATOM     14  O   UNL     1       7.065  -1.368  22.654  0.00  0.00    -0.386 OA
ATOM     15  H   UNL     1       6.628  -1.653  23.475  0.00  0.00    +0.210 HD
ENDBRANCH   2  14
TORSDOF 2
ENDMDL
MODEL 7
REMARK VINA RESULT:      -4.9      8.055     10.227
REMARK  Name = 
REMARK  2 active torsions:
REMARK  status: ('A' for Active; 'I' for Inactive)
REMARK    1  A    between atoms: C_2  and  N_3
REMARK    2  A    between atoms: C_12  and  O_14
REMARK                            x       y       z     vdW  Elec       q    Type
REMARK                         _______ _______ _______ _____ _____    ______ ____
ROOT
ATOM      1  C   UNL     1       9.133  -4.505  25.524  0.00  0.00    +0.084 C 
ATOM      2  C   UNL     1       7.861  -4.794  26.369  0.00  0.00    +0.161 C 
ATOM      3  C   UNL     1       6.738  -5.414  25.562  0.00  0.00    -0.014 A 
ATOM      4  C   UNL     1       6.685  -5.298  24.159  0.00  0.00    -0.042 A 
ATOM      5  C   UNL     1       5.623  -5.892  23.460  0.00  0.00    +0.004 A 
ATOM      6  C   UNL     1       4.611  -6.569  24.141  0.00  0.00    +0.000 A 
ATOM      7  C   UNL     1       4.647  -6.659  25.529  0.00  0.00    +0.000 A 
ATOM      8  C   UNL     1       7.776  -4.610  23.374  0.00  0.00    +0.037 C 
ATOM      9  C   UNL     1       5.702  -6.083  26.236  0.00  0.00    +0.006 A 
ATOM     10  C   UNL     1       8.727  -3.779  24.234  0.00  0.00    +0.026 C 
ENDROOT
BRANCH   1  11
ATOM     11  N   UNL     1       9.921  -5.718  25.235  0.00  0.00    -0.325 NA
ATOM     12  H   UNL     1       9.845  -5.953  24.245  0.00  0.00    +0.119 HD
ATOM     13  H   UNL     1      10.908  -5.538  25.417  0.00  0.00    +0.119 HD
ENDBRANCH   1  11
BRANCH   2  14
ATOM     14  O   UNL     1       7.397  -3.564  26.940  0.00  0.00    -0.386 OA
ATOM     15  H   UNL     1       6.467  -3.690  27.191  0.00  0.00    +0.210 HD
ENDBRANCH   2  14
TORSDOF 2
ENDMDL
MODEL 8
REMARK VINA RESULT:      -4.8      0.852      1.062
REMARK  Name = 
REMARK  2 active torsions:
REMARK  status: ('A' for Active; 'I' for Inactive)
REMARK    1  A    between atoms: C_2  and  N_3
REMARK    2  A    between atoms: C_12  and  O_14
REMARK                            x       y       z     vdW  Elec       q    Type
REMARK                         _______ _______ _______ _____ _____    ______ ____
ROOT
ATOM      1  C   UNL     1       9.904   1.156  23.794  0.00  0.00    +0.084 C 
ATOM      2  C   UNL     1      10.565   2.381  23.102  0.00  0.00    +0.161 C 
ATOM      3  C   UNL     1      10.188   3.702  23.745  0.00  0.00    -0.014 A 
ATOM      4  C   UNL     1       9.035   3.833  24.543  0.00  0.00    -0.042 A 
ATOM      5  C   UNL     1       8.733   5.078  25.114  0.00  0.00    +0.004 A 
ATOM      6  C   UNL     1       9.546   6.187  24.880  0.00  0.00    +0.000 A 
ATOM      7  C   UNL     1      10.671   6.065  24.069  0.00  0.00    +0.000 A 
ATOM      8  C   UNL     1       8.145   2.655  24.858  0.00  0.00    +0.037 C 
ATOM      9  C   UNL     1      10.988   4.831  23.503  0.00  0.00    +0.006 A 
ATOM     10  C   UNL     1       8.406   1.430  23.982  0.00  0.00    +0.026 C 
ENDROOT
BRANCH   1  11
ATOM     11  N   UNL     1      10.551   0.795  25.069  0.00  0.00    -0.325 NA
ATOM     12  H   UNL     1      11.419   1.321  25.178  0.00  0.00    +0.119 HD
ATOM     13  H   UNL     1       9.949   1.060  25.847  0.00  0.00    +0.119 HD
ENDBRANCH   1  11
BRANCH   2  14
ATOM     14  O   UNL     1      10.167   2.406  21.726  0.00  0.00    -0.386 OA
ATOM     15  H   UNL     1      10.004   1.487  21.452  0.00  0.00    +0.210 HD
ENDBRANCH   2  14
TORSDOF 2
ENDMDL
MODEL 9
REMARK VINA RESULT:      -4.8      3.555      5.703
REMARK  Name = 
REMARK  2 active torsions:
REMARK  status: ('A' for Active; 'I' for Inactive)
REMARK    1  A    between atoms: C_2  and  N_3
REMARK    2  A    between atoms: C_12  and  O_14
REMARK                            x       y       z     vdW  Elec       q    Type
REMARK                         _______ _______ _______ _____ _____    ______ ____
ROOT
ATOM      1  C   UNL     1       9.952   0.822  21.884  0.00  0.00    +0.084 C 
ATOM      2  C   UNL     1       9.282  -0.568  21.701  0.00  0.00    +0.161 C 
ATOM      3  C   UNL     1       8.197  -0.845  22.723  0.00  0.00    -0.014 A 
ATOM      4  C   UNL     1       8.140  -0.149  23.947  0.00  0.00    -0.042 A 
ATOM      5  C   UNL     1       7.114  -0.444  24.857  0.00  0.00    +0.004 A 
ATOM      6  C   UNL     1       6.171  -1.432  24.575  0.00  0.00    +0.000 A 
ATOM      7  C   UNL     1       6.244  -2.141  23.379  0.00  0.00    +0.000 A 
ATOM      8  C   UNL     1       9.113   0.956  24.282  0.00  0.00    +0.037 C 
ATOM      9  C   UNL     1       7.251  -1.850  22.460  0.00  0.00    +0.006 A 
ATOM     10  C   UNL     1      10.330   1.010  23.359  0.00  0.00    +0.026 C 
ENDROOT
BRANCH   1  11
ATOM     11  N   UNL     1       9.116   1.935  21.395  0.00  0.00    -0.325 NA
ATOM     12  H   UNL     1       8.156   1.615  21.264  0.00  0.00    +0.119 HD
ATOM     13  H   UNL     1       9.084   2.674  22.095  0.00  0.00    +0.119 HD
ENDBRANCH   1  11
BRANCH   2  14
ATOM     14  O   UNL     1      10.287  -1.583  21.807  0.00  0.00    -0.386 OA
ATOM     15  H   UNL     1      10.756  -1.621  20.955  0.00  0.00    +0.210 HD
ENDBRANCH   2  14
TORSDOF 2
ENDMDL
