MODEL 1
REMARK VINA RESULT:      -6.4      0.000      0.000
REMARK  Name = 
REMARK  6 active torsions:
REMARK  status: ('A' for Active; 'I' for Inactive)
REMARK    1  A    between atoms: C_1  and  S_2
REMARK    2  A    between atoms: S_2  and  C_3
REMARK    3  A    between atoms: C_3  and  C_4
REMARK    4  A    between atoms: C_9  and  C_17
REMARK    5  A    between atoms: C_11  and  O_13
REMARK    6  A    between atoms: C_14  and  O_16
REMARK                            x       y       z     vdW  Elec       q    Type
REMARK                         _______ _______ _______ _____ _____    ______ ____
ROOT
ATOM      1  C   UNL     1       7.266  -3.573  22.816  0.00  0.00    +0.105 C 
ATOM      2  C   UNL     1       6.264  -2.584  23.429  0.00  0.00    +0.198 C 
ATOM      3  C   UNL     1       6.969  -2.037  24.680  0.00  0.00    +0.201 C 
ATOM      4  C   UNL     1       8.486  -2.161  24.376  0.00  0.00    +0.129 C 
ATOM      5  N   UNL     1       8.584  -2.861  23.050  0.00  0.00    +0.239 N 
ATOM      6  H   UNL     1       8.680  -2.137  22.321  0.00  0.00    +0.202 HD
ATOM      7  H   UNL     1       9.411  -3.465  22.987  0.00  0.00    +0.202 HD
ENDROOT
BRANCH   4   8
ATOM      8  C   UNL     1       9.214  -0.863  24.396  0.00  0.00    +0.046 A 
ATOM      9  C   UNL     1       9.342   0.059  23.339  0.00  0.00    +0.104 A 
ATOM     10  N   UNL     1       8.829  -0.075  22.048  0.00  0.00    -0.235 NA
ATOM     11  C   UNL     1       9.062   0.974  21.306  0.00  0.00    +0.199 A 
ATOM     12  N   UNL     1       9.736   2.117  21.684  0.00  0.00    -0.312 N 
ATOM     13  H   UNL     1       9.864   2.882  21.038  0.00  0.00    +0.170 HD
ATOM     14  C   UNL     1      10.275   2.290  22.937  0.00  0.00    +0.275 A 
ATOM     15  O   UNL     1      10.883   3.293  23.279  0.00  0.00    -0.266 OA
ATOM     16  C   UNL     1      10.026   1.158  23.767  0.00  0.00    +0.131 A 
ATOM     17  N   UNL     1      10.368   0.954  25.073  0.00  0.00    -0.355 N 
ATOM     18  H   UNL     1      10.876   1.617  25.653  0.00  0.00    +0.166 HD
ATOM     19  C   UNL     1       9.879  -0.277  25.467  0.00  0.00    +0.094 A 
ENDBRANCH   4   8
BRANCH   2  20
ATOM     20  O   UNL     1       5.998  -1.558  22.463  0.00  0.00    -0.383 OA
ATOM     21  H   UNL     1       5.053  -1.311  22.445  0.00  0.00    +0.210 HD
ENDBRANCH   2  20
BRANCH   3  22
ATOM     22  O   UNL     1       6.645  -2.861  25.803  0.00  0.00    -0.383 OA
ATOM     23  H   UNL     1       5.999  -2.379  26.358  0.00  0.00    +0.210 HD
ENDBRANCH   3  22
BRANCH   1  24
ATOM     24  C   UNL     1       7.296  -4.982  23.435  0.00  0.00    +0.125 C 
BRANCH  24  26
ATOM     25  C   UNL     1       6.200  -5.700  20.988  0.00  0.00    +0.084 C 
ATOM     26  S   UNL     1       5.944  -5.998  22.755  0.00  0.00    -0.158 S 
ENDBRANCH  24  26
ENDBRANCH   1  24
TORSDOF 5
ENDMDL
MODEL 2
REMARK VINA RESULT:      -6.2      1.344      1.696
REMARK  Name = 
REMARK  6 active torsions:
REMARK  status: ('A' for Active; 'I' for Inactive)
REMARK    1  A    between atoms: C_1  and  S_2
REMARK    2  A    between atoms: S_2  and  C_3
REMARK    3  A    between atoms: C_3  and  C_4
REMARK    4  A    between atoms: C_9  and  C_17
REMARK    5  A    between atoms: C_11  and  O_13
REMARK    6  A    between atoms: C_14  and  O_16
REMARK                            x       y       z     vdW  Elec       q    Type
REMARK                         _______ _______ _______ _____ _____    ______ ____
ROOT
ATOM      1  C   UNL     1       7.152  -4.076  23.677  0.00  0.00    +0.105 C 
ATOM      2  C   UNL     1       7.692  -4.093  25.115  0.00  0.00    +0.198 C 
ATOM      3  C   UNL     1       9.117  -3.530  25.003  0.00  0.00    +0.201 C 
ATOM      4  C   UNL     1       9.095  -2.615  23.749  0.00  0.00    +0.129 C 
ATOM      5  N   UNL     1       7.728  -2.779  23.145  0.00  0.00    +0.239 N 
ATOM      6  H   UNL     1       7.137  -2.010  23.496  0.00  0.00    +0.202 HD
ATOM      7  H   UNL     1       7.742  -2.707  22.122  0.00  0.00    +0.202 HD
ENDROOT
BRANCH   4   8
ATOM      8  C   UNL     1       9.430  -1.193  24.033  0.00  0.00    +0.046 A 
ATOM      9  C   UNL     1       9.409  -0.115  23.127  0.00  0.00    +0.104 A 
ATOM     10  N   UNL     1       9.092  -0.172  21.769  0.00  0.00    -0.235 NA
ATOM     11  C   UNL     1       9.103   1.005  21.204  0.00  0.00    +0.199 A 
ATOM     12  N   UNL     1       9.392   2.209  21.812  0.00  0.00    -0.312 N 
ATOM     13  H   UNL     1       9.371   3.073  21.290  0.00  0.00    +0.170 HD
ATOM     14  C   UNL     1       9.728   2.316  23.141  0.00  0.00    +0.275 A 
ATOM     15  O   UNL     1       9.997   3.375  23.688  0.00  0.00    -0.266 OA
ATOM     16  C   UNL     1       9.714   1.042  23.781  0.00  0.00    +0.131 A 
ATOM     17  N   UNL     1       9.960   0.731  25.088  0.00  0.00    -0.355 N 
ATOM     18  H   UNL     1      10.202   1.402  25.811  0.00  0.00    +0.166 HD
ATOM     19  C   UNL     1       9.791  -0.631  25.252  0.00  0.00    +0.094 A 
ENDBRANCH   4   8
BRANCH   2  20
ATOM     20  O   UNL     1       6.843  -3.266  25.923  0.00  0.00    -0.383 OA
ATOM     21  H   UNL     1       6.797  -3.584  26.845  0.00  0.00    +0.210 HD
ENDBRANCH   2  20
BRANCH   3  22
ATOM     22  O   UNL     1      10.034  -4.605  24.785  0.00  0.00    -0.383 OA
ATOM     23  H   UNL     1      10.940  -4.234  24.771  0.00  0.00    +0.210 HD
ENDBRANCH   3  22
BRANCH   1  24
ATOM     24  C   UNL     1       7.566  -5.259  22.782  0.00  0.00    +0.125 C 
BRANCH  24  26
ATOM     25  C   UNL     1       4.827  -5.711  22.753  0.00  0.00    +0.084 C 
ATOM     26  S   UNL     1       6.230  -5.659  21.609  0.00  0.00    -0.158 S 
ENDBRANCH  24  26
ENDBRANCH   1  24
TORSDOF 5
ENDMDL
MODEL 3
REMARK VINA RESULT:      -6.1      3.433      6.412
REMARK  Name = 
REMARK  6 active torsions:
REMARK  status: ('A' for Active; 'I' for Inactive)
REMARK    1  A    between atoms: C_1  and  S_2
REMARK    2  A    between atoms: S_2  and  C_3
REMARK    3  A    between atoms: C_3  and  C_4
REMARK    4  A    between atoms: C_9  and  C_17
REMARK    5  A    between atoms: C_11  and  O_13
REMARK    6  A    between atoms: C_14  and  O_16
REMARK                            x       y       z     vdW  Elec       q    Type
REMARK                         _______ _______ _______ _____ _____    ______ ____
ROOT
ATOM      1  C   UNL     1       8.192  -0.514  23.819  0.00  0.00    +0.105 C 
ATOM      2  C   UNL     1       8.218  -1.650  22.786  0.00  0.00    +0.198 C 
ATOM      3  C   UNL     1       9.080  -2.746  23.432  0.00  0.00    +0.201 C 
ATOM      4  C   UNL     1       8.931  -2.530  24.962  0.00  0.00    +0.129 C 
ATOM      5  N   UNL     1       8.107  -1.283  25.123  0.00  0.00    +0.239 N 
ATOM      6  H   UNL     1       7.124  -1.573  25.249  0.00  0.00    +0.202 HD
ATOM      7  H   UNL     1       8.372  -0.744  25.954  0.00  0.00    +0.202 HD
ENDROOT
BRANCH   4   8
ATOM      8  C   UNL     1       8.354  -3.697  25.684  0.00  0.00    +0.046 A 
ATOM      9  C   UNL     1       7.008  -4.110  25.698  0.00  0.00    +0.104 A 
ATOM     10  N   UNL     1       5.937  -3.488  25.054  0.00  0.00    -0.235 NA
ATOM     11  C   UNL     1       4.816  -4.141  25.205  0.00  0.00    +0.199 A 
ATOM     12  N   UNL     1       4.633  -5.311  25.911  0.00  0.00    -0.312 N 
ATOM     13  H   UNL     1       3.724  -5.747  25.968  0.00  0.00    +0.170 HD
ATOM     14  C   UNL     1       5.651  -5.953  26.576  0.00  0.00    +0.275 A 
ATOM     15  O   UNL     1       5.498  -6.984  27.213  0.00  0.00    -0.266 OA
ATOM     16  C   UNL     1       6.887  -5.261  26.418  0.00  0.00    +0.131 A 
ATOM     17  N   UNL     1       8.125  -5.587  26.895  0.00  0.00    -0.355 N 
ATOM     18  H   UNL     1       8.336  -6.407  27.458  0.00  0.00    +0.166 HD
ATOM     19  C   UNL     1       9.027  -4.638  26.454  0.00  0.00    +0.094 A 
ENDBRANCH   4   8
BRANCH   2  20
ATOM     20  O   UNL     1       6.870  -2.083  22.560  0.00  0.00    -0.383 OA
ATOM     21  H   UNL     1       6.827  -2.822  21.924  0.00  0.00    +0.210 HD
ENDBRANCH   2  20
BRANCH   3  22
ATOM     22  O   UNL     1      10.448  -2.551  23.062  0.00  0.00    -0.383 OA
ATOM     23  H   UNL     1      10.542  -1.642  22.711  0.00  0.00    +0.210 HD
ENDBRANCH   3  22
BRANCH   1  24
ATOM     24  C   UNL     1       9.411   0.427  23.827  0.00  0.00    +0.125 C 
BRANCH  24  26
ATOM     25  C   UNL     1       8.312   1.860  21.718  0.00  0.00    +0.084 C 
ATOM     26  S   UNL     1       9.818   0.944  22.127  0.00  0.00    -0.158 S 
ENDBRANCH  24  26
ENDBRANCH   1  24
TORSDOF 5
ENDMDL
MODEL 4
REMARK VINA RESULT:      -6.1      2.872      5.930
REMARK  Name = 
REMARK  6 active torsions:
REMARK  status: ('A' for Active; 'I' for Inactive)
REMARK    1  A    between atoms: C_1  and  S_2
REMARK    2  A    between atoms: S_2  and  C_3
REMARK    3  A    between atoms: C_3  and  C_4
REMARK    4  A    between atoms: C_9  and  C_17
REMARK    5  A    between atoms: C_11  and  O_13
REMARK    6  A    between atoms: C_14  and  O_16
REMARK                            x       y       z     vdW  Elec       q    Type
REMARK                         _______ _______ _______ _____ _____    ______ ____
ROOT
ATOM      1  C   UNL     1       8.722   0.485  21.819  0.00  0.00    +0.105 C 
ATOM      2  C   UNL     1      10.084  -0.186  22.052  0.00  0.00    +0.198 C 
ATOM      3  C   UNL     1      10.234  -0.241  23.580  0.00  0.00    +0.201 C 
ATOM      4  C   UNL     1       8.783  -0.267  24.130  0.00  0.00    +0.129 C 
ATOM      5  N   UNL     1       7.887  -0.113  22.934  0.00  0.00    +0.239 N 
ATOM      6  H   UNL     1       7.600  -1.058  22.634  0.00  0.00    +0.202 HD
ATOM      7  H   UNL     1       7.031   0.408  23.151  0.00  0.00    +0.202 HD
ENDROOT
BRANCH   4   8
ATOM      8  C   UNL     1       8.464  -1.478  24.934  0.00  0.00    +0.046 A 
ATOM      9  C   UNL     1       8.081  -2.746  24.453  0.00  0.00    +0.104 A 
ATOM     10  N   UNL     1       7.901  -3.111  23.118  0.00  0.00    -0.235 NA
ATOM     11  C   UNL     1       7.603  -4.376  22.983  0.00  0.00    +0.199 A 
ATOM     12  N   UNL     1       7.458  -5.301  23.996  0.00  0.00    -0.312 N 
ATOM     13  H   UNL     1       7.228  -6.263  23.791  0.00  0.00    +0.170 HD
ATOM     14  C   UNL     1       7.607  -4.986  25.326  0.00  0.00    +0.275 A 
ATOM     15  O   UNL     1       7.470  -5.796  26.231  0.00  0.00    -0.266 OA
ATOM     16  C   UNL     1       7.942  -3.612  25.497  0.00  0.00    +0.131 A 
ATOM     17  N   UNL     1       8.199  -2.923  26.648  0.00  0.00    -0.355 N 
ATOM     18  H   UNL     1       8.179  -3.322  27.582  0.00  0.00    +0.166 HD
ATOM     19  C   UNL     1       8.517  -1.620  26.317  0.00  0.00    +0.094 A 
ENDBRANCH   4   8
BRANCH   2  20
ATOM     20  O   UNL     1      10.048  -1.492  21.463  0.00  0.00    -0.383 OA
ATOM     21  H   UNL     1      10.013  -1.451  20.488  0.00  0.00    +0.210 HD
ENDBRANCH   2  20
BRANCH   3  22
ATOM     22  O   UNL     1      10.887   0.948  24.034  0.00  0.00    -0.383 OA
ATOM     23  H   UNL     1      11.075   0.847  24.990  0.00  0.00    +0.210 HD
ENDBRANCH   3  22
BRANCH   1  24
ATOM     24  C   UNL     1       8.700   2.023  21.892  0.00  0.00    +0.125 C 
BRANCH  24  26
ATOM     25  C   UNL     1       7.314   4.396  22.279  0.00  0.00    +0.084 C 
ATOM     26  S   UNL     1       7.007   2.613  22.220  0.00  0.00    -0.158 S 
ENDBRANCH  24  26
ENDBRANCH   1  24
TORSDOF 5
ENDMDL
MODEL 5
REMARK VINA RESULT:      -6.0      2.184      2.800
REMARK  Name = 
REMARK  6 active torsions:
REMARK  status: ('A' for Active; 'I' for Inactive)
REMARK    1  A    between atoms: C_1  and  S_2
REMARK    2  A    between atoms: S_2  and  C_3
REMARK    3  A    between atoms: C_3  and  C_4
REMARK    4  A    between atoms: C_9  and  C_17
REMARK    5  A    between atoms: C_11  and  O_13
REMARK    6  A    between atoms: C_14  and  O_16
REMARK                            x       y       z     vdW  Elec       q    Type
REMARK                         _______ _______ _______ _____ _____    ______ ____
ROOT
ATOM      1  C   UNL     1       7.178  -3.753  23.699  0.00  0.00    +0.105 C 
ATOM      2  C   UNL     1       7.989  -3.052  24.798  0.00  0.00    +0.198 C 
ATOM      3  C   UNL     1       9.137  -2.355  24.052  0.00  0.00    +0.201 C 
ATOM      4  C   UNL     1       8.591  -2.093  22.622  0.00  0.00    +0.129 C 
ATOM      5  N   UNL     1       7.234  -2.736  22.576  0.00  0.00    +0.239 N 
ATOM      6  H   UNL     1       6.535  -2.006  22.784  0.00  0.00    +0.202 HD
ATOM      7  H   UNL     1       7.011  -3.113  21.649  0.00  0.00    +0.202 HD
ENDROOT
BRANCH   4   8
ATOM      8  C   UNL     1       8.557  -0.654  22.243  0.00  0.00    +0.046 A 
ATOM      9  C   UNL     1       7.685   0.337  22.732  0.00  0.00    +0.104 A 
ATOM     10  N   UNL     1       6.656   0.159  23.658  0.00  0.00    -0.235 NA
ATOM     11  C   UNL     1       6.058   1.280  23.961  0.00  0.00    +0.199 A 
ATOM     12  N   UNL     1       6.349   2.531  23.459  0.00  0.00    -0.312 N 
ATOM     13  H   UNL     1       5.830   3.344  23.758  0.00  0.00    +0.170 HD
ATOM     14  C   UNL     1       7.339   2.755  22.532  0.00  0.00    +0.275 A 
ATOM     15  O   UNL     1       7.598   3.858  22.073  0.00  0.00    -0.266 OA
ATOM     16  C   UNL     1       8.012   1.546  22.193  0.00  0.00    +0.131 A 
ATOM     17  N   UNL     1       9.062   1.353  21.341  0.00  0.00    -0.355 N 
ATOM     18  H   UNL     1       9.522   2.084  20.807  0.00  0.00    +0.166 HD
ATOM     19  C   UNL     1       9.402   0.013  21.363  0.00  0.00    +0.094 A 
ENDBRANCH   4   8
BRANCH   2  20
ATOM     20  O   UNL     1       7.129  -2.118  25.464  0.00  0.00    -0.383 OA
ATOM     21  H   UNL     1       6.940  -2.388  26.384  0.00  0.00    +0.210 HD
ENDBRANCH   2  20
BRANCH   3  22
ATOM     22  O   UNL     1      10.256  -3.242  23.972  0.00  0.00    -0.383 OA
ATOM     23  H   UNL     1      10.866  -3.030  24.708  0.00  0.00    +0.210 HD
ENDBRANCH   3  22
BRANCH   1  24
ATOM     24  C   UNL     1       7.715  -5.115  23.222  0.00  0.00    +0.125 C 
BRANCH  24  26
ATOM     25  C   UNL     1       5.080  -5.703  22.576  0.00  0.00    +0.084 C 
ATOM     26  S   UNL     1       6.725  -5.727  21.820  0.00  0.00    -0.158 S 
ENDBRANCH  24  26
ENDBRANCH   1  24
TORSDOF 5
ENDMDL
MODEL 6
REMARK VINA RESULT:      -5.9      1.982      2.727
REMARK  Name = 
REMARK  6 active torsions:
REMARK  status: ('A' for Active; 'I' for Inactive)
REMARK    1  A    between atoms: C_1  and  S_2
REMARK    2  A    between atoms: S_2  and  C_3
REMARK    3  A    between atoms: C_3  and  C_4
REMARK    4  A    between atoms: C_9  and  C_17
REMARK    5  A    between atoms: C_11  and  O_13
REMARK    6  A    between atoms: C_14  and  O_16
REMARK                            x       y       z     vdW  Elec       q    Type
REMARK                         _______ _______ _______ _____ _____    ______ ____
ROOT
ATOM      1  C   UNL     1       6.550  -4.336  24.914  0.00  0.00    +0.105 C 
ATOM      2  C   UNL     1       7.766  -4.392  25.849  0.00  0.00    +0.198 C 
ATOM      3  C   UNL     1       8.980  -4.229  24.920  0.00  0.00    +0.201 C 
ATOM      4  C   UNL     1       8.451  -3.430  23.699  0.00  0.00    +0.129 C 
ATOM      5  N   UNL     1       6.973  -3.275  23.918  0.00  0.00    +0.239 N 
ATOM      6  H   UNL     1       6.817  -2.355  24.359  0.00  0.00    +0.202 HD
ATOM      7  H   UNL     1       6.445  -3.281  23.039  0.00  0.00    +0.202 HD
ENDROOT
BRANCH   4   8
ATOM      8  C   UNL     1       9.140  -2.129  23.484  0.00  0.00    +0.046 A 
ATOM      9  C   UNL     1       8.899  -0.915  24.156  0.00  0.00    +0.104 A 
ATOM     10  N   UNL     1       7.943  -0.685  25.146  0.00  0.00    -0.235 NA
ATOM     11  C   UNL     1       7.999   0.530  25.623  0.00  0.00    +0.199 A 
ATOM     12  N   UNL     1       8.870   1.526  25.236  0.00  0.00    -0.312 N 
ATOM     13  H   UNL     1       8.840   2.439  25.668  0.00  0.00    +0.170 HD
ATOM     14  C   UNL     1       9.817   1.356  24.254  0.00  0.00    +0.275 A 
ATOM     15  O   UNL     1      10.587   2.235  23.897  0.00  0.00    -0.266 OA
ATOM     16  C   UNL     1       9.779   0.033  23.725  0.00  0.00    +0.131 A 
ATOM     17  N   UNL     1      10.568  -0.535  22.766  0.00  0.00    -0.355 N 
ATOM     18  H   UNL     1      11.322  -0.062  22.275  0.00  0.00    +0.166 HD
ATOM     19  C   UNL     1      10.185  -1.854  22.609  0.00  0.00    +0.094 A 
ENDBRANCH   4   8
BRANCH   2  20
ATOM     20  O   UNL     1       7.657  -3.317  26.792  0.00  0.00    -0.383 OA
ATOM     21  H   UNL     1       8.386  -3.329  27.443  0.00  0.00    +0.210 HD
ENDBRANCH   2  20
BRANCH   3  22
ATOM     22  O   UNL     1       9.418  -5.518  24.485  0.00  0.00    -0.383 OA
ATOM     23  H   UNL     1       9.620  -6.055  25.278  0.00  0.00    +0.210 HD
ENDBRANCH   3  22
BRANCH   1  24
ATOM     24  C   UNL     1       6.189  -5.646  24.188  0.00  0.00    +0.125 C 
BRANCH  24  26
ATOM     25  C   UNL     1       6.567  -5.955  21.455  0.00  0.00    +0.084 C 
ATOM     26  S   UNL     1       5.348  -5.282  22.613  0.00  0.00    -0.158 S 
ENDBRANCH  24  26
ENDBRANCH   1  24
TORSDOF 5
ENDMDL
MODEL 7
REMARK VINA RESULT:      -5.8      1.901      2.519
REMARK  Name = 
REMARK  6 active torsions:
REMARK  status: ('A' for Active; 'I' for Inactive)
REMARK    1  A    between atoms: C_1  and  S_2
REMARK    2  A    between atoms: S_2  and  C_3
REMARK    3  A    between atoms: C_3  and  C_4
REMARK    4  A    between atoms: C_9  and  C_17
REMARK    5  A    between atoms: C_11  and  O_13
REMARK    6  A    between atoms: C_14  and  O_16
REMARK                            x       y       z     vdW  Elec       q    Type
REMARK                         _______ _______ _______ _____ _____    ______ ____
ROOT
ATOM      1  C   UNL     1       7.734  -4.256  25.466  0.00  0.00    +0.105 C 
ATOM      2  C   UNL     1       8.679  -4.417  24.267  0.00  0.00    +0.198 C 
ATOM      3  C   UNL     1       8.436  -3.167  23.407  0.00  0.00    +0.201 C 
ATOM      4  C   UNL     1       7.946  -2.080  24.401  0.00  0.00    +0.129 C 
ATOM      5  N   UNL     1       7.822  -2.766  25.732  0.00  0.00    +0.239 N 
ATOM      6  H   UNL     1       8.696  -2.595  26.255  0.00  0.00    +0.202 HD
ATOM      7  H   UNL     1       7.054  -2.388  26.297  0.00  0.00    +0.202 HD
ENDROOT
BRANCH   4   8
ATOM      8  C   UNL     1       8.817  -0.874  24.455  0.00  0.00    +0.046 A 
ATOM      9  C   UNL     1       9.092   0.027  23.409  0.00  0.00    +0.104 A 
ATOM     10  N   UNL     1       8.619  -0.047  22.098  0.00  0.00    -0.235 NA
ATOM     11  C   UNL     1       9.000   0.969  21.371  0.00  0.00    +0.199 A 
ATOM     12  N   UNL     1       9.785   2.026  21.780  0.00  0.00    -0.312 N 
ATOM     13  H   UNL     1      10.026   2.771  21.143  0.00  0.00    +0.170 HD
ATOM     14  C   UNL     1      10.291   2.135  23.054  0.00  0.00    +0.275 A 
ATOM     15  O   UNL     1      10.996   3.062  23.424  0.00  0.00    -0.266 OA
ATOM     16  C   UNL     1       9.880   1.040  23.869  0.00  0.00    +0.131 A 
ATOM     17  N   UNL     1      10.144   0.798  25.186  0.00  0.00    -0.355 N 
ATOM     18  H   UNL     1      10.701   1.398  25.789  0.00  0.00    +0.166 HD
ATOM     19  C   UNL     1       9.502  -0.368  25.554  0.00  0.00    +0.094 A 
ENDBRANCH   4   8
BRANCH   2  20
ATOM     20  O   UNL     1      10.024  -4.481  24.761  0.00  0.00    -0.383 OA
ATOM     21  H   UNL     1      10.573  -5.101  24.243  0.00  0.00    +0.210 HD
ENDBRANCH   2  20
BRANCH   3  22
ATOM     22  O   UNL     1       7.399  -3.440  22.461  0.00  0.00    -0.383 OA
ATOM     23  H   UNL     1       7.115  -4.369  22.579  0.00  0.00    +0.210 HD
ENDBRANCH   3  22
BRANCH   1  24
ATOM     24  C   UNL     1       6.270  -4.678  25.240  0.00  0.00    +0.125 C 
BRANCH  24  26
ATOM     25  C   UNL     1       4.172  -2.861  25.233  0.00  0.00    +0.084 C 
ATOM     26  S   UNL     1       5.175  -3.807  26.406  0.00  0.00    -0.158 S 
ENDBRANCH  24  26
ENDBRANCH   1  24
TORSDOF 5
ENDMDL
MODEL 8
REMARK VINA RESULT:      -5.8      2.504      3.597
REMARK  Name = 
REMARK  6 active torsions:
REMARK  status: ('A' for Active; 'I' for Inactive)
REMARK    1  A    between atoms: C_1  and  S_2
REMARK    2  A    between atoms: S_2  and  C_3
REMARK    3  A    between atoms: C_3  and  C_4
REMARK    4  A    between atoms: C_9  and  C_17
REMARK    5  A    between atoms: C_11  and  O_13
REMARK    6  A    between atoms: C_14  and  O_16
REMARK                            x       y       z     vdW  Elec       q    Type
REMARK                         _______ _______ _______ _____ _____    ______ ____
ROOT
ATOM      1  C   UNL     1       9.722  -2.070  23.932  0.00  0.00    +0.105 C 
ATOM      2  C   UNL     1       9.187  -1.793  22.520  0.00  0.00    +0.198 C 
ATOM      3  C   UNL     1       8.323  -0.531  22.670  0.00  0.00    +0.201 C 
ATOM      4  C   UNL     1       8.917   0.224  23.889  0.00  0.00    +0.129 C 
ATOM      5  N   UNL     1       9.993  -0.668  24.441  0.00  0.00    +0.239 N 
ATOM      6  H   UNL     1      10.892  -0.360  24.039  0.00  0.00    +0.202 HD
ATOM      7  H   UNL     1      10.077  -0.594  25.461  0.00  0.00    +0.202 HD
ENDROOT
BRANCH   4   8
ATOM      8  C   UNL     1       9.412   1.591  23.570  0.00  0.00    +0.046 A 
ATOM      9  C   UNL     1       9.057   2.797  24.204  0.00  0.00    +0.104 A 
ATOM     10  N   UNL     1       8.145   2.953  25.249  0.00  0.00    -0.235 NA
ATOM     11  C   UNL     1       8.071   4.188  25.667  0.00  0.00    +0.199 A 
ATOM     12  N   UNL     1       8.776   5.267  25.178  0.00  0.00    -0.312 N 
ATOM     13  H   UNL     1       8.653   6.189  25.571  0.00  0.00    +0.170 HD
ATOM     14  C   UNL     1       9.672   5.169  24.139  0.00  0.00    +0.275 A 
ATOM     15  O   UNL     1      10.293   6.120  23.690  0.00  0.00    -0.266 OA
ATOM     16  C   UNL     1       9.775   3.826  23.672  0.00  0.00    +0.131 A 
ATOM     17  N   UNL     1      10.568   3.316  22.684  0.00  0.00    -0.355 N 
ATOM     18  H   UNL     1      11.219   3.856  22.122  0.00  0.00    +0.166 HD
ATOM     19  C   UNL     1      10.354   1.952  22.613  0.00  0.00    +0.094 A 
ENDBRANCH   4   8
BRANCH   2  20
ATOM     20  O   UNL     1      10.306  -1.582  21.649  0.00  0.00    -0.383 OA
ATOM     21  H   UNL     1      11.035  -1.113  22.099  0.00  0.00    +0.210 HD
ENDBRANCH   2  20
BRANCH   3  22
ATOM     22  O   UNL     1       6.977  -0.913  22.965  0.00  0.00    -0.383 OA
ATOM     23  H   UNL     1       6.537  -1.154  22.124  0.00  0.00    +0.210 HD
ENDBRANCH   3  22
BRANCH   1  24
ATOM     24  C   UNL     1       8.771  -2.817  24.885  0.00  0.00    +0.125 C 
BRANCH  24  26
ATOM     25  C   UNL     1       9.248  -5.530  25.232  0.00  0.00    +0.084 C 
ATOM     26  S   UNL     1       8.291  -4.422  24.167  0.00  0.00    -0.158 S 
ENDBRANCH  24  26
ENDBRANCH   1  24
TORSDOF 5
ENDMDL
MODEL 9
REMARK VINA RESULT:      -5.7      3.354      6.317
REMARK  Name = 
REMARK  6 active torsions:
REMARK  status: ('A' for Active; 'I' for Inactive)
REMARK    1  A    between atoms: C_1  and  S_2
REMARK    2  A    between atoms: S_2  and  C_3
REMARK    3  A    between atoms: C_3  and  C_4
REMARK    4  A    between atoms: C_9  and  C_17
REMARK    5  A    between atoms: C_11  and  O_13
REMARK    6  A    between atoms: C_14  and  O_16
REMARK                            x       y       z     vdW  Elec       q    Type
REMARK                         _______ _______ _______ _____ _____    ______ ____
ROOT
ATOM      1  C   UNL     1       7.541   2.655  23.731  0.00  0.00    +0.105 C 
ATOM      2  C   UNL     1       7.405   2.128  22.296  0.00  0.00    +0.198 C 
ATOM      3  C   UNL     1       8.705   1.350  22.040  0.00  0.00    +0.201 C 
ATOM      4  C   UNL     1       9.178   0.881  23.442  0.00  0.00    +0.129 C 
ATOM      5  N   UNL     1       8.220   1.491  24.425  0.00  0.00    +0.239 N 
ATOM      6  H   UNL     1       7.494   0.787  24.633  0.00  0.00    +0.202 HD
ATOM      7  H   UNL     1       8.672   1.730  25.315  0.00  0.00    +0.202 HD
ENDROOT
BRANCH   4   8
ATOM      8  C   UNL     1       9.281  -0.598  23.582  0.00  0.00    +0.046 A 
ATOM      9  C   UNL     1       8.223  -1.528  23.602  0.00  0.00    +0.104 A 
ATOM     10  N   UNL     1       6.860  -1.242  23.519  0.00  0.00    -0.235 NA
ATOM     11  C   UNL     1       6.124  -2.321  23.505  0.00  0.00    +0.199 A 
ATOM     12  N   UNL     1       6.571  -3.624  23.567  0.00  0.00    -0.312 N 
ATOM     13  H   UNL     1       5.922  -4.398  23.546  0.00  0.00    +0.170 HD
ATOM     14  C   UNL     1       7.902  -3.957  23.668  0.00  0.00    +0.275 A 
ATOM     15  O   UNL     1       8.308  -5.107  23.735  0.00  0.00    -0.266 OA
ATOM     16  C   UNL     1       8.725  -2.793  23.677  0.00  0.00    +0.131 A 
ATOM     17  N   UNL     1      10.086  -2.701  23.735  0.00  0.00    -0.355 N 
ATOM     18  H   UNL     1      10.723  -3.491  23.786  0.00  0.00    +0.166 HD
ATOM     19  C   UNL     1      10.436  -1.365  23.679  0.00  0.00    +0.094 A 
ENDBRANCH   4   8
BRANCH   2  20
ATOM     20  O   UNL     1       6.247   1.284  22.235  0.00  0.00    -0.383 OA
ATOM     21  H   UNL     1       5.421   1.788  22.374  0.00  0.00    +0.210 HD
ENDBRANCH   2  20
BRANCH   3  22
ATOM     22  O   UNL     1       9.683   2.233  21.485  0.00  0.00    -0.383 OA
ATOM     23  H   UNL     1       9.691   2.107  20.514  0.00  0.00    +0.210 HD
ENDBRANCH   3  22
BRANCH   1  24
ATOM     24  C   UNL     1       8.365   3.944  23.907  0.00  0.00    +0.125 C 
BRANCH  24  26
ATOM     25  C   UNL     1       8.693   6.660  23.434  0.00  0.00    +0.084 C 
ATOM     26  S   UNL     1       7.705   5.265  22.838  0.00  0.00    -0.158 S 
ENDBRANCH  24  26
ENDBRANCH   1  24
TORSDOF 5
ENDMDL
