MODEL 1
REMARK VINA RESULT:      -6.7      0.000      0.000
REMARK  Name = 
REMARK  13 active torsions:
REMARK  status: ('A' for Active; 'I' for Inactive)
REMARK    1  A    between atoms: C_8  and  N_13
REMARK    2  A    between atoms: N_13  and  C_14
REMARK    3  A    between atoms: C_14  and  C_15
REMARK    4  A    between atoms: C_15  and  C_16
REMARK    5  A    between atoms: C_16  and  C_17
REMARK    6  A    between atoms: C_17  and  C_18
REMARK    7  A    between atoms: C_18  and  C_19
REMARK    8  A    between atoms: C_19  and  C_20
REMARK    9  A    between atoms: C_20  and  C_21
REMARK   10  A    between atoms: C_21  and  C_22
REMARK   11  A    between atoms: C_22  and  C_23
REMARK   12  A    between atoms: C_23  and  N_24
REMARK   13  A    between atoms: N_24  and  C_25
REMARK                            x       y       z     vdW  Elec       q    Type
REMARK                         _______ _______ _______ _____ _____    ______ ____
ROOT
ATOM      1  C   UNL     1       3.603  -2.295  26.942  0.00  0.00    +0.000 C 
ENDROOT
BRANCH   1   2
ATOM      2  C   UNL     1       4.315  -2.605  25.623  0.00  0.00    +0.000 C 
BRANCH   2   3
ATOM      3  C   UNL     1       5.568  -1.751  25.439  0.00  0.00    +0.000 C 
BRANCH   3   4
ATOM      4  C   UNL     1       6.496  -1.862  26.633  0.00  0.00    +0.001 C 
BRANCH   4   5
ATOM      5  C   UNL     1       7.248  -0.549  26.840  0.00  0.00    +0.015 C 
BRANCH   5   6
ATOM      6  C   UNL     1       8.742  -0.819  26.746  0.00  0.00    +0.081 C 
BRANCH   6   7
ATOM      7  N   UNL     1       9.375   0.141  25.852  0.00  0.00    -0.309 NA
ATOM      8  H   UNL     1       9.659   0.962  26.385  0.00  0.00    +0.123 HD
BRANCH   7  14
ATOM      9  O   UNL     1       9.442   5.913  23.531  0.00  0.00    -0.268 OA
ATOM     10  C   UNL     1       9.245   4.736  23.806  0.00  0.00    +0.249 A 
ATOM     11  C   UNL     1       8.475   4.349  25.012  0.00  0.00    +0.070 A 
ATOM     12  C   UNL     1       8.272   3.052  25.280  0.00  0.00    +0.012 A 
ATOM     13  C   UNL     1       8.799   2.009  24.410  0.00  0.00    -0.011 A 
ATOM     14  C   UNL     1       8.491   0.559  24.750  0.00  0.00    +0.086 C 
ATOM     15  C   UNL     1       8.656  -0.319  23.487  0.00  0.00    +0.024 C 
ATOM     16  C   UNL     1      10.015  -0.075  22.838  0.00  0.00    +0.008 C 
ATOM     17  C   UNL     1      10.093   1.370  22.343  0.00  0.00    +0.053 C 
ATOM     18  C   UNL     1       9.504   2.366  23.313  0.00  0.00    +0.024 A 
ATOM     19  N   UNL     1       9.709   3.699  23.035  0.00  0.00    -0.326 N 
ATOM     20  H   UNL     1      10.236   3.969  22.214  0.00  0.00    +0.169 HD
ENDBRANCH   7  14
ENDBRANCH   6   7
ENDBRANCH   5   6
ENDBRANCH   4   5
ENDBRANCH   3   4
ENDBRANCH   2   3
ENDBRANCH   1   2
BRANCH   1  21
ATOM     21  C   UNL     1       3.342  -3.569  27.732  0.00  0.00    +0.000 C 
BRANCH  21  22
ATOM     22  C   UNL     1       4.167  -3.672  29.011  0.00  0.00    +0.002 C 
BRANCH  22  23
ATOM     23  C   UNL     1       5.314  -4.683  28.838  0.00  0.00    +0.019 C 
BRANCH  23  24
ATOM     24  C   UNL     1       4.744  -6.016  28.374  0.00  0.00    +0.101 C 
BRANCH  24  25
ATOM     25  N   UNL     1       5.605  -6.695  27.418  0.00  0.00    -0.343 N 
ATOM     26  H   UNL     1       5.295  -7.658  27.347  0.00  0.00    +0.146 HD
BRANCH  25  27
ATOM     27  C   UNL     1       5.711  -6.126  26.107  0.00  0.00    +0.041 A 
ATOM     28  C   UNL     1       4.610  -6.312  25.191  0.00  0.00    +0.021 A 
ATOM     29  C   UNL     1       4.745  -5.781  23.893  0.00  0.00    +0.073 A 
ATOM     30  C   UNL     1       3.711  -5.932  22.977  0.00  0.00    +0.028 A 
ATOM     31  C   UNL     1       2.523  -6.589  23.301  0.00  0.00    +0.002 A 
ATOM     32  C   UNL     1       2.360  -7.112  24.570  0.00  0.00    +0.001 A 
ATOM     33  N   UNL     1       5.834  -5.118  23.480  0.00  0.00    -0.251 NA
ATOM     34  C   UNL     1       6.882  -4.979  24.323  0.00  0.00    +0.047 A 
ATOM     35  C   UNL     1       8.077  -4.269  23.732  0.00  0.00    +0.056 C 
ATOM     36  C   UNL     1       9.063  -3.752  24.773  0.00  0.00    +0.006 C 
ATOM     37  C   UNL     1       9.405  -4.878  25.724  0.00  0.00    +0.005 C 
ATOM     38  C   UNL     1       8.146  -5.327  26.450  0.00  0.00    +0.039 C 
ATOM     39  C   UNL     1       3.393  -6.982  25.500  0.00  0.00    +0.012 A 
ATOM     40  C   UNL     1       6.894  -5.501  25.621  0.00  0.00    -0.005 A 
ENDBRANCH  25  27
ENDBRANCH  24  25
ENDBRANCH  23  24
ENDBRANCH  22  23
ENDBRANCH  21  22
ENDBRANCH   1  21
TORSDOF 13
ENDMDL
MODEL 2
REMARK VINA RESULT:      -6.7      0.259      3.032
REMARK  Name = 
REMARK  13 active torsions:
REMARK  status: ('A' for Active; 'I' for Inactive)
REMARK    1  A    between atoms: C_8  and  N_13
REMARK    2  A    between atoms: N_13  and  C_14
REMARK    3  A    between atoms: C_14  and  C_15
REMARK    4  A    between atoms: C_15  and  C_16
REMARK    5  A    between atoms: C_16  and  C_17
REMARK    6  A    between atoms: C_17  and  C_18
REMARK    7  A    between atoms: C_18  and  C_19
REMARK    8  A    between atoms: C_19  and  C_20
REMARK    9  A    between atoms: C_20  and  C_21
REMARK   10  A    between atoms: C_21  and  C_22
REMARK   11  A    between atoms: C_22  and  C_23
REMARK   12  A    between atoms: C_23  and  N_24
REMARK   13  A    between atoms: N_24  and  C_25
REMARK                            x       y       z     vdW  Elec       q    Type
REMARK                         _______ _______ _______ _____ _____    ______ ____
ROOT
ATOM      1  C   UNL     1       3.483  -2.446  26.992  0.00  0.00    +0.000 C 
ENDROOT
BRANCH   1   2
ATOM      2  C   UNL     1       4.295  -2.734  25.727  0.00  0.00    +0.000 C 
BRANCH   2   3
ATOM      3  C   UNL     1       5.456  -1.755  25.562  0.00  0.00    +0.000 C 
BRANCH   3   4
ATOM      4  C   UNL     1       6.424  -1.841  26.727  0.00  0.00    +0.001 C 
BRANCH   4   5
ATOM      5  C   UNL     1       7.243  -0.556  26.828  0.00  0.00    +0.015 C 
BRANCH   5   6
ATOM      6  C   UNL     1       8.719  -0.906  26.716  0.00  0.00    +0.081 C 
BRANCH   6   7
ATOM      7  N   UNL     1       9.382  -0.011  25.778  0.00  0.00    -0.309 NA
ATOM      8  H   UNL     1       9.730   0.806  26.278  0.00  0.00    +0.123 HD
BRANCH   7  14
ATOM      9  O   UNL     1       9.456   5.799  23.555  0.00  0.00    -0.268 OA
ATOM     10  C   UNL     1       9.256   4.618  23.810  0.00  0.00    +0.249 A 
ATOM     11  C   UNL     1       8.493   4.214  25.014  0.00  0.00    +0.070 A 
ATOM     12  C   UNL     1       8.286   2.913  25.262  0.00  0.00    +0.012 A 
ATOM     13  C   UNL     1       8.804   1.883  24.371  0.00  0.00    -0.011 A 
ATOM     14  C   UNL     1       8.493   0.429  24.689  0.00  0.00    +0.086 C 
ATOM     15  C   UNL     1       8.647  -0.428  23.411  0.00  0.00    +0.024 C 
ATOM     16  C   UNL     1      10.003  -0.178  22.757  0.00  0.00    +0.008 C 
ATOM     17  C   UNL     1      10.084   1.275  22.286  0.00  0.00    +0.053 C 
ATOM     18  C   UNL     1       9.504   2.256  23.277  0.00  0.00    +0.024 A 
ATOM     19  N   UNL     1       9.713   3.593  23.020  0.00  0.00    -0.326 N 
ATOM     20  H   UNL     1      10.235   3.875  22.200  0.00  0.00    +0.169 HD
ENDBRANCH   7  14
ENDBRANCH   6   7
ENDBRANCH   5   6
ENDBRANCH   4   5
ENDBRANCH   3   4
ENDBRANCH   2   3
ENDBRANCH   1   2
BRANCH   1  21
ATOM     21  C   UNL     1       3.350  -3.697  27.848  0.00  0.00    +0.000 C 
BRANCH  21  22
ATOM     22  C   UNL     1       4.160  -3.642  29.139  0.00  0.00    +0.002 C 
BRANCH  22  23
ATOM     23  C   UNL     1       5.201  -4.774  29.176  0.00  0.00    +0.019 C 
BRANCH  23  24
ATOM     24  C   UNL     1       4.603  -6.028  28.554  0.00  0.00    +0.101 C 
BRANCH  24  25
ATOM     25  N   UNL     1       5.528  -6.713  27.664  0.00  0.00    -0.343 N 
ATOM     26  H   UNL     1       5.295  -7.699  27.669  0.00  0.00    +0.146 HD
BRANCH  25  27
ATOM     27  C   UNL     1       5.609  -6.244  26.311  0.00  0.00    +0.041 A 
ATOM     28  C   UNL     1       6.796  -5.531  25.905  0.00  0.00    +0.021 A 
ATOM     29  C   UNL     1       6.844  -5.042  24.584  0.00  0.00    +0.073 A 
ATOM     30  C   UNL     1       7.967  -4.352  24.147  0.00  0.00    +0.028 A 
ATOM     31  C   UNL     1       9.070  -4.129  24.972  0.00  0.00    +0.002 A 
ATOM     32  C   UNL     1       9.054  -4.606  26.270  0.00  0.00    +0.001 A 
ATOM     33  N   UNL     1       5.850  -5.212  23.703  0.00  0.00    -0.251 NA
ATOM     34  C   UNL     1       4.720  -5.844  24.093  0.00  0.00    +0.047 A 
ATOM     35  C   UNL     1       3.644  -5.925  23.036  0.00  0.00    +0.056 C 
ATOM     36  C   UNL     1       2.574  -6.971  23.325  0.00  0.00    +0.006 C 
ATOM     37  C   UNL     1       2.061  -6.769  24.734  0.00  0.00    +0.005 C 
ATOM     38  C   UNL     1       3.199  -6.974  25.722  0.00  0.00    +0.039 C 
ATOM     39  C   UNL     1       7.929  -5.290  26.733  0.00  0.00    +0.012 A 
ATOM     40  C   UNL     1       4.528  -6.334  25.390  0.00  0.00    -0.005 A 
ENDBRANCH  25  27
ENDBRANCH  24  25
ENDBRANCH  23  24
ENDBRANCH  22  23
ENDBRANCH  21  22
ENDBRANCH   1  21
TORSDOF 13
ENDMDL
MODEL 3
REMARK VINA RESULT:      -6.6      2.890      8.989
REMARK  Name = 
REMARK  13 active torsions:
REMARK  status: ('A' for Active; 'I' for Inactive)
REMARK    1  A    between atoms: C_8  and  N_13
REMARK    2  A    between atoms: N_13  and  C_14
REMARK    3  A    between atoms: C_14  and  C_15
REMARK    4  A    between atoms: C_15  and  C_16
REMARK    5  A    between atoms: C_16  and  C_17
REMARK    6  A    between atoms: C_17  and  C_18
REMARK    7  A    between atoms: C_18  and  C_19
REMARK    8  A    between atoms: C_19  and  C_20
REMARK    9  A    between atoms: C_20  and  C_21
REMARK   10  A    between atoms: C_21  and  C_22
REMARK   11  A    between atoms: C_22  and  C_23
REMARK   12  A    between atoms: C_23  and  N_24
REMARK   13  A    between atoms: N_24  and  C_25
REMARK                            x       y       z     vdW  Elec       q    Type
REMARK                         _______ _______ _______ _____ _____    ______ ____
ROOT
ATOM      1  C   UNL     1      10.532   0.259  24.068  0.00  0.00    +0.000 C 
ENDROOT
BRANCH   1   2
ATOM      2  C   UNL     1       9.546   0.134  25.232  0.00  0.00    +0.000 C 
BRANCH   2   3
ATOM      3  C   UNL     1       8.792  -1.194  25.199  0.00  0.00    +0.000 C 
BRANCH   3   4
ATOM      4  C   UNL     1       8.490  -1.696  26.598  0.00  0.00    +0.001 C 
BRANCH   4   5
ATOM      5  C   UNL     1       7.451  -2.815  26.544  0.00  0.00    +0.015 C 
BRANCH   5   6
ATOM      6  C   UNL     1       8.170  -4.153  26.604  0.00  0.00    +0.081 C 
BRANCH   6   7
ATOM      7  N   UNL     1       7.285  -5.224  26.166  0.00  0.00    -0.309 NA
ATOM      8  H   UNL     1       7.769  -5.804  25.482  0.00  0.00    +0.123 HD
BRANCH   7  14
ATOM      9  O   UNL     1       6.010  -5.758  20.100  0.00  0.00    -0.268 OA
ATOM     10  C   UNL     1       6.025  -5.539  21.304  0.00  0.00    +0.249 A 
ATOM     11  C   UNL     1       6.846  -4.443  21.873  0.00  0.00    +0.070 A 
ATOM     12  C   UNL     1       6.834  -4.226  23.196  0.00  0.00    +0.012 A 
ATOM     13  C   UNL     1       6.034  -5.051  24.091  0.00  0.00    -0.011 A 
ATOM     14  C   UNL     1       6.034  -4.719  25.575  0.00  0.00    +0.086 C 
ATOM     15  C   UNL     1       4.774  -5.318  26.243  0.00  0.00    +0.024 C 
ATOM     16  C   UNL     1       4.642  -6.800  25.905  0.00  0.00    +0.008 C 
ATOM     17  C   UNL     1       4.423  -6.965  24.400  0.00  0.00    +0.053 C 
ATOM     18  C   UNL     1       5.290  -6.051  23.568  0.00  0.00    +0.024 A 
ATOM     19  N   UNL     1       5.298  -6.272  22.208  0.00  0.00    -0.326 N 
ATOM     20  H   UNL     1       4.741  -7.020  21.815  0.00  0.00    +0.169 HD
ENDBRANCH   7  14
ENDBRANCH   6   7
ENDBRANCH   5   6
ENDBRANCH   4   5
ENDBRANCH   3   4
ENDBRANCH   2   3
ENDBRANCH   1   2
BRANCH   1  21
ATOM     21  C   UNL     1      10.160   1.424  23.163  0.00  0.00    +0.000 C 
BRANCH  21  22
ATOM     22  C   UNL     1       9.648   0.993  21.793  0.00  0.00    +0.002 C 
BRANCH  22  23
ATOM     23  C   UNL     1       8.306   1.675  21.475  0.00  0.00    +0.019 C 
BRANCH  23  24
ATOM     24  C   UNL     1       7.251   1.194  22.462  0.00  0.00    +0.101 C 
BRANCH  24  25
ATOM     25  N   UNL     1       6.465   2.283  23.022  0.00  0.00    -0.343 N 
ATOM     26  H   UNL     1       5.530   1.933  23.200  0.00  0.00    +0.146 HD
BRANCH  25  27
ATOM     27  C   UNL     1       6.972   2.923  24.199  0.00  0.00    +0.041 A 
ATOM     28  C   UNL     1       6.661   2.339  25.482  0.00  0.00    +0.021 A 
ATOM     29  C   UNL     1       7.132   3.001  26.633  0.00  0.00    +0.073 A 
ATOM     30  C   UNL     1       6.860   2.476  27.890  0.00  0.00    +0.028 A 
ATOM     31  C   UNL     1       6.136   1.295  28.059  0.00  0.00    +0.002 A 
ATOM     32  C   UNL     1       5.669   0.619  26.947  0.00  0.00    +0.001 A 
ATOM     33  N   UNL     1       7.850   4.132  26.587  0.00  0.00    -0.251 NA
ATOM     34  C   UNL     1       8.108   4.702  25.388  0.00  0.00    +0.047 A 
ATOM     35  C   UNL     1       8.872   6.004  25.459  0.00  0.00    +0.056 C 
ATOM     36  C   UNL     1       9.511   6.416  24.139  0.00  0.00    +0.006 C 
ATOM     37  C   UNL     1       8.463   6.359  23.049  0.00  0.00    +0.005 C 
ATOM     38  C   UNL     1       7.962   4.930  22.904  0.00  0.00    +0.039 C 
ATOM     39  C   UNL     1       5.920   1.138  25.676  0.00  0.00    +0.012 A 
ATOM     40  C   UNL     1       7.656   4.172  24.175  0.00  0.00    -0.005 A 
ENDBRANCH  25  27
ENDBRANCH  24  25
ENDBRANCH  23  24
ENDBRANCH  22  23
ENDBRANCH  21  22
ENDBRANCH   1  21
TORSDOF 13
ENDMDL
MODEL 4
REMARK VINA RESULT:      -6.6      2.027      4.082
REMARK  Name = 
REMARK  13 active torsions:
REMARK  status: ('A' for Active; 'I' for Inactive)
REMARK    1  A    between atoms: C_8  and  N_13
REMARK    2  A    between atoms: N_13  and  C_14
REMARK    3  A    between atoms: C_14  and  C_15
REMARK    4  A    between atoms: C_15  and  C_16
REMARK    5  A    between atoms: C_16  and  C_17
REMARK    6  A    between atoms: C_17  and  C_18
REMARK    7  A    between atoms: C_18  and  C_19
REMARK    8  A    between atoms: C_19  and  C_20
REMARK    9  A    between atoms: C_20  and  C_21
REMARK   10  A    between atoms: C_21  and  C_22
REMARK   11  A    between atoms: C_22  and  C_23
REMARK   12  A    between atoms: C_23  and  N_24
REMARK   13  A    between atoms: N_24  and  C_25
REMARK                            x       y       z     vdW  Elec       q    Type
REMARK                         _______ _______ _______ _____ _____    ______ ____
ROOT
ATOM      1  C   UNL     1      10.155  -1.653  23.174  0.00  0.00    +0.000 C 
ENDROOT
BRANCH   1   2
ATOM      2  C   UNL     1       9.039  -1.288  22.193  0.00  0.00    +0.000 C 
BRANCH   2   3
ATOM      3  C   UNL     1       7.818  -2.191  22.360  0.00  0.00    +0.000 C 
BRANCH   3   4
ATOM      4  C   UNL     1       6.579  -1.390  22.708  0.00  0.00    +0.001 C 
BRANCH   4   5
ATOM      5  C   UNL     1       6.076  -1.773  24.099  0.00  0.00    +0.015 C 
BRANCH   5   6
ATOM      6  C   UNL     1       5.695  -0.507  24.848  0.00  0.00    +0.081 C 
BRANCH   6   7
ATOM      7  N   UNL     1       5.663   0.630  23.938  0.00  0.00    -0.309 NA
ATOM      8  H   UNL     1       6.295   0.456  23.157  0.00  0.00    +0.123 HD
BRANCH   7  14
ATOM      9  O   UNL     1      11.236   3.274  23.130  0.00  0.00    -0.268 OA
ATOM     10  C   UNL     1      10.093   2.962  23.441  0.00  0.00    +0.249 A 
ATOM     11  C   UNL     1       9.835   1.886  24.427  0.00  0.00    +0.070 A 
ATOM     12  C   UNL     1       8.573   1.573  24.750  0.00  0.00    +0.012 A 
ATOM     13  C   UNL     1       7.444   2.269  24.147  0.00  0.00    -0.011 A 
ATOM     14  C   UNL     1       6.040   1.893  24.595  0.00  0.00    +0.086 C 
ATOM     15  C   UNL     1       5.063   3.049  24.271  0.00  0.00    +0.024 C 
ATOM     16  C   UNL     1       5.193   3.467  22.809  0.00  0.00    +0.008 C 
ATOM     17  C   UNL     1       6.592   4.033  22.561  0.00  0.00    +0.053 C 
ATOM     18  C   UNL     1       7.684   3.247  23.246  0.00  0.00    +0.024 A 
ATOM     19  N   UNL     1       8.981   3.571  22.916  0.00  0.00    -0.326 N 
ATOM     20  H   UNL     1       9.163   4.304  22.242  0.00  0.00    +0.169 HD
ENDBRANCH   7  14
ENDBRANCH   6   7
ENDBRANCH   5   6
ENDBRANCH   4   5
ENDBRANCH   3   4
ENDBRANCH   2   3
ENDBRANCH   1   2
BRANCH   1  21
ATOM     21  C   UNL     1       9.690  -2.719  24.155  0.00  0.00    +0.000 C 
BRANCH  21  22
ATOM     22  C   UNL     1       9.291  -2.161  25.517  0.00  0.00    +0.002 C 
BRANCH  22  23
ATOM     23  C   UNL     1       8.417  -3.169  26.283  0.00  0.00    +0.019 C 
BRANCH  23  24
ATOM     24  C   UNL     1       9.187  -4.471  26.458  0.00  0.00    +0.101 C 
BRANCH  24  25
ATOM     25  N   UNL     1       8.338  -5.647  26.348  0.00  0.00    -0.343 N 
ATOM     26  H   UNL     1       8.304  -6.094  27.258  0.00  0.00    +0.146 HD
BRANCH  25  27
ATOM     27  C   UNL     1       7.005  -5.454  25.858  0.00  0.00    +0.041 A 
ATOM     28  C   UNL     1       5.933  -5.352  26.818  0.00  0.00    +0.021 A 
ATOM     29  C   UNL     1       4.623  -5.202  26.320  0.00  0.00    +0.073 A 
ATOM     30  C   UNL     1       3.558  -5.097  27.206  0.00  0.00    +0.028 A 
ATOM     31  C   UNL     1       3.738  -5.124  28.590  0.00  0.00    +0.002 A 
ATOM     32  C   UNL     1       5.013  -5.261  29.106  0.00  0.00    +0.001 A 
ATOM     33  N   UNL     1       4.336  -5.149  25.013  0.00  0.00    -0.251 NA
ATOM     34  C   UNL     1       5.335  -5.285  24.111  0.00  0.00    +0.047 A 
ATOM     35  C   UNL     1       4.889  -5.269  22.667  0.00  0.00    +0.056 C 
ATOM     36  C   UNL     1       6.017  -5.004  21.678  0.00  0.00    +0.006 C 
ATOM     37  C   UNL     1       7.161  -5.950  21.974  0.00  0.00    +0.005 C 
ATOM     38  C   UNL     1       7.690  -5.680  23.375  0.00  0.00    +0.039 C 
ATOM     39  C   UNL     1       6.095  -5.382  28.233  0.00  0.00    +0.012 A 
ATOM     40  C   UNL     1       6.671  -5.487  24.475  0.00  0.00    -0.005 A 
ENDBRANCH  25  27
ENDBRANCH  24  25
ENDBRANCH  23  24
ENDBRANCH  22  23
ENDBRANCH  21  22
ENDBRANCH   1  21
TORSDOF 13
ENDMDL
MODEL 5
REMARK VINA RESULT:      -6.6      2.192      4.777
REMARK  Name = 
REMARK  13 active torsions:
REMARK  status: ('A' for Active; 'I' for Inactive)
REMARK    1  A    between atoms: C_8  and  N_13
REMARK    2  A    between atoms: N_13  and  C_14
REMARK    3  A    between atoms: C_14  and  C_15
REMARK    4  A    between atoms: C_15  and  C_16
REMARK    5  A    between atoms: C_16  and  C_17
REMARK    6  A    between atoms: C_17  and  C_18
REMARK    7  A    between atoms: C_18  and  C_19
REMARK    8  A    between atoms: C_19  and  C_20
REMARK    9  A    between atoms: C_20  and  C_21
REMARK   10  A    between atoms: C_21  and  C_22
REMARK   11  A    between atoms: C_22  and  C_23
REMARK   12  A    between atoms: C_23  and  N_24
REMARK   13  A    between atoms: N_24  and  C_25
REMARK                            x       y       z     vdW  Elec       q    Type
REMARK                         _______ _______ _______ _____ _____    ______ ____
ROOT
ATOM      1  C   UNL     1       9.965  -1.487  23.075  0.00  0.00    +0.000 C 
ENDROOT
BRANCH   1   2
ATOM      2  C   UNL     1       9.060  -0.979  21.951  0.00  0.00    +0.000 C 
BRANCH   2   3
ATOM      3  C   UNL     1       9.464   0.419  21.484  0.00  0.00    +0.000 C 
BRANCH   3   4
ATOM      4  C   UNL     1       8.272   1.355  21.440  0.00  0.00    +0.001 C 
BRANCH   4   5
ATOM      5  C   UNL     1       7.196   0.887  22.418  0.00  0.00    +0.015 C 
BRANCH   5   6
ATOM      6  C   UNL     1       6.479   2.105  22.978  0.00  0.00    +0.081 C 
BRANCH   6   7
ATOM      7  N   UNL     1       7.260   3.309  22.733  0.00  0.00    -0.309 NA
ATOM      8  H   UNL     1       8.019   3.094  22.088  0.00  0.00    +0.123 HD
BRANCH   7  14
ATOM      9  O   UNL     1      13.164   5.230  23.134  0.00  0.00    -0.268 OA
ATOM     10  C   UNL     1      11.988   4.934  23.304  0.00  0.00    +0.249 A 
ATOM     11  C   UNL     1      11.574   3.523  23.492  0.00  0.00    +0.070 A 
ATOM     12  C   UNL     1      10.279   3.234  23.682  0.00  0.00    +0.012 A 
ATOM     13  C   UNL     1       9.265   4.280  23.702  0.00  0.00    -0.011 A 
ATOM     14  C   UNL     1       7.821   3.883  23.968  0.00  0.00    +0.086 C 
ATOM     15  C   UNL     1       7.027   5.112  24.469  0.00  0.00    +0.024 C 
ATOM     16  C   UNL     1       7.216   6.295  23.524  0.00  0.00    +0.008 C 
ATOM     17  C   UNL     1       8.683   6.727  23.531  0.00  0.00    +0.053 C 
ATOM     18  C   UNL     1       9.647   5.564  23.526  0.00  0.00    +0.024 A 
ATOM     19  N   UNL     1      10.978   5.863  23.335  0.00  0.00    -0.326 N 
ATOM     20  H   UNL     1      11.267   6.824  23.204  0.00  0.00    +0.169 HD
ENDBRANCH   7  14
ENDBRANCH   6   7
ENDBRANCH   5   6
ENDBRANCH   4   5
ENDBRANCH   3   4
ENDBRANCH   2   3
ENDBRANCH   1   2
BRANCH   1  21
ATOM     21  C   UNL     1      10.173  -0.414  24.133  0.00  0.00    +0.000 C 
BRANCH  21  22
ATOM     22  C   UNL     1       9.407  -0.676  25.426  0.00  0.00    +0.002 C 
BRANCH  22  23
ATOM     23  C   UNL     1       8.214  -1.613  25.171  0.00  0.00    +0.019 C 
BRANCH  23  24
ATOM     24  C   UNL     1       8.162  -2.670  26.266  0.00  0.00    +0.101 C 
BRANCH  24  25
ATOM     25  N   UNL     1       8.418  -4.012  25.766  0.00  0.00    -0.343 N 
ATOM     26  H   UNL     1       9.019  -4.484  26.433  0.00  0.00    +0.146 HD
BRANCH  25  27
ATOM     27  C   UNL     1       7.280  -4.835  25.478  0.00  0.00    +0.041 A 
ATOM     28  C   UNL     1       6.890  -5.002  24.099  0.00  0.00    +0.021 A 
ATOM     29  C   UNL     1       5.746  -5.781  23.834  0.00  0.00    +0.073 A 
ATOM     30  C   UNL     1       5.333  -5.972  22.522  0.00  0.00    +0.028 A 
ATOM     31  C   UNL     1       6.022  -5.424  21.439  0.00  0.00    +0.002 A 
ATOM     32  C   UNL     1       7.153  -4.662  21.669  0.00  0.00    +0.001 A 
ATOM     33  N   UNL     1       5.019  -6.367  24.794  0.00  0.00    -0.251 NA
ATOM     34  C   UNL     1       5.359  -6.179  26.089  0.00  0.00    +0.047 A 
ATOM     35  C   UNL     1       4.435  -6.836  27.087  0.00  0.00    +0.056 C 
ATOM     36  C   UNL     1       5.034  -6.977  28.481  0.00  0.00    +0.006 C 
ATOM     37  C   UNL     1       5.581  -5.635  28.917  0.00  0.00    +0.005 C 
ATOM     38  C   UNL     1       6.691  -5.210  27.968  0.00  0.00    +0.039 C 
ATOM     39  C   UNL     1       7.576  -4.447  22.982  0.00  0.00    +0.012 A 
ATOM     40  C   UNL     1       6.443  -5.389  26.488  0.00  0.00    -0.005 A 
ENDBRANCH  25  27
ENDBRANCH  24  25
ENDBRANCH  23  24
ENDBRANCH  22  23
ENDBRANCH  21  22
ENDBRANCH   1  21
TORSDOF 13
ENDMDL
MODEL 6
REMARK VINA RESULT:      -6.5      2.209      4.747
REMARK  Name = 
REMARK  13 active torsions:
REMARK  status: ('A' for Active; 'I' for Inactive)
REMARK    1  A    between atoms: C_8  and  N_13
REMARK    2  A    between atoms: N_13  and  C_14
REMARK    3  A    between atoms: C_14  and  C_15
REMARK    4  A    between atoms: C_15  and  C_16
REMARK    5  A    between atoms: C_16  and  C_17
REMARK    6  A    between atoms: C_17  and  C_18
REMARK    7  A    between atoms: C_18  and  C_19
REMARK    8  A    between atoms: C_19  and  C_20
REMARK    9  A    between atoms: C_20  and  C_21
REMARK   10  A    between atoms: C_21  and  C_22
REMARK   11  A    between atoms: C_22  and  C_23
REMARK   12  A    between atoms: C_23  and  N_24
REMARK   13  A    between atoms: N_24  and  C_25
REMARK                            x       y       z     vdW  Elec       q    Type
REMARK                         _______ _______ _______ _____ _____    ______ ____
ROOT
ATOM      1  C   UNL     1      10.019  -1.548  23.252  0.00  0.00    +0.000 C 
ENDROOT
BRANCH   1   2
ATOM      2  C   UNL     1       9.523  -1.029  21.900  0.00  0.00    +0.000 C 
BRANCH   2   3
ATOM      3  C   UNL     1       9.639   0.491  21.798  0.00  0.00    +0.000 C 
BRANCH   3   4
ATOM      4  C   UNL     1       8.322   1.122  21.390  0.00  0.00    +0.001 C 
BRANCH   4   5
ATOM      5  C   UNL     1       7.272   0.903  22.478  0.00  0.00    +0.015 C 
BRANCH   5   6
ATOM      6  C   UNL     1       6.445   2.171  22.623  0.00  0.00    +0.081 C 
BRANCH   6   7
ATOM      7  N   UNL     1       7.288   3.347  22.456  0.00  0.00    -0.309 NA
ATOM      8  H   UNL     1       8.094   3.107  21.879  0.00  0.00    +0.123 HD
BRANCH   7  14
ATOM      9  O   UNL     1      13.126   5.324  23.304  0.00  0.00    -0.268 OA
ATOM     10  C   UNL     1      11.945   5.010  23.386  0.00  0.00    +0.249 A 
ATOM     11  C   UNL     1      11.537   3.590  23.511  0.00  0.00    +0.070 A 
ATOM     12  C   UNL     1      10.236   3.282  23.606  0.00  0.00    +0.012 A 
ATOM     13  C   UNL     1       9.210   4.315  23.582  0.00  0.00    -0.011 A 
ATOM     14  C   UNL     1       7.757   3.896  23.740  0.00  0.00    +0.086 C 
ATOM     15  C   UNL     1       6.915   5.103  24.215  0.00  0.00    +0.024 C 
ATOM     16  C   UNL     1       7.152   6.311  23.314  0.00  0.00    +0.008 C 
ATOM     17  C   UNL     1       8.610   6.759  23.431  0.00  0.00    +0.053 C 
ATOM     18  C   UNL     1       9.587   5.608  23.464  0.00  0.00    +0.024 A 
ATOM     19  N   UNL     1      10.924   5.926  23.371  0.00  0.00    -0.326 N 
ATOM     20  H   UNL     1      11.208   6.894  23.284  0.00  0.00    +0.169 HD
ENDBRANCH   7  14
ENDBRANCH   6   7
ENDBRANCH   5   6
ENDBRANCH   4   5
ENDBRANCH   3   4
ENDBRANCH   2   3
ENDBRANCH   1   2
BRANCH   1  21
ATOM     21  C   UNL     1      10.166  -0.409  24.250  0.00  0.00    +0.000 C 
BRANCH  21  22
ATOM     22  C   UNL     1       9.347  -0.604  25.522  0.00  0.00    +0.002 C 
BRANCH  22  23
ATOM     23  C   UNL     1       8.089  -1.442  25.236  0.00  0.00    +0.019 C 
BRANCH  23  24
ATOM     24  C   UNL     1       7.847  -2.397  26.397  0.00  0.00    +0.101 C 
BRANCH  24  25
ATOM     25  N   UNL     1       8.180  -3.775  26.072  0.00  0.00    -0.343 N 
ATOM     26  H   UNL     1       8.651  -4.180  26.874  0.00  0.00    +0.146 HD
BRANCH  25  27
ATOM     27  C   UNL     1       7.108  -4.633  25.661  0.00  0.00    +0.041 A 
ATOM     28  C   UNL     1       6.381  -5.353  26.679  0.00  0.00    +0.021 A 
ATOM     29  C   UNL     1       5.355  -6.222  26.256  0.00  0.00    +0.073 A 
ATOM     30  C   UNL     1       4.625  -6.935  27.199  0.00  0.00    +0.028 A 
ATOM     31  C   UNL     1       4.864  -6.814  28.569  0.00  0.00    +0.002 A 
ATOM     32  C   UNL     1       5.858  -5.961  29.012  0.00  0.00    +0.001 A 
ATOM     33  N   UNL     1       5.031  -6.404  24.969  0.00  0.00    -0.251 NA
ATOM     34  C   UNL     1       5.738  -5.761  24.012  0.00  0.00    +0.047 A 
ATOM     35  C   UNL     1       5.324  -6.086  22.596  0.00  0.00    +0.056 C 
ATOM     36  C   UNL     1       5.816  -5.079  21.564  0.00  0.00    +0.006 C 
ATOM     37  C   UNL     1       7.303  -4.869  21.755  0.00  0.00    +0.005 C 
ATOM     38  C   UNL     1       7.558  -4.290  23.138  0.00  0.00    +0.039 C 
ATOM     39  C   UNL     1       6.612  -5.246  28.080  0.00  0.00    +0.012 A 
ATOM     40  C   UNL     1       6.810  -4.908  24.296  0.00  0.00    -0.005 A 
ENDBRANCH  25  27
ENDBRANCH  24  25
ENDBRANCH  23  24
ENDBRANCH  22  23
ENDBRANCH  21  22
ENDBRANCH   1  21
TORSDOF 13
ENDMDL
MODEL 7
REMARK VINA RESULT:      -6.5      1.881      3.534
REMARK  Name = 
REMARK  13 active torsions:
REMARK  status: ('A' for Active; 'I' for Inactive)
REMARK    1  A    between atoms: C_8  and  N_13
REMARK    2  A    between atoms: N_13  and  C_14
REMARK    3  A    between atoms: C_14  and  C_15
REMARK    4  A    between atoms: C_15  and  C_16
REMARK    5  A    between atoms: C_16  and  C_17
REMARK    6  A    between atoms: C_17  and  C_18
REMARK    7  A    between atoms: C_18  and  C_19
REMARK    8  A    between atoms: C_19  and  C_20
REMARK    9  A    between atoms: C_20  and  C_21
REMARK   10  A    between atoms: C_21  and  C_22
REMARK   11  A    between atoms: C_22  and  C_23
REMARK   12  A    between atoms: C_23  and  N_24
REMARK   13  A    between atoms: N_24  and  C_25
REMARK                            x       y       z     vdW  Elec       q    Type
REMARK                         _______ _______ _______ _____ _____    ______ ____
ROOT
ATOM      1  C   UNL     1       2.246  -4.254  26.069  0.00  0.00    +0.000 C 
ENDROOT
BRANCH   1   2
ATOM      2  C   UNL     1       3.264  -3.431  26.862  0.00  0.00    +0.000 C 
BRANCH   2   3
ATOM      3  C   UNL     1       4.104  -2.536  25.952  0.00  0.00    +0.000 C 
BRANCH   3   4
ATOM      4  C   UNL     1       5.089  -1.703  26.749  0.00  0.00    +0.001 C 
BRANCH   4   5
ATOM      5  C   UNL     1       5.571  -0.517  25.916  0.00  0.00    +0.015 C 
BRANCH   5   6
ATOM      6  C   UNL     1       5.821  -0.987  24.492  0.00  0.00    +0.081 C 
BRANCH   6   7
ATOM      7  N   UNL     1       6.051   0.153  23.615  0.00  0.00    -0.309 NA
ATOM      8  H   UNL     1       6.859  -0.033  23.023  0.00  0.00    +0.123 HD
BRANCH   7  14
ATOM      9  O   UNL     1      11.399   3.315  23.297  0.00  0.00    -0.268 OA
ATOM     10  C   UNL     1      10.274   2.888  23.520  0.00  0.00    +0.249 A 
ATOM     11  C   UNL     1      10.057   1.738  24.430  0.00  0.00    +0.070 A 
ATOM     12  C   UNL     1       8.811   1.299  24.657  0.00  0.00    +0.012 A 
ATOM     13  C   UNL     1       7.661   1.926  24.020  0.00  0.00    -0.011 A 
ATOM     14  C   UNL     1       6.273   1.405  24.359  0.00  0.00    +0.086 C 
ATOM     15  C   UNL     1       5.217   2.487  24.034  0.00  0.00    +0.024 C 
ATOM     16  C   UNL     1       5.392   2.998  22.607  0.00  0.00    +0.008 C 
ATOM     17  C   UNL     1       6.746   3.697  22.477  0.00  0.00    +0.053 C 
ATOM     18  C   UNL     1       7.863   2.972  23.188  0.00  0.00    +0.024 A 
ATOM     19  N   UNL     1       9.143   3.426  22.957  0.00  0.00    -0.326 N 
ATOM     20  H   UNL     1       9.297   4.209  22.335  0.00  0.00    +0.169 HD
ENDBRANCH   7  14
ENDBRANCH   6   7
ENDBRANCH   5   6
ENDBRANCH   4   5
ENDBRANCH   3   4
ENDBRANCH   2   3
ENDBRANCH   1   2
BRANCH   1  21
ATOM     21  C   UNL     1       2.505  -4.145  24.574  0.00  0.00    +0.000 C 
BRANCH  21  22
ATOM     22  C   UNL     1       2.034  -5.361  23.784  0.00  0.00    +0.002 C 
BRANCH  22  23
ATOM     23  C   UNL     1       3.218  -6.047  23.081  0.00  0.00    +0.019 C 
BRANCH  23  24
ATOM     24  C   UNL     1       4.372  -5.060  22.964  0.00  0.00    +0.101 C 
BRANCH  24  25
ATOM     25  N   UNL     1       5.666  -5.673  23.223  0.00  0.00    -0.343 N 
ATOM     26  H   UNL     1       6.203  -5.645  22.363  0.00  0.00    +0.146 HD
BRANCH  25  27
ATOM     27  C   UNL     1       6.448  -5.132  24.295  0.00  0.00    +0.041 A 
ATOM     28  C   UNL     1       6.136  -5.543  25.643  0.00  0.00    +0.021 A 
ATOM     29  C   UNL     1       6.887  -4.972  26.690  0.00  0.00    +0.073 A 
ATOM     30  C   UNL     1       6.625  -5.339  28.004  0.00  0.00    +0.028 A 
ATOM     31  C   UNL     1       5.640  -6.272  28.332  0.00  0.00    +0.002 A 
ATOM     32  C   UNL     1       4.894  -6.855  27.324  0.00  0.00    +0.001 A 
ATOM     33  N   UNL     1       7.865  -4.080  26.489  0.00  0.00    -0.251 NA
ATOM     34  C   UNL     1       8.132  -3.663  25.230  0.00  0.00    +0.047 A 
ATOM     35  C   UNL     1       9.213  -2.611  25.129  0.00  0.00    +0.056 C 
ATOM     36  C   UNL     1       9.790  -2.455  23.727  0.00  0.00    +0.006 C 
ATOM     37  C   UNL     1       8.651  -2.286  22.745  0.00  0.00    +0.005 C 
ATOM     38  C   UNL     1       7.781  -3.534  22.760  0.00  0.00    +0.039 C 
ATOM     39  C   UNL     1       5.133  -6.489  25.998  0.00  0.00    +0.012 A 
ATOM     40  C   UNL     1       7.427  -4.115  24.110  0.00  0.00    -0.005 A 
ENDBRANCH  25  27
ENDBRANCH  24  25
ENDBRANCH  23  24
ENDBRANCH  22  23
ENDBRANCH  21  22
ENDBRANCH   1  21
TORSDOF 13
ENDMDL
MODEL 8
REMARK VINA RESULT:      -6.4      2.037      4.386
REMARK  Name = 
REMARK  13 active torsions:
REMARK  status: ('A' for Active; 'I' for Inactive)
REMARK    1  A    between atoms: C_8  and  N_13
REMARK    2  A    between atoms: N_13  and  C_14
REMARK    3  A    between atoms: C_14  and  C_15
REMARK    4  A    between atoms: C_15  and  C_16
REMARK    5  A    between atoms: C_16  and  C_17
REMARK    6  A    between atoms: C_17  and  C_18
REMARK    7  A    between atoms: C_18  and  C_19
REMARK    8  A    between atoms: C_19  and  C_20
REMARK    9  A    between atoms: C_20  and  C_21
REMARK   10  A    between atoms: C_21  and  C_22
REMARK   11  A    between atoms: C_22  and  C_23
REMARK   12  A    between atoms: C_23  and  N_24
REMARK   13  A    between atoms: N_24  and  C_25
REMARK                            x       y       z     vdW  Elec       q    Type
REMARK                         _______ _______ _______ _____ _____    ______ ____
ROOT
ATOM      1  C   UNL     1       5.315  -2.034  24.778  0.00  0.00    +0.000 C 
ENDROOT
BRANCH   1   2
ATOM      2  C   UNL     1       6.590  -1.395  25.333  0.00  0.00    +0.000 C 
BRANCH   2   3
ATOM      3  C   UNL     1       6.563  -1.304  26.858  0.00  0.00    +0.000 C 
BRANCH   3   4
ATOM      4  C   UNL     1       7.301  -0.076  27.354  0.00  0.00    +0.001 C 
BRANCH   4   5
ATOM      5  C   UNL     1       6.377   1.141  27.327  0.00  0.00    +0.015 C 
BRANCH   5   6
ATOM      6  C   UNL     1       7.121   2.307  26.697  0.00  0.00    +0.081 C 
BRANCH   6   7
ATOM      7  N   UNL     1       7.071   2.214  25.244  0.00  0.00    -0.309 NA
ATOM      8  H   UNL     1       6.836   1.259  24.975  0.00  0.00    +0.123 HD
BRANCH   7  14
ATOM      9  O   UNL     1      10.715  -1.896  22.322  0.00  0.00    -0.268 OA
ATOM     10  C   UNL     1      10.181  -0.915  22.825  0.00  0.00    +0.249 A 
ATOM     11  C   UNL     1      10.212  -0.693  24.290  0.00  0.00    +0.070 A 
ATOM     12  C   UNL     1       9.623   0.395  24.807  0.00  0.00    +0.012 A 
ATOM     13  C   UNL     1       8.947   1.365  23.957  0.00  0.00    -0.011 A 
ATOM     14  C   UNL     1       8.341   2.599  24.607  0.00  0.00    +0.086 C 
ATOM     15  C   UNL     1       8.164   3.712  23.547  0.00  0.00    +0.024 C 
ATOM     16  C   UNL     1       7.414   3.180  22.330  0.00  0.00    +0.008 C 
ATOM     17  C   UNL     1       8.249   2.096  21.647  0.00  0.00    +0.053 C 
ATOM     18  C   UNL     1       8.919   1.157  22.621  0.00  0.00    +0.024 A 
ATOM     19  N   UNL     1       9.527   0.041  22.089  0.00  0.00    -0.326 N 
ATOM     20  H   UNL     1       9.507  -0.116  21.089  0.00  0.00    +0.169 HD
ENDBRANCH   7  14
ENDBRANCH   6   7
ENDBRANCH   5   6
ENDBRANCH   4   5
ENDBRANCH   3   4
ENDBRANCH   2   3
ENDBRANCH   1   2
BRANCH   1  21
ATOM     21  C   UNL     1       4.341  -2.364  25.899  0.00  0.00    +0.000 C 
BRANCH  21  22
ATOM     22  C   UNL     1       3.181  -3.251  25.458  0.00  0.00    +0.002 C 
BRANCH  22  23
ATOM     23  C   UNL     1       3.584  -4.111  24.247  0.00  0.00    +0.019 C 
BRANCH  23  24
ATOM     24  C   UNL     1       3.322  -5.578  24.563  0.00  0.00    +0.101 C 
BRANCH  24  25
ATOM     25  N   UNL     1       4.543  -6.325  24.823  0.00  0.00    -0.343 N 
ATOM     26  H   UNL     1       5.091  -6.335  23.970  0.00  0.00    +0.146 HD
BRANCH  25  27
ATOM     27  C   UNL     1       5.362  -5.889  25.915  0.00  0.00    +0.041 A 
ATOM     28  C   UNL     1       6.660  -5.332  25.615  0.00  0.00    +0.021 A 
ATOM     29  C   UNL     1       7.470  -4.944  26.701  0.00  0.00    +0.073 A 
ATOM     30  C   UNL     1       8.726  -4.401  26.463  0.00  0.00    +0.028 A 
ATOM     31  C   UNL     1       9.220  -4.211  25.171  0.00  0.00    +0.002 A 
ATOM     32  C   UNL     1       8.442  -4.574  24.087  0.00  0.00    +0.001 A 
ATOM     33  N   UNL     1       7.091  -5.066  27.980  0.00  0.00    -0.251 NA
ATOM     34  C   UNL     1       5.893  -5.625  28.264  0.00  0.00    +0.047 A 
ATOM     35  C   UNL     1       5.596  -5.768  29.739  0.00  0.00    +0.056 C 
ATOM     36  C   UNL     1       4.122  -5.997  30.051  0.00  0.00    +0.006 C 
ATOM     37  C   UNL     1       3.611  -7.133  29.192  0.00  0.00    +0.005 C 
ATOM     38  C   UNL     1       3.728  -6.750  27.725  0.00  0.00    +0.039 C 
ATOM     39  C   UNL     1       7.183  -5.135  24.306  0.00  0.00    +0.012 A 
ATOM     40  C   UNL     1       5.016  -6.095  27.280  0.00  0.00    -0.005 A 
ENDBRANCH  25  27
ENDBRANCH  24  25
ENDBRANCH  23  24
ENDBRANCH  22  23
ENDBRANCH  21  22
ENDBRANCH   1  21
TORSDOF 13
ENDMDL
MODEL 9
REMARK VINA RESULT:      -6.4      2.676      8.222
REMARK  Name = 
REMARK  13 active torsions:
REMARK  status: ('A' for Active; 'I' for Inactive)
REMARK    1  A    between atoms: C_8  and  N_13
REMARK    2  A    between atoms: N_13  and  C_14
REMARK    3  A    between atoms: C_14  and  C_15
REMARK    4  A    between atoms: C_15  and  C_16
REMARK    5  A    between atoms: C_16  and  C_17
REMARK    6  A    between atoms: C_17  and  C_18
REMARK    7  A    between atoms: C_18  and  C_19
REMARK    8  A    between atoms: C_19  and  C_20
REMARK    9  A    between atoms: C_20  and  C_21
REMARK   10  A    between atoms: C_21  and  C_22
REMARK   11  A    between atoms: C_22  and  C_23
REMARK   12  A    between atoms: C_23  and  N_24
REMARK   13  A    between atoms: N_24  and  C_25
REMARK                            x       y       z     vdW  Elec       q    Type
REMARK                         _______ _______ _______ _____ _____    ______ ____
ROOT
ATOM      1  C   UNL     1       8.542  -0.762  26.733  0.00  0.00    +0.000 C 
ENDROOT
BRANCH   1   2
ATOM      2  C   UNL     1       7.933  -2.002  26.073  0.00  0.00    +0.000 C 
BRANCH   2   3
ATOM      3  C   UNL     1       8.992  -3.056  25.758  0.00  0.00    +0.000 C 
BRANCH   3   4
ATOM      4  C   UNL     1       8.722  -4.353  26.496  0.00  0.00    +0.001 C 
BRANCH   4   5
ATOM      5  C   UNL     1       7.342  -4.309  27.151  0.00  0.00    +0.015 C 
BRANCH   5   6
ATOM      6  C   UNL     1       6.931  -5.725  27.522  0.00  0.00    +0.081 C 
BRANCH   6   7
ATOM      7  N   UNL     1       6.048  -6.279  26.504  0.00  0.00    -0.309 NA
ATOM      8  H   UNL     1       6.592  -6.853  25.861  0.00  0.00    +0.123 HD
BRANCH   7  14
ATOM      9  O   UNL     1       6.175  -6.018  20.289  0.00  0.00    -0.268 OA
ATOM     10  C   UNL     1       5.994  -5.860  21.490  0.00  0.00    +0.249 A 
ATOM     11  C   UNL     1       7.052  -5.283  22.354  0.00  0.00    +0.070 A 
ATOM     12  C   UNL     1       6.820  -5.117  23.663  0.00  0.00    +0.012 A 
ATOM     13  C   UNL     1       5.547  -5.498  24.259  0.00  0.00    -0.011 A 
ATOM     14  C   UNL     1       5.336  -5.238  25.743  0.00  0.00    +0.086 C 
ATOM     15  C   UNL     1       3.822  -5.201  26.056  0.00  0.00    +0.024 C 
ATOM     16  C   UNL     1       3.130  -6.445  25.505  0.00  0.00    +0.008 C 
ATOM     17  C   UNL     1       3.231  -6.454  23.980  0.00  0.00    +0.053 C 
ATOM     18  C   UNL     1       4.586  -6.027  23.469  0.00  0.00    +0.024 A 
ATOM     19  N   UNL     1       4.823  -6.194  22.122  0.00  0.00    -0.326 N 
ATOM     20  H   UNL     1       4.105  -6.589  21.528  0.00  0.00    +0.169 HD
ENDBRANCH   7  14
ENDBRANCH   6   7
ENDBRANCH   5   6
ENDBRANCH   4   5
ENDBRANCH   3   4
ENDBRANCH   2   3
ENDBRANCH   1   2
BRANCH   1  21
ATOM     21  C   UNL     1       7.520   0.361  26.827  0.00  0.00    +0.000 C 
BRANCH  21  22
ATOM     22  C   UNL     1       6.078  -0.131  26.886  0.00  0.00    +0.002 C 
BRANCH  22  23
ATOM     23  C   UNL     1       5.287   0.352  25.657  0.00  0.00    +0.019 C 
BRANCH  23  24
ATOM     24  C   UNL     1       5.722   1.768  25.305  0.00  0.00    +0.101 C 
BRANCH  24  25
ATOM     25  N   UNL     1       6.084   1.914  23.903  0.00  0.00    -0.343 N 
ATOM     26  H   UNL     1       5.676   2.778  23.564  0.00  0.00    +0.146 HD
BRANCH  25  27
ATOM     27  C   UNL     1       7.479   1.880  23.576  0.00  0.00    +0.041 A 
ATOM     28  C   UNL     1       8.037   0.640  23.093  0.00  0.00    +0.021 A 
ATOM     29  C   UNL     1       9.418   0.610  22.814  0.00  0.00    +0.073 A 
ATOM     30  C   UNL     1      10.000  -0.560  22.344  0.00  0.00    +0.028 A 
ATOM     31  C   UNL     1       9.259  -1.722  22.125  0.00  0.00    +0.002 A 
ATOM     32  C   UNL     1       7.900  -1.719  22.383  0.00  0.00    +0.001 A 
ATOM     33  N   UNL     1      10.221   1.671  22.972  0.00  0.00    -0.251 NA
ATOM     34  C   UNL     1       9.708   2.822  23.463  0.00  0.00    +0.047 A 
ATOM     35  C   UNL     1      10.716   3.931  23.657  0.00  0.00    +0.056 C 
ATOM     36  C   UNL     1      10.091   5.313  23.802  0.00  0.00    +0.006 C 
ATOM     37  C   UNL     1       9.009   5.252  24.859  0.00  0.00    +0.005 C 
ATOM     38  C   UNL     1       7.921   4.287  24.413  0.00  0.00    +0.039 C 
ATOM     39  C   UNL     1       7.299  -0.557  22.868  0.00  0.00    +0.012 A 
ATOM     40  C   UNL     1       8.365   2.967  23.825  0.00  0.00    -0.005 A 
ENDBRANCH  25  27
ENDBRANCH  24  25
ENDBRANCH  23  24
ENDBRANCH  22  23
ENDBRANCH  21  22
ENDBRANCH   1  21
TORSDOF 13
ENDMDL
