MODEL 1
REMARK VINA RESULT:      -5.2      0.000      0.000
REMARK  Name = 
REMARK  8 active torsions:
REMARK  status: ('A' for Active; 'I' for Inactive)
REMARK    1  A    between atoms: C_1  and  O_2
REMARK    2  A    between atoms: O_2  and  C_3
REMARK    3  A    between atoms: N_5  and  C_6
REMARK    4  A    between atoms: C_9  and  C_11
REMARK    5  A    between atoms: C_11  and  O_12
REMARK    6  A    between atoms: C_13  and  O_15
REMARK    7  A    between atoms: C_16  and  O_18
REMARK    8  A    between atoms: C_19  and  O_21
REMARK                            x       y       z     vdW  Elec       q    Type
REMARK                         _______ _______ _______ _____ _____    ______ ____
ROOT
ATOM      1  C   UNL     1       8.969   0.562  22.056  0.00  0.00    +0.240 C 
ATOM      2  C   UNL     1      10.092   1.488  22.591  0.00  0.00    +0.192 C 
ATOM      3  C   UNL     1       9.660   2.213  23.879  0.00  0.00    +0.178 C 
ATOM      4  C   UNL     1       8.290   2.881  23.714  0.00  0.00    +0.177 C 
ATOM      5  C   UNL     1       7.227   1.929  23.135  0.00  0.00    +0.177 C 
ATOM      6  O   UNL     1       7.687   1.201  21.985  0.00  0.00    -0.348 OA
ENDROOT
BRANCH   1   8
ATOM      7  C   UNL     1       9.610  -1.718  22.850  0.00  0.00    +0.402 C 
ATOM      8  N   UNL     1       8.769  -0.663  22.771  0.00  0.00    -0.253 N 
ATOM      9  H   UNL     1       7.952  -0.735  23.367  0.00  0.00    +0.155 HD
ATOM     10  O   UNL     1      10.693  -1.824  22.299  0.00  0.00    -0.226 OA
BRANCH   7  12
ATOM     11  C   UNL     1       8.765  -2.136  25.007  0.00  0.00    +0.282 C 
ATOM     12  O   UNL     1       9.051  -2.612  23.698  0.00  0.00    -0.454 OA
ENDBRANCH   7  12
ENDBRANCH   1   8
BRANCH   2  13
ATOM     13  O   UNL     1      10.459   2.419  21.554  0.00  0.00    -0.385 OA
ATOM     14  H   UNL     1      11.278   2.101  21.128  0.00  0.00    +0.210 HD
ENDBRANCH   2  13
BRANCH   3  15
ATOM     15  O   UNL     1       9.682   1.348  25.015  0.00  0.00    -0.386 OA
ATOM     16  H   UNL     1       8.762   1.048  25.173  0.00  0.00    +0.210 HD
ENDBRANCH   3  15
BRANCH   4  17
ATOM     17  O   UNL     1       8.474   4.019  22.850  0.00  0.00    -0.386 OA
ATOM     18  H   UNL     1       9.427   4.247  22.833  0.00  0.00    +0.210 HD
ENDBRANCH   4  17
BRANCH   5  19
ATOM     19  C   UNL     1       6.529   1.044  24.191  0.00  0.00    +0.190 C 
BRANCH  19  20
ATOM     20  O   UNL     1       6.007  -0.173  23.666  0.00  0.00    -0.392 OA
ATOM     21  H   UNL     1       5.952  -0.817  24.398  0.00  0.00    +0.210 HD
ENDBRANCH  19  20
ENDBRANCH   5  19
TORSDOF 7
ENDMDL
MODEL 2
REMARK VINA RESULT:      -5.0      2.636      3.934
REMARK  Name = 
REMARK  8 active torsions:
REMARK  status: ('A' for Active; 'I' for Inactive)
REMARK    1  A    between atoms: C_1  and  O_2
REMARK    2  A    between atoms: O_2  and  C_3
REMARK    3  A    between atoms: N_5  and  C_6
REMARK    4  A    between atoms: C_9  and  C_11
REMARK    5  A    between atoms: C_11  and  O_12
REMARK    6  A    between atoms: C_13  and  O_15
REMARK    7  A    between atoms: C_16  and  O_18
REMARK    8  A    between atoms: C_19  and  O_21
REMARK                            x       y       z     vdW  Elec       q    Type
REMARK                         _______ _______ _______ _____ _____    ______ ____
ROOT
ATOM      1  C   UNL     1       7.905  -1.970  22.201  0.00  0.00    +0.240 C 
ATOM      2  C   UNL     1       9.439  -1.825  22.030  0.00  0.00    +0.192 C 
ATOM      3  C   UNL     1      10.164  -1.838  23.388  0.00  0.00    +0.178 C 
ATOM      4  C   UNL     1       9.524  -0.854  24.374  0.00  0.00    +0.177 C 
ATOM      5  C   UNL     1       7.994  -1.010  24.468  0.00  0.00    +0.177 C 
ATOM      6  O   UNL     1       7.354  -1.083  23.184  0.00  0.00    -0.348 OA
ENDROOT
BRANCH   1   8
ATOM      7  C   UNL     1       6.259  -3.848  22.163  0.00  0.00    +0.402 C 
ATOM      8  N   UNL     1       7.429  -3.280  22.529  0.00  0.00    -0.253 N 
ATOM      9  H   UNL     1       8.063  -3.906  23.013  0.00  0.00    +0.155 HD
ATOM     10  O   UNL     1       5.378  -3.328  21.498  0.00  0.00    -0.226 OA
BRANCH   7  12
ATOM     11  C   UNL     1       7.092  -6.035  21.912  0.00  0.00    +0.282 C 
ATOM     12  O   UNL     1       6.270  -5.120  22.624  0.00  0.00    -0.454 OA
ENDBRANCH   7  12
ENDBRANCH   1   8
BRANCH   2  13
ATOM     13  O   UNL     1       9.712  -0.617  21.293  0.00  0.00    -0.385 OA
ATOM     14  H   UNL     1       9.618   0.143  21.898  0.00  0.00    +0.210 HD
ENDBRANCH   2  13
BRANCH   3  15
ATOM     15  O   UNL     1      10.239  -3.152  23.944  0.00  0.00    -0.386 OA
ATOM     16  H   UNL     1      10.489  -3.763  23.220  0.00  0.00    +0.210 HD
ENDBRANCH   3  15
BRANCH   4  17
ATOM     17  O   UNL     1       9.869   0.473  23.933  0.00  0.00    -0.386 OA
ATOM     18  H   UNL     1       9.524   1.119  24.586  0.00  0.00    +0.210 HD
ENDBRANCH   4  17
BRANCH   5  19
ATOM     19  C   UNL     1       7.531  -2.105  25.454  0.00  0.00    +0.190 C 
BRANCH  19  20
ATOM     20  O   UNL     1       8.531  -2.496  26.390  0.00  0.00    -0.392 OA
ATOM     21  H   UNL     1       8.096  -3.011  27.096  0.00  0.00    +0.210 HD
ENDBRANCH  19  20
ENDBRANCH   5  19
TORSDOF 7
ENDMDL
MODEL 3
REMARK VINA RESULT:      -5.0      1.686      3.341
REMARK  Name = 
REMARK  8 active torsions:
REMARK  status: ('A' for Active; 'I' for Inactive)
REMARK    1  A    between atoms: C_1  and  O_2
REMARK    2  A    between atoms: O_2  and  C_3
REMARK    3  A    between atoms: N_5  and  C_6
REMARK    4  A    between atoms: C_9  and  C_11
REMARK    5  A    between atoms: C_11  and  O_12
REMARK    6  A    between atoms: C_13  and  O_15
REMARK    7  A    between atoms: C_16  and  O_18
REMARK    8  A    between atoms: C_19  and  O_21
REMARK                            x       y       z     vdW  Elec       q    Type
REMARK                         _______ _______ _______ _____ _____    ______ ____
ROOT
ATOM      1  C   UNL     1       8.879  -1.096  24.741  0.00  0.00    +0.240 C 
ATOM      2  C   UNL     1       7.854  -0.021  25.187  0.00  0.00    +0.192 C 
ATOM      3  C   UNL     1       7.473   0.914  24.024  0.00  0.00    +0.178 C 
ATOM      4  C   UNL     1       8.716   1.457  23.311  0.00  0.00    +0.177 C 
ATOM      5  C   UNL     1       9.721   0.352  22.935  0.00  0.00    +0.177 C 
ATOM      6  O   UNL     1       9.991  -0.557  24.014  0.00  0.00    -0.348 OA
ENDROOT
BRANCH   1   8
ATOM      7  C   UNL     1       8.811  -3.441  23.885  0.00  0.00    +0.402 C 
ATOM      8  N   UNL     1       8.360  -2.169  23.948  0.00  0.00    -0.253 N 
ATOM      9  H   UNL     1       7.501  -2.005  23.434  0.00  0.00    +0.155 HD
ATOM     10  O   UNL     1       9.769  -3.901  24.486  0.00  0.00    -0.226 OA
BRANCH   7  12
ATOM     11  C   UNL     1       7.102  -3.338  22.269  0.00  0.00    +0.282 C 
ATOM     12  O   UNL     1       7.970  -4.125  23.076  0.00  0.00    -0.454 OA
ENDBRANCH   7  12
ENDBRANCH   1   8
BRANCH   2  13
ATOM     13  O   UNL     1       8.404   0.711  26.300  0.00  0.00    -0.385 OA
ATOM     14  H   UNL     1       9.341   0.461  26.403  0.00  0.00    +0.210 HD
ENDBRANCH   2  13
BRANCH   3  15
ATOM     15  O   UNL     1       6.579   0.286  23.102  0.00  0.00    -0.386 OA
ATOM     16  H   UNL     1       6.041  -0.358  23.607  0.00  0.00    +0.210 HD
ENDBRANCH   3  15
BRANCH   4  17
ATOM     17  O   UNL     1       9.328   2.415  24.196  0.00  0.00    -0.386 OA
ATOM     18  H   UNL     1      10.151   2.025  24.558  0.00  0.00    +0.210 HD
ENDBRANCH   4  17
BRANCH   5  19
ATOM     19  C   UNL     1       9.413  -0.352  21.595  0.00  0.00    +0.190 C 
BRANCH  19  20
ATOM     20  O   UNL     1      10.155  -1.550  21.392  0.00  0.00    -0.392 OA
ATOM     21  H   UNL     1      10.882  -1.352  20.770  0.00  0.00    +0.210 HD
ENDBRANCH  19  20
ENDBRANCH   5  19
TORSDOF 7
ENDMDL
MODEL 4
REMARK VINA RESULT:      -4.9      1.747      3.433
REMARK  Name = 
REMARK  8 active torsions:
REMARK  status: ('A' for Active; 'I' for Inactive)
REMARK    1  A    between atoms: C_1  and  O_2
REMARK    2  A    between atoms: O_2  and  C_3
REMARK    3  A    between atoms: N_5  and  C_6
REMARK    4  A    between atoms: C_9  and  C_11
REMARK    5  A    between atoms: C_11  and  O_12
REMARK    6  A    between atoms: C_13  and  O_15
REMARK    7  A    between atoms: C_16  and  O_18
REMARK    8  A    between atoms: C_19  and  O_21
REMARK                            x       y       z     vdW  Elec       q    Type
REMARK                         _______ _______ _______ _____ _____    ______ ____
ROOT
ATOM      1  C   UNL     1       9.591   0.440  24.747  0.00  0.00    +0.240 C 
ATOM      2  C   UNL     1       8.680   1.587  24.236  0.00  0.00    +0.192 C 
ATOM      3  C   UNL     1       8.205   1.331  22.794  0.00  0.00    +0.178 C 
ATOM      4  C   UNL     1       9.377   0.972  21.874  0.00  0.00    +0.177 C 
ATOM      5  C   UNL     1      10.275  -0.137  22.453  0.00  0.00    +0.177 C 
ATOM      6  O   UNL     1      10.631   0.084  23.827  0.00  0.00    -0.348 OA
ENDROOT
BRANCH   1   8
ATOM      7  C   UNL     1       8.529  -1.176  26.328  0.00  0.00    +0.402 C 
ATOM      8  N   UNL     1       8.929  -0.780  25.100  0.00  0.00    -0.253 N 
ATOM      9  H   UNL     1       8.635  -1.392  24.347  0.00  0.00    +0.155 HD
ATOM     10  O   UNL     1       8.684  -0.565  27.372  0.00  0.00    -0.226 OA
BRANCH   7  12
ATOM     11  C   UNL     1       8.687  -3.518  26.148  0.00  0.00    +0.282 C 
ATOM     12  O   UNL     1       7.875  -2.351  26.176  0.00  0.00    -0.454 OA
ENDBRANCH   7  12
ENDBRANCH   1   8
BRANCH   2  13
ATOM     13  O   UNL     1       9.395   2.833  24.348  0.00  0.00    -0.385 OA
ATOM     14  H   UNL     1       9.067   3.310  25.134  0.00  0.00    +0.210 HD
ENDBRANCH   2  13
BRANCH   3  15
ATOM     15  O   UNL     1       7.178   0.340  22.735  0.00  0.00    -0.386 OA
ATOM     16  H   UNL     1       6.682   0.481  21.902  0.00  0.00    +0.210 HD
ENDBRANCH   3  15
BRANCH   4  17
ATOM     17  O   UNL     1      10.137   2.178  21.664  0.00  0.00    -0.386 OA
ATOM     18  H   UNL     1       9.527   2.944  21.712  0.00  0.00    +0.210 HD
ENDBRANCH   4  17
BRANCH   5  19
ATOM     19  C   UNL     1       9.774  -1.570  22.166  0.00  0.00    +0.190 C 
BRANCH  19  20
ATOM     20  O   UNL     1      10.332  -2.557  23.027  0.00  0.00    -0.392 OA
ATOM     21  H   UNL     1      10.446  -2.156  23.909  0.00  0.00    +0.210 HD
ENDBRANCH  19  20
ENDBRANCH   5  19
TORSDOF 7
ENDMDL
MODEL 5
REMARK VINA RESULT:      -4.9      2.778      6.038
REMARK  Name = 
REMARK  8 active torsions:
REMARK  status: ('A' for Active; 'I' for Inactive)
REMARK    1  A    between atoms: C_1  and  O_2
REMARK    2  A    between atoms: O_2  and  C_3
REMARK    3  A    between atoms: N_5  and  C_6
REMARK    4  A    between atoms: C_9  and  C_11
REMARK    5  A    between atoms: C_11  and  O_12
REMARK    6  A    between atoms: C_13  and  O_15
REMARK    7  A    between atoms: C_16  and  O_18
REMARK    8  A    between atoms: C_19  and  O_21
REMARK                            x       y       z     vdW  Elec       q    Type
REMARK                         _______ _______ _______ _____ _____    ______ ____
ROOT
ATOM      1  C   UNL     1       9.254  -3.661  24.764  0.00  0.00    +0.240 C 
ATOM      2  C   UNL     1       8.842  -5.141  24.553  0.00  0.00    +0.192 C 
ATOM      3  C   UNL     1       7.413  -5.407  25.059  0.00  0.00    +0.178 C 
ATOM      4  C   UNL     1       7.213  -4.873  26.482  0.00  0.00    +0.177 C 
ATOM      5  C   UNL     1       7.684  -3.415  26.645  0.00  0.00    +0.177 C 
ATOM      6  O   UNL     1       8.985  -3.175  26.086  0.00  0.00    -0.348 OA
ENDROOT
BRANCH   1   8
ATOM      7  C   UNL     1       9.303  -1.996  22.902  0.00  0.00    +0.402 C 
ATOM      8  N   UNL     1       8.675  -2.712  23.861  0.00  0.00    -0.253 N 
ATOM      9  H   UNL     1       7.665  -2.615  23.860  0.00  0.00    +0.155 HD
ATOM     10  O   UNL     1      10.496  -2.015  22.648  0.00  0.00    -0.226 OA
BRANCH   7  12
ATOM     11  C   UNL     1       8.496   0.120  22.257  0.00  0.00    +0.282 C 
ATOM     12  O   UNL     1       8.354  -1.295  22.240  0.00  0.00    -0.454 OA
ENDBRANCH   7  12
ENDBRANCH   1   8
BRANCH   2  13
ATOM     13  O   UNL     1       9.805  -5.988  25.209  0.00  0.00    -0.385 OA
ATOM     14  H   UNL     1       9.331  -6.730  25.630  0.00  0.00    +0.210 HD
ENDBRANCH   2  13
BRANCH   3  15
ATOM     15  O   UNL     1       6.422  -4.890  24.168  0.00  0.00    -0.386 OA
ATOM     16  H   UNL     1       6.734  -4.014  23.860  0.00  0.00    +0.210 HD
ENDBRANCH   3  15
BRANCH   4  17
ATOM     17  O   UNL     1       7.945  -5.741  27.368  0.00  0.00    -0.386 OA
ATOM     18  H   UNL     1       8.901  -5.540  27.284  0.00  0.00    +0.210 HD
ENDBRANCH   4  17
BRANCH   5  19
ATOM     19  C   UNL     1       6.630  -2.362  26.237  0.00  0.00    +0.190 C 
BRANCH  19  20
ATOM     20  O   UNL     1       7.186  -1.094  25.900  0.00  0.00    -0.392 OA
ATOM     21  H   UNL     1       6.912  -0.455  26.585  0.00  0.00    +0.210 HD
ENDBRANCH  19  20
ENDBRANCH   5  19
TORSDOF 7
ENDMDL
MODEL 6
REMARK VINA RESULT:      -4.9      1.888      2.812
REMARK  Name = 
REMARK  8 active torsions:
REMARK  status: ('A' for Active; 'I' for Inactive)
REMARK    1  A    between atoms: C_1  and  O_2
REMARK    2  A    between atoms: O_2  and  C_3
REMARK    3  A    between atoms: N_5  and  C_6
REMARK    4  A    between atoms: C_9  and  C_11
REMARK    5  A    between atoms: C_11  and  O_12
REMARK    6  A    between atoms: C_13  and  O_15
REMARK    7  A    between atoms: C_16  and  O_18
REMARK    8  A    between atoms: C_19  and  O_21
REMARK                            x       y       z     vdW  Elec       q    Type
REMARK                         _______ _______ _______ _____ _____    ______ ____
ROOT
ATOM      1  C   UNL     1       8.816  -2.307  23.042  0.00  0.00    +0.240 C 
ATOM      2  C   UNL     1      10.148  -1.525  22.896  0.00  0.00    +0.192 C 
ATOM      3  C   UNL     1      10.009  -0.075  23.393  0.00  0.00    +0.178 C 
ATOM      4  C   UNL     1       8.781   0.611  22.782  0.00  0.00    +0.177 C 
ATOM      5  C   UNL     1       7.498  -0.231  22.912  0.00  0.00    +0.177 C 
ATOM      6  O   UNL     1       7.680  -1.602  22.524  0.00  0.00    -0.348 OA
ENDROOT
BRANCH   1   8
ATOM      7  C   UNL     1       9.005  -3.721  25.092  0.00  0.00    +0.402 C 
ATOM      8  N   UNL     1       8.467  -2.714  24.370  0.00  0.00    -0.253 N 
ATOM      9  H   UNL     1       7.807  -2.139  24.882  0.00  0.00    +0.155 HD
ATOM     10  O   UNL     1       9.881  -4.488  24.726  0.00  0.00    -0.226 OA
BRANCH   7  12
ATOM     11  C   UNL     1       7.912  -4.920  26.798  0.00  0.00    +0.282 C 
ATOM     12  O   UNL     1       8.432  -3.686  26.317  0.00  0.00    -0.454 OA
ENDBRANCH   7  12
ENDBRANCH   1   8
BRANCH   2  13
ATOM     13  O   UNL     1      10.569  -1.578  21.519  0.00  0.00    -0.385 OA
ATOM     14  H   UNL     1      11.211  -0.860  21.363  0.00  0.00    +0.210 HD
ENDBRANCH   2  13
BRANCH   3  15
ATOM     15  O   UNL     1       9.990   0.005  24.819  0.00  0.00    -0.386 OA
ATOM     16  H   UNL     1       9.507   0.822  25.061  0.00  0.00    +0.210 HD
ENDBRANCH   3  15
BRANCH   4  17
ATOM     17  O   UNL     1       9.081   0.862  21.396  0.00  0.00    -0.386 OA
ATOM     18  H   UNL     1      10.040   0.713  21.252  0.00  0.00    +0.210 HD
ENDBRANCH   4  17
BRANCH   5  19
ATOM     19  C   UNL     1       6.766  -0.061  24.262  0.00  0.00    +0.190 C 
BRANCH  19  20
ATOM     20  O   UNL     1       5.848  -1.111  24.553  0.00  0.00    -0.392 OA
ATOM     21  H   UNL     1       5.310  -1.268  23.755  0.00  0.00    +0.210 HD
ENDBRANCH  19  20
ENDBRANCH   5  19
TORSDOF 7
ENDMDL
MODEL 7
REMARK VINA RESULT:      -4.8      3.211      5.790
REMARK  Name = 
REMARK  8 active torsions:
REMARK  status: ('A' for Active; 'I' for Inactive)
REMARK    1  A    between atoms: C_1  and  O_2
REMARK    2  A    between atoms: O_2  and  C_3
REMARK    3  A    between atoms: N_5  and  C_6
REMARK    4  A    between atoms: C_9  and  C_11
REMARK    5  A    between atoms: C_11  and  O_12
REMARK    6  A    between atoms: C_13  and  O_15
REMARK    7  A    between atoms: C_16  and  O_18
REMARK    8  A    between atoms: C_19  and  O_21
REMARK                            x       y       z     vdW  Elec       q    Type
REMARK                         _______ _______ _______ _____ _____    ______ ____
ROOT
ATOM      1  C   UNL     1       7.742  -2.981  22.556  0.00  0.00    +0.240 C 
ATOM      2  C   UNL     1       6.206  -2.881  22.749  0.00  0.00    +0.192 C 
ATOM      3  C   UNL     1       5.740  -3.669  23.987  0.00  0.00    +0.178 C 
ATOM      4  C   UNL     1       6.305  -5.094  23.990  0.00  0.00    +0.177 C 
ATOM      5  C   UNL     1       7.825  -5.136  23.746  0.00  0.00    +0.177 C 
ATOM      6  O   UNL     1       8.242  -4.323  22.638  0.00  0.00    -0.348 OA
ENDROOT
BRANCH   1   8
ATOM      7  C   UNL     1       9.779  -1.703  23.231  0.00  0.00    +0.402 C 
ATOM      8  N   UNL     1       8.541  -2.198  23.450  0.00  0.00    -0.253 N 
ATOM      9  H   UNL     1       8.115  -1.890  24.318  0.00  0.00    +0.155 HD
ATOM     10  O   UNL     1      10.454  -1.858  22.227  0.00  0.00    -0.226 OA
BRANCH   7  12
ATOM     11  C   UNL     1       9.127  -0.876  25.337  0.00  0.00    +0.282 C 
ATOM     12  O   UNL     1      10.108  -0.957  24.311  0.00  0.00    -0.454 OA
ENDBRANCH   7  12
ENDBRANCH   1   8
BRANCH   2  13
ATOM     13  O   UNL     1       5.557  -3.343  21.549  0.00  0.00    -0.385 OA
ATOM     14  H   UNL     1       4.613  -3.496  21.745  0.00  0.00    +0.210 HD
ENDBRANCH   2  13
BRANCH   3  15
ATOM     15  O   UNL     1       6.048  -2.987  25.205  0.00  0.00    -0.386 OA
ATOM     16  H   UNL     1       5.943  -3.631  25.936  0.00  0.00    +0.210 HD
ENDBRANCH   3  15
BRANCH   4  17
ATOM     17  O   UNL     1       5.609  -5.828  22.965  0.00  0.00    -0.386 OA
ATOM     18  H   UNL     1       6.110  -6.649  22.773  0.00  0.00    +0.210 HD
ENDBRANCH   4  17
BRANCH   5  19
ATOM     19  C   UNL     1       8.675  -4.930  25.020  0.00  0.00    +0.190 C 
BRANCH  19  20
ATOM     20  O   UNL     1      10.044  -5.287  24.859  0.00  0.00    -0.392 OA
ATOM     21  H   UNL     1      10.288  -5.132  23.927  0.00  0.00    +0.210 HD
ENDBRANCH  19  20
ENDBRANCH   5  19
TORSDOF 7
ENDMDL
MODEL 8
REMARK VINA RESULT:      -4.8      4.290      6.781
REMARK  Name = 
REMARK  8 active torsions:
REMARK  status: ('A' for Active; 'I' for Inactive)
REMARK    1  A    between atoms: C_1  and  O_2
REMARK    2  A    between atoms: O_2  and  C_3
REMARK    3  A    between atoms: N_5  and  C_6
REMARK    4  A    between atoms: C_9  and  C_11
REMARK    5  A    between atoms: C_11  and  O_12
REMARK    6  A    between atoms: C_13  and  O_15
REMARK    7  A    between atoms: C_16  and  O_18
REMARK    8  A    between atoms: C_19  and  O_21
REMARK                            x       y       z     vdW  Elec       q    Type
REMARK                         _______ _______ _______ _____ _____    ______ ____
ROOT
ATOM      1  C   UNL     1       5.464  -4.856  24.524  0.00  0.00    +0.240 C 
ATOM      2  C   UNL     1       5.784  -5.900  23.423  0.00  0.00    +0.192 C 
ATOM      3  C   UNL     1       6.936  -5.429  22.516  0.00  0.00    +0.178 C 
ATOM      4  C   UNL     1       6.703  -4.001  22.010  0.00  0.00    +0.177 C 
ATOM      5  C   UNL     1       6.341  -3.018  23.140  0.00  0.00    +0.177 C 
ATOM      6  O   UNL     1       5.325  -3.520  24.022  0.00  0.00    -0.348 OA
ENDROOT
BRANCH   1   8
ATOM      7  C   UNL     1       6.491  -5.617  26.670  0.00  0.00    +0.402 C 
ATOM      8  N   UNL     1       6.393  -4.783  25.611  0.00  0.00    -0.253 N 
ATOM      9  H   UNL     1       7.130  -4.089  25.558  0.00  0.00    +0.155 HD
ATOM     10  O   UNL     1       5.779  -6.581  26.901  0.00  0.00    -0.226 OA
BRANCH   7  12
ATOM     11  C   UNL     1       8.628  -4.630  26.664  0.00  0.00    +0.282 C 
ATOM     12  O   UNL     1       7.560  -5.218  27.397  0.00  0.00    -0.454 OA
ENDBRANCH   7  12
ENDBRANCH   1   8
BRANCH   2  13
ATOM     13  O   UNL     1       4.585  -6.161  22.668  0.00  0.00    -0.385 OA
ATOM     14  H   UNL     1       3.896  -6.480  23.281  0.00  0.00    +0.210 HD
ENDBRANCH   2  13
BRANCH   3  15
ATOM     15  O   UNL     1       8.207  -5.551  23.155  0.00  0.00    -0.386 OA
ATOM     16  H   UNL     1       8.562  -4.646  23.278  0.00  0.00    +0.210 HD
ENDBRANCH   3  15
BRANCH   4  17
ATOM     17  O   UNL     1       5.643  -4.062  21.037  0.00  0.00    -0.386 OA
ATOM     18  H   UNL     1       6.036  -4.251  20.158  0.00  0.00    +0.210 HD
ENDBRANCH   4  17
BRANCH   5  19
ATOM     19  C   UNL     1       7.563  -2.424  23.876  0.00  0.00    +0.190 C 
BRANCH  19  20
ATOM     20  O   UNL     1       8.799  -2.639  23.201  0.00  0.00    -0.392 OA
ATOM     21  H   UNL     1       9.034  -1.814  22.737  0.00  0.00    +0.210 HD
ENDBRANCH  19  20
ENDBRANCH   5  19
TORSDOF 7
ENDMDL
MODEL 9
REMARK VINA RESULT:      -4.8      1.720      3.208
REMARK  Name = 
REMARK  8 active torsions:
REMARK  status: ('A' for Active; 'I' for Inactive)
REMARK    1  A    between atoms: C_1  and  O_2
REMARK    2  A    between atoms: O_2  and  C_3
REMARK    3  A    between atoms: N_5  and  C_6
REMARK    4  A    between atoms: C_9  and  C_11
REMARK    5  A    between atoms: C_11  and  O_12
REMARK    6  A    between atoms: C_13  and  O_15
REMARK    7  A    between atoms: C_16  and  O_18
REMARK    8  A    between atoms: C_19  and  O_21
REMARK                            x       y       z     vdW  Elec       q    Type
REMARK                         _______ _______ _______ _____ _____    ______ ____
ROOT
ATOM      1  C   UNL     1       7.669   1.683  23.497  0.00  0.00    +0.240 C 
ATOM      2  C   UNL     1       8.196   2.094  22.098  0.00  0.00    +0.192 C 
ATOM      3  C   UNL     1       9.665   1.677  21.902  0.00  0.00    +0.178 C 
ATOM      4  C   UNL     1      10.536   2.123  23.082  0.00  0.00    +0.177 C 
ATOM      5  C   UNL     1       9.940   1.731  24.447  0.00  0.00    +0.177 C 
ATOM      6  O   UNL     1       8.546   2.053  24.570  0.00  0.00    -0.348 OA
ENDROOT
BRANCH   1   8
ATOM      7  C   UNL     1       6.294  -0.254  24.270  0.00  0.00    +0.402 C 
ATOM      8  N   UNL     1       7.378   0.292  23.677  0.00  0.00    -0.253 N 
ATOM      9  H   UNL     1       7.996  -0.381  23.237  0.00  0.00    +0.155 HD
ATOM     10  O   UNL     1       5.369   0.351  24.786  0.00  0.00    -0.226 OA
BRANCH   7  12
ATOM     11  C   UNL     1       7.546  -2.067  23.442  0.00  0.00    +0.282 C 
ATOM     12  O   UNL     1       6.398  -1.596  24.137  0.00  0.00    -0.454 OA
ENDBRANCH   7  12
ENDBRANCH   1   8
BRANCH   2  13
ATOM     13  O   UNL     1       8.019   3.515  21.935  0.00  0.00    -0.385 OA
ATOM     14  H   UNL     1       8.751   3.973  22.390  0.00  0.00    +0.210 HD
ENDBRANCH   2  13
BRANCH   3  15
ATOM     15  O   UNL     1       9.797   0.275  21.662  0.00  0.00    -0.386 OA
ATOM     16  H   UNL     1      10.650  -0.010  22.051  0.00  0.00    +0.210 HD
ENDBRANCH   3  15
BRANCH   4  17
ATOM     17  O   UNL     1      10.680   3.553  22.986  0.00  0.00    -0.386 OA
ATOM     18  H   UNL     1      10.521   3.943  23.872  0.00  0.00    +0.210 HD
ENDBRANCH   4  17
BRANCH   5  19
ATOM     19  C   UNL     1      10.286   0.294  24.898  0.00  0.00    +0.190 C 
BRANCH  19  20
ATOM     20  O   UNL     1       9.509  -0.165  26.000  0.00  0.00    -0.392 OA
ATOM     21  H   UNL     1       8.570   0.007  25.797  0.00  0.00    +0.210 HD
ENDBRANCH  19  20
ENDBRANCH   5  19
TORSDOF 7
ENDMDL
