MODEL 1
REMARK VINA RESULT:      -5.8      0.000      0.000
REMARK  Name = 
REMARK  8 active torsions:
REMARK  status: ('A' for Active; 'I' for Inactive)
REMARK    1  A    between atoms: C_2  and  C_3
REMARK    2  A    between atoms: C_2  and  N_4
REMARK    3  A    between atoms: C_2  and  C_16
REMARK    4  A    between atoms: N_4  and  S_5
REMARK    5  A    between atoms: S_5  and  C_8
REMARK    6  A    between atoms: C_11  and  O_12
REMARK    7  A    between atoms: O_12  and  C_13
REMARK    8  A    between atoms: C_16  and  O_17
REMARK                            x       y       z     vdW  Elec       q    Type
REMARK                         _______ _______ _______ _____ _____    ______ ____
ROOT
ATOM      1  S   UNL     1       8.853  -3.522  24.094  0.00  0.00    +0.059 S 
ATOM      2  O   UNL     1       7.916  -4.060  23.136  0.00  0.00    -0.153 OA
ATOM      3  O   UNL     1      10.041  -4.228  24.506  0.00  0.00    -0.153 OA
ENDROOT
BRANCH   1   4
ATOM      4  C   UNL     1       9.340  -1.916  23.513  0.00  0.00    +0.105 A 
ATOM      5  C   UNL     1       9.264  -1.640  22.145  0.00  0.00    +0.032 A 
ATOM      6  C   UNL     1       9.596  -0.372  21.672  0.00  0.00    +0.047 A 
ATOM      7  C   UNL     1      10.026   0.614  22.561  0.00  0.00    +0.120 A 
ATOM      8  C   UNL     1      10.144   0.312  23.923  0.00  0.00    +0.047 A 
ATOM      9  C   UNL     1       9.813  -0.956  24.406  0.00  0.00    +0.032 A 
BRANCH   7  10
ATOM     10  O   UNL     1      10.305   1.912  22.233  0.00  0.00    -0.495 OA
ATOM     11  C   UNL     1      10.564   2.804  23.311  0.00  0.00    +0.277 C 
ENDBRANCH   7  10
ENDBRANCH   1   4
BRANCH   1  12
ATOM     12  N   UNL     1       8.015  -3.129  25.510  0.00  0.00    -0.176 NA
ATOM     13  H   UNL     1       8.692  -2.880  26.239  0.00  0.00    +0.149 HD
BRANCH  12  14
ATOM     14  C   UNL     1       6.944  -4.054  25.938  0.00  0.00    +0.182 C 
ATOM     15  C   UNL     1       5.822  -3.251  26.585  0.00  0.00    +0.037 C 
BRANCH  14  16
ATOM     16  C   UNL     1       7.452  -5.065  26.963  0.00  0.00    +0.323 C 
ATOM     17  O   UNL     1       6.974  -5.187  28.085  0.00  0.00    -0.249 OA
BRANCH  16  18
ATOM     18  O   UNL     1       8.426  -5.882  26.501  0.00  0.00    -0.480 OA
ATOM     19  H   UNL     1       8.386  -6.802  26.824  0.00  0.00    +0.295 HD
ENDBRANCH  16  18
ENDBRANCH  14  16
ENDBRANCH  12  14
ENDBRANCH   1  12
TORSDOF 6
ENDMDL
MODEL 2
REMARK VINA RESULT:      -5.7      2.192      3.062
REMARK  Name = 
REMARK  8 active torsions:
REMARK  status: ('A' for Active; 'I' for Inactive)
REMARK    1  A    between atoms: C_2  and  C_3
REMARK    2  A    between atoms: C_2  and  N_4
REMARK    3  A    between atoms: C_2  and  C_16
REMARK    4  A    between atoms: N_4  and  S_5
REMARK    5  A    between atoms: S_5  and  C_8
REMARK    6  A    between atoms: C_11  and  O_12
REMARK    7  A    between atoms: O_12  and  C_13
REMARK    8  A    between atoms: C_16  and  O_17
REMARK                            x       y       z     vdW  Elec       q    Type
REMARK                         _______ _______ _______ _____ _____    ______ ____
ROOT
ATOM      1  S   UNL     1       8.681  -3.157  24.088  0.00  0.00    +0.059 S 
ATOM      2  O   UNL     1       9.844  -3.978  24.336  0.00  0.00    -0.153 OA
ATOM      3  O   UNL     1       7.664  -2.926  25.083  0.00  0.00    -0.153 OA
ENDROOT
BRANCH   1   4
ATOM      4  C   UNL     1       9.261  -1.580  23.514  0.00  0.00    +0.105 A 
ATOM      5  C   UNL     1       9.145  -1.270  22.156  0.00  0.00    +0.032 A 
ATOM      6  C   UNL     1       9.550  -0.020  21.691  0.00  0.00    +0.047 A 
ATOM      7  C   UNL     1      10.092   0.912  22.577  0.00  0.00    +0.120 A 
ATOM      8  C   UNL     1      10.248   0.572  23.926  0.00  0.00    +0.047 A 
ATOM      9  C   UNL     1       9.844  -0.677  24.401  0.00  0.00    +0.032 A 
BRANCH   7  10
ATOM     10  O   UNL     1      10.454   2.192  22.260  0.00  0.00    -0.495 OA
ATOM     11  C   UNL     1      10.698   3.077  23.347  0.00  0.00    +0.277 C 
ENDBRANCH   7  10
ENDBRANCH   1   4
BRANCH   1  12
ATOM     12  N   UNL     1       7.885  -3.744  22.716  0.00  0.00    -0.176 NA
ATOM     13  H   UNL     1       7.735  -2.969  22.061  0.00  0.00    +0.149 HD
BRANCH  12  14
ATOM     14  C   UNL     1       6.709  -4.613  22.939  0.00  0.00    +0.182 C 
ATOM     15  C   UNL     1       6.841  -5.860  22.074  0.00  0.00    +0.037 C 
BRANCH  14  16
ATOM     16  C   UNL     1       5.410  -3.908  22.557  0.00  0.00    +0.323 C 
ATOM     17  O   UNL     1       4.311  -4.450  22.597  0.00  0.00    -0.249 OA
BRANCH  16  18
ATOM     18  O   UNL     1       5.559  -2.600  22.247  0.00  0.00    -0.480 OA
ATOM     19  H   UNL     1       5.606  -2.401  21.293  0.00  0.00    +0.295 HD
ENDBRANCH  16  18
ENDBRANCH  14  16
ENDBRANCH  12  14
ENDBRANCH   1  12
TORSDOF 6
ENDMDL
MODEL 3
REMARK VINA RESULT:      -5.6      1.360      1.862
REMARK  Name = 
REMARK  8 active torsions:
REMARK  status: ('A' for Active; 'I' for Inactive)
REMARK    1  A    between atoms: C_2  and  C_3
REMARK    2  A    between atoms: C_2  and  N_4
REMARK    3  A    between atoms: C_2  and  C_16
REMARK    4  A    between atoms: N_4  and  S_5
REMARK    5  A    between atoms: S_5  and  C_8
REMARK    6  A    between atoms: C_11  and  O_12
REMARK    7  A    between atoms: O_12  and  C_13
REMARK    8  A    between atoms: C_16  and  O_17
REMARK                            x       y       z     vdW  Elec       q    Type
REMARK                         _______ _______ _______ _____ _____    ______ ____
ROOT
ATOM      1  S   UNL     1       7.844  -4.570  23.608  0.00  0.00    +0.059 S 
ATOM      2  O   UNL     1       7.055  -4.800  22.420  0.00  0.00    -0.153 OA
ATOM      3  O   UNL     1       8.879  -5.475  24.044  0.00  0.00    -0.153 OA
ENDROOT
BRANCH   1   4
ATOM      4  C   UNL     1       8.552  -2.948  23.467  0.00  0.00    +0.105 A 
ATOM      5  C   UNL     1       9.181  -2.385  24.581  0.00  0.00    +0.032 A 
ATOM      6  C   UNL     1       9.785  -1.133  24.480  0.00  0.00    +0.047 A 
ATOM      7  C   UNL     1       9.741  -0.432  23.274  0.00  0.00    +0.120 A 
ATOM      8  C   UNL     1       9.067  -0.985  22.179  0.00  0.00    +0.047 A 
ATOM      9  C   UNL     1       8.460  -2.239  22.271  0.00  0.00    +0.032 A 
BRANCH   7  10
ATOM     10  O   UNL     1      10.357   0.762  23.027  0.00  0.00    -0.495 OA
ATOM     11  C   UNL     1       9.850   1.534  21.945  0.00  0.00    +0.277 C 
ENDBRANCH   7  10
ENDBRANCH   1   4
BRANCH   1  12
ATOM     12  N   UNL     1       6.799  -4.369  24.923  0.00  0.00    -0.176 NA
ATOM     13  H   UNL     1       7.004  -3.472  25.377  0.00  0.00    +0.149 HD
BRANCH  12  14
ATOM     14  C   UNL     1       6.644  -5.517  25.843  0.00  0.00    +0.182 C 
ATOM     15  C   UNL     1       5.162  -5.726  26.131  0.00  0.00    +0.037 C 
BRANCH  14  16
ATOM     16  C   UNL     1       7.353  -5.271  27.172  0.00  0.00    +0.323 C 
ATOM     17  O   UNL     1       6.773  -5.244  28.252  0.00  0.00    -0.249 OA
BRANCH  16  18
ATOM     18  O   UNL     1       8.697  -5.167  27.072  0.00  0.00    -0.480 OA
ATOM     19  H   UNL     1       9.169  -6.007  26.913  0.00  0.00    +0.295 HD
ENDBRANCH  16  18
ENDBRANCH  14  16
ENDBRANCH  12  14
ENDBRANCH   1  12
TORSDOF 6
ENDMDL
MODEL 4
REMARK VINA RESULT:      -5.6      0.887      1.501
REMARK  Name = 
REMARK  8 active torsions:
REMARK  status: ('A' for Active; 'I' for Inactive)
REMARK    1  A    between atoms: C_2  and  C_3
REMARK    2  A    between atoms: C_2  and  N_4
REMARK    3  A    between atoms: C_2  and  C_16
REMARK    4  A    between atoms: N_4  and  S_5
REMARK    5  A    between atoms: S_5  and  C_8
REMARK    6  A    between atoms: C_11  and  O_12
REMARK    7  A    between atoms: O_12  and  C_13
REMARK    8  A    between atoms: C_16  and  O_17
REMARK                            x       y       z     vdW  Elec       q    Type
REMARK                         _______ _______ _______ _____ _____    ______ ____
ROOT
ATOM      1  S   UNL     1       9.026  -2.930  24.021  0.00  0.00    +0.059 S 
ATOM      2  O   UNL     1       8.056  -3.249  22.998  0.00  0.00    -0.153 OA
ATOM      3  O   UNL     1      10.227  -3.701  24.224  0.00  0.00    -0.153 OA
ENDROOT
BRANCH   1   4
ATOM      4  C   UNL     1       9.491  -1.232  23.797  0.00  0.00    +0.105 A 
ATOM      5  C   UNL     1       9.800  -0.461  24.921  0.00  0.00    +0.032 A 
ATOM      6  C   UNL     1      10.213   0.862  24.766  0.00  0.00    +0.047 A 
ATOM      7  C   UNL     1      10.295   1.421  23.490  0.00  0.00    +0.120 A 
ATOM      8  C   UNL     1       9.937   0.655  22.375  0.00  0.00    +0.047 A 
ATOM      9  C   UNL     1       9.523  -0.671  22.521  0.00  0.00    +0.032 A 
BRANCH   7  10
ATOM     10  O   UNL     1      10.758   2.675  23.202  0.00  0.00    -0.495 OA
ATOM     11  C   UNL     1       9.965   3.769  23.649  0.00  0.00    +0.277 C 
ENDBRANCH   7  10
ENDBRANCH   1   4
BRANCH   1  12
ATOM     12  N   UNL     1       8.237  -2.870  25.516  0.00  0.00    -0.176 NA
ATOM     13  H   UNL     1       8.917  -2.617  26.241  0.00  0.00    +0.149 HD
BRANCH  12  14
ATOM     14  C   UNL     1       7.348  -4.002  25.856  0.00  0.00    +0.182 C 
ATOM     15  C   UNL     1       6.093  -3.464  26.533  0.00  0.00    +0.037 C 
BRANCH  14  16
ATOM     16  C   UNL     1       8.023  -4.976  26.818  0.00  0.00    +0.323 C 
ATOM     17  O   UNL     1       7.440  -5.917  27.346  0.00  0.00    -0.249 OA
BRANCH  16  18
ATOM     18  O   UNL     1       9.349  -4.766  26.980  0.00  0.00    -0.480 OA
ATOM     19  H   UNL     1       9.610  -3.836  27.116  0.00  0.00    +0.295 HD
ENDBRANCH  16  18
ENDBRANCH  14  16
ENDBRANCH  12  14
ENDBRANCH   1  12
TORSDOF 6
ENDMDL
MODEL 5
REMARK VINA RESULT:      -5.6      1.777      6.496
REMARK  Name = 
REMARK  8 active torsions:
REMARK  status: ('A' for Active; 'I' for Inactive)
REMARK    1  A    between atoms: C_2  and  C_3
REMARK    2  A    between atoms: C_2  and  N_4
REMARK    3  A    between atoms: C_2  and  C_16
REMARK    4  A    between atoms: N_4  and  S_5
REMARK    5  A    between atoms: S_5  and  C_8
REMARK    6  A    between atoms: C_11  and  O_12
REMARK    7  A    between atoms: O_12  and  C_13
REMARK    8  A    between atoms: C_16  and  O_17
REMARK                            x       y       z     vdW  Elec       q    Type
REMARK                         _______ _______ _______ _____ _____    ______ ____
ROOT
ATOM      1  S   UNL     1       9.216  -2.137  23.091  0.00  0.00    +0.059 S 
ATOM      2  O   UNL     1      10.615  -2.445  22.902  0.00  0.00    -0.153 OA
ATOM      3  O   UNL     1       8.230  -2.320  22.056  0.00  0.00    -0.153 OA
ENDROOT
BRANCH   1   4
ATOM      4  C   UNL     1       8.672  -3.016  24.534  0.00  0.00    +0.105 A 
ATOM      5  C   UNL     1       7.777  -2.394  25.409  0.00  0.00    +0.032 A 
ATOM      6  C   UNL     1       7.300  -3.082  26.523  0.00  0.00    +0.047 A 
ATOM      7  C   UNL     1       7.734  -4.384  26.777  0.00  0.00    +0.120 A 
ATOM      8  C   UNL     1       8.668  -4.979  25.921  0.00  0.00    +0.047 A 
ATOM      9  C   UNL     1       9.151  -4.297  24.802  0.00  0.00    +0.032 A 
BRANCH   7  10
ATOM     10  O   UNL     1       7.285  -5.188  27.787  0.00  0.00    -0.495 OA
ATOM     11  C   UNL     1       5.932  -5.014  28.191  0.00  0.00    +0.277 C 
ENDBRANCH   7  10
ENDBRANCH   1   4
BRANCH   1  12
ATOM     12  N   UNL     1       9.080  -0.530  23.604  0.00  0.00    -0.176 NA
ATOM     13  H   UNL     1       8.124  -0.204  23.425  0.00  0.00    +0.149 HD
BRANCH  12  14
ATOM     14  C   UNL     1      10.149   0.403  23.189  0.00  0.00    +0.182 C 
ATOM     15  C   UNL     1      10.382   1.420  24.300  0.00  0.00    +0.037 C 
BRANCH  14  16
ATOM     16  C   UNL     1       9.769   1.166  21.923  0.00  0.00    +0.323 C 
ATOM     17  O   UNL     1       8.936   0.766  21.118  0.00  0.00    -0.249 OA
BRANCH  16  18
ATOM     18  O   UNL     1      10.367   2.373  21.802  0.00  0.00    -0.480 OA
ATOM     19  H   UNL     1      10.565   2.650  20.888  0.00  0.00    +0.295 HD
ENDBRANCH  16  18
ENDBRANCH  14  16
ENDBRANCH  12  14
ENDBRANCH   1  12
TORSDOF 6
ENDMDL
MODEL 6
REMARK VINA RESULT:      -5.5      2.511      2.995
REMARK  Name = 
REMARK  8 active torsions:
REMARK  status: ('A' for Active; 'I' for Inactive)
REMARK    1  A    between atoms: C_2  and  C_3
REMARK    2  A    between atoms: C_2  and  N_4
REMARK    3  A    between atoms: C_2  and  C_16
REMARK    4  A    between atoms: N_4  and  S_5
REMARK    5  A    between atoms: S_5  and  C_8
REMARK    6  A    between atoms: C_11  and  O_12
REMARK    7  A    between atoms: O_12  and  C_13
REMARK    8  A    between atoms: C_16  and  O_17
REMARK                            x       y       z     vdW  Elec       q    Type
REMARK                         _______ _______ _______ _____ _____    ______ ____
ROOT
ATOM      1  S   UNL     1       8.108  -4.006  24.465  0.00  0.00    +0.059 S 
ATOM      2  O   UNL     1       9.033  -5.093  24.240  0.00  0.00    -0.153 OA
ATOM      3  O   UNL     1       7.647  -3.634  25.780  0.00  0.00    -0.153 OA
ENDROOT
BRANCH   1   4
ATOM      4  C   UNL     1       8.791  -2.563  23.690  0.00  0.00    +0.105 A 
ATOM      5  C   UNL     1       8.526  -2.333  22.336  0.00  0.00    +0.032 A 
ATOM      6  C   UNL     1       9.013  -1.182  21.718  0.00  0.00    +0.047 A 
ATOM      7  C   UNL     1       9.783  -0.272  22.444  0.00  0.00    +0.120 A 
ATOM      8  C   UNL     1      10.081  -0.537  23.786  0.00  0.00    +0.047 A 
ATOM      9  C   UNL     1       9.597  -1.687  24.414  0.00  0.00    +0.032 A 
BRANCH   7  10
ATOM     10  O   UNL     1      10.250   0.923  21.976  0.00  0.00    -0.495 OA
ATOM     11  C   UNL     1       9.998   2.070  22.780  0.00  0.00    +0.277 C 
ENDBRANCH   7  10
ENDBRANCH   1   4
BRANCH   1  12
ATOM     12  N   UNL     1       6.723  -4.270  23.530  0.00  0.00    -0.176 NA
ATOM     13  H   UNL     1       5.919  -3.837  23.997  0.00  0.00    +0.149 HD
BRANCH  12  14
ATOM     14  C   UNL     1       6.496  -5.644  23.034  0.00  0.00    +0.182 C 
ATOM     15  C   UNL     1       6.931  -5.725  21.575  0.00  0.00    +0.037 C 
BRANCH  14  16
ATOM     16  C   UNL     1       5.022  -6.032  23.109  0.00  0.00    +0.323 C 
ATOM     17  O   UNL     1       4.120  -5.354  22.630  0.00  0.00    -0.249 OA
BRANCH  16  18
ATOM     18  O   UNL     1       4.794  -7.237  23.678  0.00  0.00    -0.480 OA
ATOM     19  H   UNL     1       5.470  -7.918  23.498  0.00  0.00    +0.295 HD
ENDBRANCH  16  18
ENDBRANCH  14  16
ENDBRANCH  12  14
ENDBRANCH   1  12
TORSDOF 6
ENDMDL
MODEL 7
REMARK VINA RESULT:      -5.4      4.295      7.679
REMARK  Name = 
REMARK  8 active torsions:
REMARK  status: ('A' for Active; 'I' for Inactive)
REMARK    1  A    between atoms: C_2  and  C_3
REMARK    2  A    between atoms: C_2  and  N_4
REMARK    3  A    between atoms: C_2  and  C_16
REMARK    4  A    between atoms: N_4  and  S_5
REMARK    5  A    between atoms: S_5  and  C_8
REMARK    6  A    between atoms: C_11  and  O_12
REMARK    7  A    between atoms: O_12  and  C_13
REMARK    8  A    between atoms: C_16  and  O_17
REMARK                            x       y       z     vdW  Elec       q    Type
REMARK                         _______ _______ _______ _____ _____    ______ ____
ROOT
ATOM      1  S   UNL     1       9.513   4.025  23.843  0.00  0.00    +0.059 S 
ATOM      2  O   UNL     1       8.787   4.135  25.087  0.00  0.00    -0.153 OA
ATOM      3  O   UNL     1      10.780   4.677  23.619  0.00  0.00    -0.153 OA
ENDROOT
BRANCH   1   4
ATOM      4  C   UNL     1       9.714   2.294  23.501  0.00  0.00    +0.105 A 
ATOM      5  C   UNL     1       9.680   1.859  22.173  0.00  0.00    +0.032 A 
ATOM      6  C   UNL     1       9.882   0.512  21.876  0.00  0.00    +0.047 A 
ATOM      7  C   UNL     1      10.095  -0.404  22.907  0.00  0.00    +0.120 A 
ATOM      8  C   UNL     1      10.080   0.035  24.236  0.00  0.00    +0.047 A 
ATOM      9  C   UNL     1       9.879   1.383  24.542  0.00  0.00    +0.032 A 
BRANCH   7  10
ATOM     10  O   UNL     1      10.381  -1.731  22.743  0.00  0.00    -0.495 OA
ATOM     11  C   UNL     1       9.941  -2.613  23.769  0.00  0.00    +0.277 C 
ENDBRANCH   7  10
ENDBRANCH   1   4
BRANCH   1  12
ATOM     12  N   UNL     1       8.498   4.504  22.578  0.00  0.00    -0.176 NA
ATOM     13  H   UNL     1       8.932   5.289  22.082  0.00  0.00    +0.149 HD
BRANCH  12  14
ATOM     14  C   UNL     1       7.063   4.678  22.894  0.00  0.00    +0.182 C 
ATOM     15  C   UNL     1       6.278   3.519  22.293  0.00  0.00    +0.037 C 
BRANCH  14  16
ATOM     16  C   UNL     1       6.513   5.975  22.308  0.00  0.00    +0.323 C 
ATOM     17  O   UNL     1       5.542   6.566  22.768  0.00  0.00    -0.249 OA
BRANCH  16  18
ATOM     18  O   UNL     1       7.240   6.472  21.281  0.00  0.00    -0.480 OA
ATOM     19  H   UNL     1       7.411   5.847  20.551  0.00  0.00    +0.295 HD
ENDBRANCH  16  18
ENDBRANCH  14  16
ENDBRANCH  12  14
ENDBRANCH   1  12
TORSDOF 6
ENDMDL
MODEL 8
REMARK VINA RESULT:      -5.4      2.486      3.720
REMARK  Name = 
REMARK  8 active torsions:
REMARK  status: ('A' for Active; 'I' for Inactive)
REMARK    1  A    between atoms: C_2  and  C_3
REMARK    2  A    between atoms: C_2  and  N_4
REMARK    3  A    between atoms: C_2  and  C_16
REMARK    4  A    between atoms: N_4  and  S_5
REMARK    5  A    between atoms: S_5  and  C_8
REMARK    6  A    between atoms: C_11  and  O_12
REMARK    7  A    between atoms: O_12  and  C_13
REMARK    8  A    between atoms: C_16  and  O_17
REMARK                            x       y       z     vdW  Elec       q    Type
REMARK                         _______ _______ _______ _____ _____    ______ ____
ROOT
ATOM      1  S   UNL     1       8.441  -4.874  24.689  0.00  0.00    +0.059 S 
ATOM      2  O   UNL     1       9.673  -5.607  24.870  0.00  0.00    -0.153 OA
ATOM      3  O   UNL     1       7.265  -5.116  25.487  0.00  0.00    -0.153 OA
ENDROOT
BRANCH   1   4
ATOM      4  C   UNL     1       8.835  -3.146  24.796  0.00  0.00    +0.105 A 
ATOM      5  C   UNL     1       8.400  -2.421  25.909  0.00  0.00    +0.032 A 
ATOM      6  C   UNL     1       8.737  -1.074  26.037  0.00  0.00    +0.047 A 
ATOM      7  C   UNL     1       9.488  -0.445  25.042  0.00  0.00    +0.120 A 
ATOM      8  C   UNL     1       9.875  -1.169  23.909  0.00  0.00    +0.047 A 
ATOM      9  C   UNL     1       9.543  -2.519  23.773  0.00  0.00    +0.032 A 
BRANCH   7  10
ATOM     10  O   UNL     1       9.945   0.842  25.087  0.00  0.00    -0.495 OA
ATOM     11  C   UNL     1      11.027   1.169  24.223  0.00  0.00    +0.277 C 
ENDBRANCH   7  10
ENDBRANCH   1   4
BRANCH   1  12
ATOM     12  N   UNL     1       7.960  -5.012  23.074  0.00  0.00    -0.176 NA
ATOM     13  H   UNL     1       8.402  -4.263  22.530  0.00  0.00    +0.149 HD
BRANCH  12  14
ATOM     14  C   UNL     1       6.517  -5.208  22.814  0.00  0.00    +0.182 C 
ATOM     15  C   UNL     1       6.347  -6.053  21.557  0.00  0.00    +0.037 C 
BRANCH  14  16
ATOM     16  C   UNL     1       5.801  -3.878  22.589  0.00  0.00    +0.323 C 
ATOM     17  O   UNL     1       5.535  -3.434  21.478  0.00  0.00    -0.249 OA
BRANCH  16  18
ATOM     18  O   UNL     1       5.406  -3.262  23.727  0.00  0.00    -0.480 OA
ATOM     19  H   UNL     1       4.477  -2.963  23.736  0.00  0.00    +0.295 HD
ENDBRANCH  16  18
ENDBRANCH  14  16
ENDBRANCH  12  14
ENDBRANCH   1  12
TORSDOF 6
ENDMDL
MODEL 9
REMARK VINA RESULT:      -5.2      1.788      3.035
REMARK  Name = 
REMARK  8 active torsions:
REMARK  status: ('A' for Active; 'I' for Inactive)
REMARK    1  A    between atoms: C_2  and  C_3
REMARK    2  A    between atoms: C_2  and  N_4
REMARK    3  A    between atoms: C_2  and  C_16
REMARK    4  A    between atoms: N_4  and  S_5
REMARK    5  A    between atoms: S_5  and  C_8
REMARK    6  A    between atoms: C_11  and  O_12
REMARK    7  A    between atoms: O_12  and  C_13
REMARK    8  A    between atoms: C_16  and  O_17
REMARK                            x       y       z     vdW  Elec       q    Type
REMARK                         _______ _______ _______ _____ _____    ______ ____
ROOT
ATOM      1  S   UNL     1       8.964  -3.651  24.687  0.00  0.00    +0.059 S 
ATOM      2  O   UNL     1      10.170  -4.438  24.576  0.00  0.00    -0.153 OA
ATOM      3  O   UNL     1       8.274  -3.454  25.938  0.00  0.00    -0.153 OA
ENDROOT
BRANCH   1   4
ATOM      4  C   UNL     1       9.307  -2.055  23.989  0.00  0.00    +0.105 A 
ATOM      5  C   UNL     1       9.464  -0.962  24.846  0.00  0.00    +0.032 A 
ATOM      6  C   UNL     1       9.780   0.292  24.323  0.00  0.00    +0.047 A 
ATOM      7  C   UNL     1       9.917   0.458  22.944  0.00  0.00    +0.120 A 
ATOM      8  C   UNL     1       9.711  -0.634  22.093  0.00  0.00    +0.047 A 
ATOM      9  C   UNL     1       9.394  -1.893  22.608  0.00  0.00    +0.032 A 
BRANCH   7  10
ATOM     10  O   UNL     1      10.299   1.611  22.318  0.00  0.00    -0.495 OA
ATOM     11  C   UNL     1      10.508   2.750  23.145  0.00  0.00    +0.277 C 
ENDBRANCH   7  10
ENDBRANCH   1   4
BRANCH   1  12
ATOM     12  N   UNL     1       7.819  -4.256  23.599  0.00  0.00    -0.176 NA
ATOM     13  H   UNL     1       8.046  -3.922  22.657  0.00  0.00    +0.149 HD
BRANCH  12  14
ATOM     14  C   UNL     1       6.395  -4.135  23.982  0.00  0.00    +0.182 C 
ATOM     15  C   UNL     1       5.847  -5.520  24.304  0.00  0.00    +0.037 C 
BRANCH  14  16
ATOM     16  C   UNL     1       5.557  -3.547  22.849  0.00  0.00    +0.323 C 
ATOM     17  O   UNL     1       5.849  -2.511  22.261  0.00  0.00    -0.249 OA
BRANCH  16  18
ATOM     18  O   UNL     1       4.503  -4.312  22.485  0.00  0.00    -0.480 OA
ATOM     19  H   UNL     1       4.664  -5.274  22.491  0.00  0.00    +0.295 HD
ENDBRANCH  16  18
ENDBRANCH  14  16
ENDBRANCH  12  14
ENDBRANCH   1  12
TORSDOF 6
ENDMDL
