MODEL 1
REMARK VINA RESULT:      -5.8      0.000      0.000
REMARK  Name = 
REMARK  7 active torsions:
REMARK  status: ('A' for Active; 'I' for Inactive)
REMARK    1  A    between atoms: C_2  and  O_3
REMARK    2  A    between atoms: C_2  and  C_4
REMARK    3  A    between atoms: C_2  and  C_8
REMARK    4  A    between atoms: C_4  and  N_5
REMARK    5  A    between atoms: N_5  and  C_6
REMARK    6  A    between atoms: N_5  and  C_7
REMARK    7  A    between atoms: C_8  and  N_9
REMARK                            x       y       z     vdW  Elec       q    Type
REMARK                         _______ _______ _______ _____ _____    ______ ____
ROOT
ATOM      1  N   UNL     1       9.251   0.300  24.700  0.00  0.00    -0.337 N 
ATOM      2  C   UNL     1       9.523   1.618  24.376  0.00  0.00    +0.050 A 
ATOM      3  C   UNL     1      10.525   2.188  23.570  0.00  0.00    +0.027 A 
ATOM      4  C   UNL     1      10.534   3.575  23.400  0.00  0.00    +0.017 A 
ATOM      5  C   UNL     1       9.580   4.368  24.023  0.00  0.00    +0.019 A 
ATOM      6  C   UNL     1       8.588   3.803  24.829  0.00  0.00    +0.026 A 
ATOM      7 BR   UNL     1       9.621   6.244  23.775  0.00  0.00    -0.050 Br
ATOM      8  C   UNL     1       8.556   2.403  25.007  0.00  0.00    +0.009 A 
ATOM      9  C   UNL     1       7.694   1.525  25.737  0.00  0.00    +0.009 A 
ATOM     10  C   UNL     1       6.557   1.738  26.544  0.00  0.00    +0.026 A 
ATOM     11  C   UNL     1       5.926   0.642  27.136  0.00  0.00    +0.019 A 
ATOM     12 BR   UNL     1       4.386   0.922  28.201  0.00  0.00    -0.050 Br
ATOM     13  C   UNL     1       6.409  -0.648  26.953  0.00  0.00    +0.017 A 
ATOM     14  C   UNL     1       7.536  -0.883  26.155  0.00  0.00    +0.027 A 
ATOM     15  C   UNL     1       8.160   0.220  25.547  0.00  0.00    +0.050 A 
ENDROOT
BRANCH   1  16
ATOM     16  C   UNL     1      10.015  -0.848  24.212  0.00  0.00    +0.155 C 
BRANCH  16  17
ATOM     17  C   UNL     1       9.452  -1.421  22.901  0.00  0.00    +0.148 C 
BRANCH  17  18
ATOM     18  O   UNL     1      10.501  -1.702  21.960  0.00  0.00    -0.389 OA
ATOM     19  H   UNL     1      10.648  -2.663  21.937  0.00  0.00    +0.210 HD
ENDBRANCH  17  18
BRANCH  17  20
ATOM     20  C   UNL     1       8.679  -2.741  23.126  0.00  0.00    +0.116 C 
BRANCH  20  21
ATOM     21  N   UNL     1       7.487  -2.967  22.292  0.00  0.00    -0.306 NA
ATOM     22  C   UNL     1       6.374  -2.161  22.813  0.00  0.00    +0.104 C 
ATOM     23  C   UNL     1       7.096  -4.379  22.282  0.00  0.00    +0.104 C 
ENDBRANCH  20  21
ENDBRANCH  17  20
ENDBRANCH  16  17
ENDBRANCH   1  16
TORSDOF 5
ENDMDL
MODEL 2
REMARK VINA RESULT:      -5.8      0.103      4.300
REMARK  Name = 
REMARK  7 active torsions:
REMARK  status: ('A' for Active; 'I' for Inactive)
REMARK    1  A    between atoms: C_2  and  O_3
REMARK    2  A    between atoms: C_2  and  C_4
REMARK    3  A    between atoms: C_2  and  C_8
REMARK    4  A    between atoms: C_4  and  N_5
REMARK    5  A    between atoms: N_5  and  C_6
REMARK    6  A    between atoms: N_5  and  C_7
REMARK    7  A    between atoms: C_8  and  N_9
REMARK                            x       y       z     vdW  Elec       q    Type
REMARK                         _______ _______ _______ _____ _____    ______ ____
ROOT
ATOM      1  N   UNL     1       9.189   0.246  24.660  0.00  0.00    -0.337 N 
ATOM      2  C   UNL     1       8.085   0.182  25.493  0.00  0.00    +0.050 A 
ATOM      3  C   UNL     1       7.425  -0.914  26.077  0.00  0.00    +0.027 A 
ATOM      4  C   UNL     1       6.334  -0.665  26.915  0.00  0.00    +0.017 A 
ATOM      5  C   UNL     1       5.909   0.636  27.152  0.00  0.00    +0.019 A 
ATOM      6  C   UNL     1       6.561   1.725  26.566  0.00  0.00    +0.026 A 
ATOM      7 BR   UNL     1       4.427   0.940  28.287  0.00  0.00    -0.050 Br
ATOM      8  C   UNL     1       7.671   1.495  25.724  0.00  0.00    +0.009 A 
ATOM      9  C   UNL     1       8.546   2.361  24.995  0.00  0.00    +0.009 A 
ATOM     10  C   UNL     1       8.622   3.762  24.854  0.00  0.00    +0.026 A 
ATOM     11  C   UNL     1       9.618   4.313  24.044  0.00  0.00    +0.019 A 
ATOM     12 BR   UNL     1       9.736   6.194  23.871  0.00  0.00    -0.050 Br
ATOM     13  C   UNL     1      10.521   3.502  23.368  0.00  0.00    +0.017 A 
ATOM     14  C   UNL     1      10.464   2.109  23.494  0.00  0.00    +0.027 A 
ATOM     15  C   UNL     1       9.472   1.557  24.323  0.00  0.00    +0.050 A 
ENDROOT
BRANCH   1  16
ATOM     16  C   UNL     1       9.948  -0.917  24.200  0.00  0.00    +0.155 C 
BRANCH  16  17
ATOM     17  C   UNL     1       9.401  -1.500  22.887  0.00  0.00    +0.148 C 
BRANCH  17  18
ATOM     18  O   UNL     1      10.456  -1.742  21.942  0.00  0.00    -0.389 OA
ATOM     19  H   UNL     1      10.091  -2.235  21.187  0.00  0.00    +0.210 HD
ENDBRANCH  17  18
BRANCH  17  20
ATOM     20  C   UNL     1       8.672  -2.846  23.106  0.00  0.00    +0.116 C 
BRANCH  20  21
ATOM     21  N   UNL     1       7.497  -3.114  22.261  0.00  0.00    -0.306 NA
ATOM     22  C   UNL     1       6.361  -2.318  22.748  0.00  0.00    +0.104 C 
ATOM     23  C   UNL     1       7.133  -4.533  22.278  0.00  0.00    +0.104 C 
ENDBRANCH  20  21
ENDBRANCH  17  20
ENDBRANCH  16  17
ENDBRANCH   1  16
TORSDOF 5
ENDMDL
MODEL 3
REMARK VINA RESULT:      -5.6      3.615      6.787
REMARK  Name = 
REMARK  7 active torsions:
REMARK  status: ('A' for Active; 'I' for Inactive)
REMARK    1  A    between atoms: C_2  and  O_3
REMARK    2  A    between atoms: C_2  and  C_4
REMARK    3  A    between atoms: C_2  and  C_8
REMARK    4  A    between atoms: C_4  and  N_5
REMARK    5  A    between atoms: N_5  and  C_6
REMARK    6  A    between atoms: N_5  and  C_7
REMARK    7  A    between atoms: C_8  and  N_9
REMARK                            x       y       z     vdW  Elec       q    Type
REMARK                         _______ _______ _______ _____ _____    ______ ____
ROOT
ATOM      1  N   UNL     1       8.374   3.469  25.085  0.00  0.00    -0.337 N 
ATOM      2  C   UNL     1       8.529   2.105  24.898  0.00  0.00    +0.050 A 
ATOM      3  C   UNL     1       7.728   1.018  25.288  0.00  0.00    +0.027 A 
ATOM      4  C   UNL     1       8.131  -0.270  24.926  0.00  0.00    +0.017 A 
ATOM      5  C   UNL     1       9.303  -0.467  24.207  0.00  0.00    +0.019 A 
ATOM      6  C   UNL     1      10.102   0.613  23.824  0.00  0.00    +0.026 A 
ATOM      7 BR   UNL     1       9.823  -2.223  23.734  0.00  0.00    -0.050 Br
ATOM      8  C   UNL     1       9.708   1.924  24.173  0.00  0.00    +0.009 A 
ATOM      9  C   UNL     1      10.275   3.216  23.935  0.00  0.00    +0.009 A 
ATOM     10  C   UNL     1      11.435   3.653  23.262  0.00  0.00    +0.026 A 
ATOM     11  C   UNL     1      11.719   5.019  23.210  0.00  0.00    +0.019 A 
ATOM     12 BR   UNL     1      13.262   5.611  22.288  0.00  0.00    -0.050 Br
ATOM     13  C   UNL     1      10.885   5.948  23.821  0.00  0.00    +0.017 A 
ATOM     14  C   UNL     1       9.729   5.536  24.494  0.00  0.00    +0.027 A 
ATOM     15  C   UNL     1       9.436   4.162  24.532  0.00  0.00    +0.050 A 
ENDROOT
BRANCH   1  16
ATOM     16  C   UNL     1       7.242   4.087  25.774  0.00  0.00    +0.155 C 
BRANCH  16  17
ATOM     17  C   UNL     1       6.010   4.244  24.868  0.00  0.00    +0.148 C 
BRANCH  17  18
ATOM     18  O   UNL     1       4.800   4.324  25.639  0.00  0.00    -0.389 OA
ATOM     19  H   UNL     1       4.893   3.759  26.424  0.00  0.00    +0.210 HD
ENDBRANCH  17  18
BRANCH  17  20
ATOM     20  C   UNL     1       6.082   5.523  24.003  0.00  0.00    +0.116 C 
BRANCH  20  21
ATOM     21  N   UNL     1       6.171   5.340  22.545  0.00  0.00    -0.306 NA
ATOM     22  C   UNL     1       6.434   3.923  22.253  0.00  0.00    +0.104 C 
ATOM     23  C   UNL     1       7.239   6.157  21.963  0.00  0.00    +0.104 C 
ENDBRANCH  20  21
ENDBRANCH  17  20
ENDBRANCH  16  17
ENDBRANCH   1  16
TORSDOF 5
ENDMDL
MODEL 4
REMARK VINA RESULT:      -5.4      4.716      6.629
REMARK  Name = 
REMARK  7 active torsions:
REMARK  status: ('A' for Active; 'I' for Inactive)
REMARK    1  A    between atoms: C_2  and  O_3
REMARK    2  A    between atoms: C_2  and  C_4
REMARK    3  A    between atoms: C_2  and  C_8
REMARK    4  A    between atoms: C_4  and  N_5
REMARK    5  A    between atoms: N_5  and  C_6
REMARK    6  A    between atoms: N_5  and  C_7
REMARK    7  A    between atoms: C_8  and  N_9
REMARK                            x       y       z     vdW  Elec       q    Type
REMARK                         _______ _______ _______ _____ _____    ______ ____
ROOT
ATOM      1  N   UNL     1       6.730  -3.672  26.103  0.00  0.00    -0.337 N 
ATOM      2  C   UNL     1       7.591  -2.611  25.878  0.00  0.00    +0.050 A 
ATOM      3  C   UNL     1       8.145  -1.663  26.756  0.00  0.00    +0.027 A 
ATOM      4  C   UNL     1       9.024  -0.708  26.237  0.00  0.00    +0.017 A 
ATOM      5  C   UNL     1       9.330  -0.694  24.882  0.00  0.00    +0.019 A 
ATOM      6  C   UNL     1       8.774  -1.632  24.008  0.00  0.00    +0.026 A 
ATOM      7 BR   UNL     1      10.520   0.614  24.209  0.00  0.00    -0.050 Br
ATOM      8  C   UNL     1       7.891  -2.610  24.515  0.00  0.00    +0.009 A 
ATOM      9  C   UNL     1       7.176  -3.694  23.913  0.00  0.00    +0.009 A 
ATOM     10  C   UNL     1       7.095  -4.183  22.592  0.00  0.00    +0.026 A 
ATOM     11  C   UNL     1       6.282  -5.285  22.321  0.00  0.00    +0.019 A 
ATOM     12 BR   UNL     1       6.188  -5.957  20.555  0.00  0.00    -0.050 Br
ATOM     13  C   UNL     1       5.544  -5.896  23.329  0.00  0.00    +0.017 A 
ATOM     14  C   UNL     1       5.610  -5.428  24.647  0.00  0.00    +0.027 A 
ATOM     15  C   UNL     1       6.442  -4.328  24.920  0.00  0.00    +0.050 A 
ENDROOT
BRANCH   1  16
ATOM     16  C   UNL     1       6.198  -4.042  27.414  0.00  0.00    +0.155 C 
BRANCH  16  17
ATOM     17  C   UNL     1       6.425  -5.526  27.748  0.00  0.00    +0.148 C 
BRANCH  17  18
ATOM     18  O   UNL     1       7.807  -5.891  27.599  0.00  0.00    -0.389 OA
ATOM     19  H   UNL     1       8.309  -5.517  28.343  0.00  0.00    +0.210 HD
ENDBRANCH  17  18
BRANCH  17  20
ATOM     20  C   UNL     1       6.021  -5.864  29.201  0.00  0.00    +0.116 C 
BRANCH  20  21
ATOM     21  N   UNL     1       4.904  -6.806  29.382  0.00  0.00    -0.306 NA
ATOM     22  C   UNL     1       4.119  -6.867  28.140  0.00  0.00    +0.104 C 
ATOM     23  C   UNL     1       4.028  -6.400  30.484  0.00  0.00    +0.104 C 
ENDBRANCH  20  21
ENDBRANCH  17  20
ENDBRANCH  16  17
ENDBRANCH   1  16
TORSDOF 5
ENDMDL
MODEL 5
REMARK VINA RESULT:      -5.4      2.638      3.316
REMARK  Name = 
REMARK  7 active torsions:
REMARK  status: ('A' for Active; 'I' for Inactive)
REMARK    1  A    between atoms: C_2  and  O_3
REMARK    2  A    between atoms: C_2  and  C_4
REMARK    3  A    between atoms: C_2  and  C_8
REMARK    4  A    between atoms: C_4  and  N_5
REMARK    5  A    between atoms: N_5  and  C_6
REMARK    6  A    between atoms: N_5  and  C_7
REMARK    7  A    between atoms: C_8  and  N_9
REMARK                            x       y       z     vdW  Elec       q    Type
REMARK                         _______ _______ _______ _____ _____    ______ ____
ROOT
ATOM      1  N   UNL     1       8.158  -2.701  25.774  0.00  0.00    -0.337 N 
ATOM      2  C   UNL     1       8.618  -1.702  24.933  0.00  0.00    +0.050 A 
ATOM      3  C   UNL     1       9.818  -1.575  24.212  0.00  0.00    +0.027 A 
ATOM      4  C   UNL     1       9.994  -0.446  23.406  0.00  0.00    +0.017 A 
ATOM      5  C   UNL     1       9.008   0.529  23.332  0.00  0.00    +0.019 A 
ATOM      6  C   UNL     1       7.818   0.406  24.054  0.00  0.00    +0.026 A 
ATOM      7 BR   UNL     1       9.278   2.047  22.235  0.00  0.00    -0.050 Br
ATOM      8  C   UNL     1       7.617  -0.731  24.867  0.00  0.00    +0.009 A 
ATOM      9  C   UNL     1       6.539  -1.161  25.704  0.00  0.00    +0.009 A 
ATOM     10  C   UNL     1       5.281  -0.607  26.020  0.00  0.00    +0.026 A 
ATOM     11  C   UNL     1       4.436  -1.289  26.899  0.00  0.00    +0.019 A 
ATOM     12 BR   UNL     1       2.739  -0.560  27.308  0.00  0.00    -0.050 Br
ATOM     13  C   UNL     1       4.824  -2.494  27.474  0.00  0.00    +0.017 A 
ATOM     14  C   UNL     1       6.067  -3.062  27.173  0.00  0.00    +0.027 A 
ATOM     15  C   UNL     1       6.909  -2.382  26.276  0.00  0.00    +0.050 A 
ENDROOT
BRANCH   1  16
ATOM     16  C   UNL     1       8.896  -3.923  26.089  0.00  0.00    +0.155 C 
BRANCH  16  17
ATOM     17  C   UNL     1       9.101  -4.825  24.860  0.00  0.00    +0.148 C 
BRANCH  17  18
ATOM     18  O   UNL     1       9.818  -6.022  25.202  0.00  0.00    -0.389 OA
ATOM     19  H   UNL     1      10.533  -5.791  25.819  0.00  0.00    +0.210 HD
ENDBRANCH  17  18
BRANCH  17  20
ATOM     20  C   UNL     1       7.759  -5.264  24.230  0.00  0.00    +0.116 C 
BRANCH  20  21
ATOM     21  N   UNL     1       7.488  -4.814  22.854  0.00  0.00    -0.306 NA
ATOM     22  C   UNL     1       6.341  -3.895  22.866  0.00  0.00    +0.104 C 
ATOM     23  C   UNL     1       7.193  -5.942  21.966  0.00  0.00    +0.104 C 
ENDBRANCH  20  21
ENDBRANCH  17  20
ENDBRANCH  16  17
ENDBRANCH   1  16
TORSDOF 5
ENDMDL
MODEL 6
REMARK VINA RESULT:      -5.4      3.826      5.238
REMARK  Name = 
REMARK  7 active torsions:
REMARK  status: ('A' for Active; 'I' for Inactive)
REMARK    1  A    between atoms: C_2  and  O_3
REMARK    2  A    between atoms: C_2  and  C_4
REMARK    3  A    between atoms: C_2  and  C_8
REMARK    4  A    between atoms: C_4  and  N_5
REMARK    5  A    between atoms: N_5  and  C_6
REMARK    6  A    between atoms: N_5  and  C_7
REMARK    7  A    between atoms: C_8  and  N_9
REMARK                            x       y       z     vdW  Elec       q    Type
REMARK                         _______ _______ _______ _____ _____    ______ ____
ROOT
ATOM      1  N   UNL     1       7.809   3.354  24.060  0.00  0.00    -0.337 N 
ATOM      2  C   UNL     1       8.984   4.045  23.816  0.00  0.00    +0.050 A 
ATOM      3  C   UNL     1       9.254   5.423  23.749  0.00  0.00    +0.027 A 
ATOM      4  C   UNL     1      10.569   5.833  23.510  0.00  0.00    +0.017 A 
ATOM      5  C   UNL     1      11.579   4.897  23.332  0.00  0.00    +0.019 A 
ATOM      6  C   UNL     1      11.309   3.527  23.391  0.00  0.00    +0.026 A 
ATOM      7 BR   UNL     1      13.347   5.484  23.006  0.00  0.00    -0.050 Br
ATOM      8  C   UNL     1       9.989   3.092  23.640  0.00  0.00    +0.009 A 
ATOM      9  C   UNL     1       9.390   1.800  23.771  0.00  0.00    +0.009 A 
ATOM     10  C   UNL     1       9.900   0.486  23.703  0.00  0.00    +0.026 A 
ATOM     11  C   UNL     1       9.030  -0.593  23.874  0.00  0.00    +0.019 A 
ATOM     12 BR   UNL     1       9.715  -2.356  23.805  0.00  0.00    -0.050 Br
ATOM     13  C   UNL     1       7.673  -0.391  24.096  0.00  0.00    +0.017 A 
ATOM     14  C   UNL     1       7.145   0.904  24.168  0.00  0.00    +0.027 A 
ATOM     15  C   UNL     1       8.025   1.989  24.012  0.00  0.00    +0.050 A 
ENDROOT
BRANCH   1  16
ATOM     16  C   UNL     1       6.518   3.986  24.330  0.00  0.00    +0.155 C 
BRANCH  16  17
ATOM     17  C   UNL     1       5.680   4.190  23.057  0.00  0.00    +0.148 C 
BRANCH  17  18
ATOM     18  O   UNL     1       6.454   3.935  21.874  0.00  0.00    -0.389 OA
ATOM     19  H   UNL     1       6.317   3.011  21.606  0.00  0.00    +0.210 HD
ENDBRANCH  17  18
BRANCH  17  20
ATOM     20  C   UNL     1       4.455   3.249  23.009  0.00  0.00    +0.116 C 
BRANCH  20  21
ATOM     21  N   UNL     1       3.145   3.870  22.751  0.00  0.00    -0.306 NA
ATOM     22  C   UNL     1       2.571   3.293  21.526  0.00  0.00    +0.104 C 
ATOM     23  C   UNL     1       3.258   5.322  22.592  0.00  0.00    +0.104 C 
ENDBRANCH  20  21
ENDBRANCH  17  20
ENDBRANCH  16  17
ENDBRANCH   1  16
TORSDOF 5
ENDMDL
MODEL 7
REMARK VINA RESULT:      -5.3      3.662      6.919
REMARK  Name = 
REMARK  7 active torsions:
REMARK  status: ('A' for Active; 'I' for Inactive)
REMARK    1  A    between atoms: C_2  and  O_3
REMARK    2  A    between atoms: C_2  and  C_4
REMARK    3  A    between atoms: C_2  and  C_8
REMARK    4  A    between atoms: C_4  and  N_5
REMARK    5  A    between atoms: N_5  and  C_6
REMARK    6  A    between atoms: N_5  and  C_7
REMARK    7  A    between atoms: C_8  and  N_9
REMARK                            x       y       z     vdW  Elec       q    Type
REMARK                         _______ _______ _______ _____ _____    ______ ____
ROOT
ATOM      1  N   UNL     1       8.147   3.415  24.911  0.00  0.00    -0.337 N 
ATOM      2  C   UNL     1       8.329   2.048  24.783  0.00  0.00    +0.050 A 
ATOM      3  C   UNL     1       7.511   0.964  25.147  0.00  0.00    +0.027 A 
ATOM      4  C   UNL     1       7.955  -0.330  24.860  0.00  0.00    +0.017 A 
ATOM      5  C   UNL     1       9.181  -0.535  24.241  0.00  0.00    +0.019 A 
ATOM      6  C   UNL     1       9.997   0.542  23.885  0.00  0.00    +0.026 A 
ATOM      7 BR   UNL     1       9.755  -2.300  23.869  0.00  0.00    -0.050 Br
ATOM      8  C   UNL     1       9.563   1.858  24.158  0.00  0.00    +0.009 A 
ATOM      9  C   UNL     1      10.134   3.148  23.921  0.00  0.00    +0.009 A 
ATOM     10  C   UNL     1      11.338   3.578  23.325  0.00  0.00    +0.026 A 
ATOM     11  C   UNL     1      11.611   4.946  23.249  0.00  0.00    +0.019 A 
ATOM     12 BR   UNL     1      13.215   5.527  22.431  0.00  0.00    -0.050 Br
ATOM     13  C   UNL     1      10.723   5.883  23.763  0.00  0.00    +0.017 A 
ATOM     14  C   UNL     1       9.522   5.479  24.358  0.00  0.00    +0.027 A 
ATOM     15  C   UNL     1       9.241   4.102  24.419  0.00  0.00    +0.050 A 
ENDROOT
BRANCH   1  16
ATOM     16  C   UNL     1       6.958   4.040  25.490  0.00  0.00    +0.155 C 
BRANCH  16  17
ATOM     17  C   UNL     1       7.171   4.482  26.947  0.00  0.00    +0.148 C 
BRANCH  17  18
ATOM     18  O   UNL     1       6.668   5.809  27.171  0.00  0.00    -0.389 OA
ATOM     19  H   UNL     1       5.925   5.966  26.564  0.00  0.00    +0.210 HD
ENDBRANCH  17  18
BRANCH  17  20
ATOM     20  C   UNL     1       6.453   3.549  27.949  0.00  0.00    +0.116 C 
BRANCH  20  21
ATOM     21  N   UNL     1       7.297   2.833  28.919  0.00  0.00    -0.306 NA
ATOM     22  C   UNL     1       7.022   1.393  28.827  0.00  0.00    +0.104 C 
ATOM     23  C   UNL     1       7.046   3.285  30.290  0.00  0.00    +0.104 C 
ENDBRANCH  20  21
ENDBRANCH  17  20
ENDBRANCH  16  17
ENDBRANCH   1  16
TORSDOF 5
ENDMDL
MODEL 8
REMARK VINA RESULT:      -5.3      3.656      5.612
REMARK  Name = 
REMARK  7 active torsions:
REMARK  status: ('A' for Active; 'I' for Inactive)
REMARK    1  A    between atoms: C_2  and  O_3
REMARK    2  A    between atoms: C_2  and  C_4
REMARK    3  A    between atoms: C_2  and  C_8
REMARK    4  A    between atoms: C_4  and  N_5
REMARK    5  A    between atoms: N_5  and  C_6
REMARK    6  A    between atoms: N_5  and  C_7
REMARK    7  A    between atoms: C_8  and  N_9
REMARK                            x       y       z     vdW  Elec       q    Type
REMARK                         _______ _______ _______ _____ _____    ______ ____
ROOT
ATOM      1  N   UNL     1       8.111   3.423  24.902  0.00  0.00    -0.337 N 
ATOM      2  C   UNL     1       9.201   4.107  24.388  0.00  0.00    +0.050 A 
ATOM      3  C   UNL     1       9.482   5.483  24.312  0.00  0.00    +0.027 A 
ATOM      4  C   UNL     1      10.699   5.883  23.755  0.00  0.00    +0.017 A 
ATOM      5  C   UNL     1      11.602   4.941  23.279  0.00  0.00    +0.019 A 
ATOM      6  C   UNL     1      11.320   3.574  23.348  0.00  0.00    +0.026 A 
ATOM      7 BR   UNL     1      13.240   5.516  22.527  0.00  0.00    -0.050 Br
ATOM      8  C   UNL     1      10.099   3.148  23.915  0.00  0.00    +0.009 A 
ATOM      9  C   UNL     1       9.519   1.860  24.144  0.00  0.00    +0.009 A 
ATOM     10  C   UNL     1       9.957   0.544  23.888  0.00  0.00    +0.026 A 
ATOM     11  C   UNL     1       9.133  -0.529  24.235  0.00  0.00    +0.019 A 
ATOM     12 BR   UNL     1       9.727  -2.296  23.914  0.00  0.00    -0.050 Br
ATOM     13  C   UNL     1       7.886  -0.317  24.813  0.00  0.00    +0.017 A 
ATOM     14  C   UNL     1       7.432   0.981  25.075  0.00  0.00    +0.027 A 
ATOM     15  C   UNL     1       8.270   2.059  24.741  0.00  0.00    +0.050 A 
ENDROOT
BRANCH   1  16
ATOM     16  C   UNL     1       6.954   4.061  25.527  0.00  0.00    +0.155 C 
BRANCH  16  17
ATOM     17  C   UNL     1       7.221   4.481  26.982  0.00  0.00    +0.148 C 
BRANCH  17  18
ATOM     18  O   UNL     1       6.779   5.825  27.229  0.00  0.00    -0.389 OA
ATOM     19  H   UNL     1       7.537   6.426  27.128  0.00  0.00    +0.210 HD
ENDBRANCH  17  18
BRANCH  17  20
ATOM     20  C   UNL     1       6.490   3.570  27.995  0.00  0.00    +0.116 C 
BRANCH  20  21
ATOM     21  N   UNL     1       7.330   2.772  28.903  0.00  0.00    -0.306 NA
ATOM     22  C   UNL     1       6.970   1.353  28.772  0.00  0.00    +0.104 C 
ATOM     23  C   UNL     1       7.159   3.185  30.298  0.00  0.00    +0.104 C 
ENDBRANCH  20  21
ENDBRANCH  17  20
ENDBRANCH  16  17
ENDBRANCH   1  16
TORSDOF 5
ENDMDL
MODEL 9
REMARK VINA RESULT:      -5.3      2.685      5.266
REMARK  Name = 
REMARK  7 active torsions:
REMARK  status: ('A' for Active; 'I' for Inactive)
REMARK    1  A    between atoms: C_2  and  O_3
REMARK    2  A    between atoms: C_2  and  C_4
REMARK    3  A    between atoms: C_2  and  C_8
REMARK    4  A    between atoms: C_4  and  N_5
REMARK    5  A    between atoms: N_5  and  C_6
REMARK    6  A    between atoms: N_5  and  C_7
REMARK    7  A    between atoms: C_8  and  N_9
REMARK                            x       y       z     vdW  Elec       q    Type
REMARK                         _______ _______ _______ _____ _____    ______ ____
ROOT
ATOM      1  N   UNL     1       8.085  -2.528  25.864  0.00  0.00    -0.337 N 
ATOM      2  C   UNL     1       6.876  -2.023  26.312  0.00  0.00    +0.050 A 
ATOM      3  C   UNL     1       5.943  -2.528  27.235  0.00  0.00    +0.027 A 
ATOM      4  C   UNL     1       4.805  -1.768  27.514  0.00  0.00    +0.017 A 
ATOM      5  C   UNL     1       4.599  -0.548  26.884  0.00  0.00    +0.019 A 
ATOM      6  C   UNL     1       5.522  -0.049  25.962  0.00  0.00    +0.026 A 
ATOM      7 BR   UNL     1       3.045   0.456  27.282  0.00  0.00    -0.050 Br
ATOM      8  C   UNL     1       6.683  -0.797  25.672  0.00  0.00    +0.009 A 
ATOM      9  C   UNL     1       7.804  -0.577  24.810  0.00  0.00    +0.009 A 
ATOM     10  C   UNL     1       8.160   0.473  23.937  0.00  0.00    +0.026 A 
ATOM     11  C   UNL     1       9.351   0.383  23.213  0.00  0.00    +0.019 A 
ATOM     12 BR   UNL     1       9.843   1.799  22.058  0.00  0.00    -0.050 Br
ATOM     13  C   UNL     1      10.179  -0.727  23.331  0.00  0.00    +0.017 A 
ATOM     14  C   UNL     1       9.846  -1.780  24.192  0.00  0.00    +0.027 A 
ATOM     15  C   UNL     1       8.654  -1.680  24.932  0.00  0.00    +0.050 A 
ENDROOT
BRANCH   1  16
ATOM     16  C   UNL     1       8.675  -3.788  26.317  0.00  0.00    +0.155 C 
BRANCH  16  17
ATOM     17  C   UNL     1       8.604  -4.893  25.250  0.00  0.00    +0.148 C 
BRANCH  17  18
ATOM     18  O   UNL     1       9.486  -5.983  25.566  0.00  0.00    -0.389 OA
ATOM     19  H   UNL     1      10.326  -5.619  25.893  0.00  0.00    +0.210 HD
ENDBRANCH  17  18
BRANCH  17  20
ATOM     20  C   UNL     1       7.182  -5.484  25.116  0.00  0.00    +0.116 C 
BRANCH  20  21
ATOM     21  N   UNL     1       6.485  -5.264  23.839  0.00  0.00    -0.306 NA
ATOM     22  C   UNL     1       7.405  -4.616  22.893  0.00  0.00    +0.104 C 
ATOM     23  C   UNL     1       5.299  -4.421  24.010  0.00  0.00    +0.104 C 
ENDBRANCH  20  21
ENDBRANCH  17  20
ENDBRANCH  16  17
ENDBRANCH   1  16
TORSDOF 5
ENDMDL
