MODEL 1
REMARK VINA RESULT:      -7.4      0.000      0.000
REMARK  Name = 
REMARK  5 active torsions:
REMARK  status: ('A' for Active; 'I' for Inactive)
REMARK    1  A    between atoms: C_1  and  N_2
REMARK    2  A    between atoms: N_2  and  S_3
REMARK    3  A    between atoms: S_3  and  C_6
REMARK    4  A    between atoms: C_9  and  N_10
REMARK    5  A    between atoms: N_10  and  C_11
REMARK                            x       y       z     vdW  Elec       q    Type
REMARK                         _______ _______ _______ _____ _____    ______ ____
ROOT
ATOM      1  N   UNL     1       9.562  -3.563  24.532  0.00  0.00    -0.320 N 
ATOM      2  H   UNL     1      10.423  -4.065  24.761  0.00  0.00    +0.152 HD
ENDROOT
BRANCH   1   3
ATOM      3  C   UNL     1       9.740  -2.361  23.891  0.00  0.00    +0.085 C 
ATOM      4  C   UNL     1       9.540  -1.128  24.377  0.00  0.00    +0.060 C 
ATOM      5  C   UNL     1       9.675   0.146  23.671  0.00  0.00    +0.010 A 
ATOM      6  C   UNL     1      10.005   0.482  22.371  0.00  0.00    +0.010 A 
ATOM      7  C   UNL     1      10.021   1.838  22.026  0.00  0.00    +0.001 A 
ATOM      8  C   UNL     1       9.709   2.828  22.977  0.00  0.00    +0.002 A 
ATOM      9  C   UNL     1       9.375   2.482  24.289  0.00  0.00    +0.024 A 
ATOM     10  C   UNL     1       9.363   1.139  24.607  0.00  0.00    +0.042 A 
ATOM     11  N   UNL     1       9.046   0.569  25.838  0.00  0.00    -0.281 N 
ATOM     12  H   UNL     1       8.782   1.073  26.672  0.00  0.00    +0.155 HD
ATOM     13  C   UNL     1       9.121  -0.817  25.787  0.00  0.00    +0.250 C 
ATOM     14  O   UNL     1       8.898  -1.611  26.681  0.00  0.00    -0.270 OA
ENDBRANCH   1   3
BRANCH   1  18
ATOM     15  C   UNL     1       5.986  -5.627  25.420  0.00  0.00    +0.105 A 
ATOM     16  C   UNL     1       7.026  -5.573  26.348  0.00  0.00    +0.030 A 
ATOM     17  C   UNL     1       8.208  -4.899  26.023  0.00  0.00    +0.025 A 
ATOM     18  C   UNL     1       8.365  -4.255  24.785  0.00  0.00    +0.031 A 
ATOM     19  C   UNL     1       7.277  -4.262  23.899  0.00  0.00    +0.025 A 
ATOM     20  C   UNL     1       6.096  -4.952  24.204  0.00  0.00    +0.030 A 
BRANCH  15  21
ATOM     21  S   UNL     1       4.494  -6.499  25.824  0.00  0.00    +0.058 S 
ATOM     22  O   UNL     1       3.441  -5.536  26.051  0.00  0.00    -0.153 OA
ATOM     23  O   UNL     1       4.339  -7.585  24.881  0.00  0.00    -0.153 OA
BRANCH  21  25
ATOM     24  C   UNL     1       4.203  -6.756  28.499  0.00  0.00    +0.127 C 
ATOM     25  N   UNL     1       4.878  -7.223  27.293  0.00  0.00    -0.193 NA
ATOM     26  H   UNL     1       5.029  -8.227  27.192  0.00  0.00    +0.148 HD
ENDBRANCH  21  25
ENDBRANCH  15  21
ENDBRANCH   1  18
TORSDOF 4
ENDMDL
MODEL 2
REMARK VINA RESULT:      -7.2      1.566      2.172
REMARK  Name = 
REMARK  5 active torsions:
REMARK  status: ('A' for Active; 'I' for Inactive)
REMARK    1  A    between atoms: C_1  and  N_2
REMARK    2  A    between atoms: N_2  and  S_3
REMARK    3  A    between atoms: S_3  and  C_6
REMARK    4  A    between atoms: C_9  and  N_10
REMARK    5  A    between atoms: N_10  and  C_11
REMARK                            x       y       z     vdW  Elec       q    Type
REMARK                         _______ _______ _______ _____ _____    ______ ____
ROOT
ATOM      1  N   UNL     1       9.041  -3.814  24.348  0.00  0.00    -0.320 N 
ATOM      2  H   UNL     1       9.835  -4.364  24.685  0.00  0.00    +0.152 HD
ENDROOT
BRANCH   1   3
ATOM      3  C   UNL     1       9.370  -2.630  23.736  0.00  0.00    +0.085 C 
ATOM      4  C   UNL     1       9.352  -1.396  24.259  0.00  0.00    +0.060 C 
ATOM      5  C   UNL     1       9.646  -0.133  23.584  0.00  0.00    +0.010 A 
ATOM      6  C   UNL     1       9.993   0.193  22.285  0.00  0.00    +0.010 A 
ATOM      7  C   UNL     1      10.188   1.544  21.977  0.00  0.00    +0.001 A 
ATOM      8  C   UNL     1      10.036   2.540  22.961  0.00  0.00    +0.002 A 
ATOM      9  C   UNL     1       9.684   2.203  24.272  0.00  0.00    +0.024 A 
ATOM     10  C   UNL     1       9.493   0.865  24.554  0.00  0.00    +0.042 A 
ATOM     11  N   UNL     1       9.126   0.308  25.777  0.00  0.00    -0.281 N 
ATOM     12  H   UNL     1       8.952   0.818  26.630  0.00  0.00    +0.155 HD
ATOM     13  C   UNL     1       9.009  -1.073  25.687  0.00  0.00    +0.250 C 
ATOM     14  O   UNL     1       8.697  -1.855  26.564  0.00  0.00    -0.270 OA
ENDBRANCH   1   3
BRANCH   1  18
ATOM     15  C   UNL     1       5.267  -5.705  24.511  0.00  0.00    +0.105 A 
ATOM     16  C   UNL     1       5.754  -5.189  23.309  0.00  0.00    +0.030 A 
ATOM     17  C   UNL     1       6.999  -4.551  23.285  0.00  0.00    +0.025 A 
ATOM     18  C   UNL     1       7.783  -4.434  24.445  0.00  0.00    +0.031 A 
ATOM     19  C   UNL     1       7.303  -5.024  25.623  0.00  0.00    +0.025 A 
ATOM     20  C   UNL     1       6.048  -5.648  25.666  0.00  0.00    +0.030 A 
BRANCH  15  21
ATOM     21  S   UNL     1       3.680  -6.497  24.546  0.00  0.00    +0.058 S 
ATOM     22  O   UNL     1       3.865  -7.892  24.876  0.00  0.00    -0.153 OA
ATOM     23  O   UNL     1       2.773  -5.653  25.294  0.00  0.00    -0.153 OA
BRANCH  21  25
ATOM     24  C   UNL     1       1.812  -6.774  22.612  0.00  0.00    +0.127 C 
ATOM     25  N   UNL     1       3.181  -6.392  22.942  0.00  0.00    -0.193 NA
ATOM     26  H   UNL     1       3.571  -5.572  22.478  0.00  0.00    +0.148 HD
ENDBRANCH  21  25
ENDBRANCH  15  21
ENDBRANCH   1  18
TORSDOF 4
ENDMDL
MODEL 3
REMARK VINA RESULT:      -7.2      2.028      2.584
REMARK  Name = 
REMARK  5 active torsions:
REMARK  status: ('A' for Active; 'I' for Inactive)
REMARK    1  A    between atoms: C_1  and  N_2
REMARK    2  A    between atoms: N_2  and  S_3
REMARK    3  A    between atoms: S_3  and  C_6
REMARK    4  A    between atoms: C_9  and  N_10
REMARK    5  A    between atoms: N_10  and  C_11
REMARK                            x       y       z     vdW  Elec       q    Type
REMARK                         _______ _______ _______ _____ _____    ______ ____
ROOT
ATOM      1  N   UNL     1       9.166  -3.841  24.423  0.00  0.00    -0.320 N 
ATOM      2  H   UNL     1       9.534  -4.412  23.659  0.00  0.00    +0.152 HD
ENDROOT
BRANCH   1   3
ATOM      3  C   UNL     1       9.591  -2.535  24.432  0.00  0.00    +0.085 C 
ATOM      4  C   UNL     1       9.407  -1.600  23.489  0.00  0.00    +0.060 C 
ATOM      5  C   UNL     1       9.914  -0.228  23.478  0.00  0.00    +0.010 A 
ATOM      6  C   UNL     1      10.702   0.502  24.349  0.00  0.00    +0.010 A 
ATOM      7  C   UNL     1      11.015   1.822  24.004  0.00  0.00    +0.001 A 
ATOM      8  C   UNL     1      10.539   2.387  22.805  0.00  0.00    +0.002 A 
ATOM      9  C   UNL     1       9.744   1.643  21.928  0.00  0.00    +0.024 A 
ATOM     10  C   UNL     1       9.450   0.343  22.287  0.00  0.00    +0.042 A 
ATOM     11  N   UNL     1       8.695  -0.578  21.564  0.00  0.00    -0.281 N 
ATOM     12  H   UNL     1       8.256  -0.411  20.671  0.00  0.00    +0.155 HD
ATOM     13  C   UNL     1       8.623  -1.799  22.222  0.00  0.00    +0.250 C 
ATOM     14  O   UNL     1       8.053  -2.811  21.860  0.00  0.00    -0.270 OA
ENDBRANCH   1   3
BRANCH   1  18
ATOM     15  C   UNL     1       6.187  -5.742  26.737  0.00  0.00    +0.105 A 
ATOM     16  C   UNL     1       6.008  -5.545  25.367  0.00  0.00    +0.030 A 
ATOM     17  C   UNL     1       7.001  -4.896  24.626  0.00  0.00    +0.025 A 
ATOM     18  C   UNL     1       8.190  -4.453  25.229  0.00  0.00    +0.031 A 
ATOM     19  C   UNL     1       8.377  -4.728  26.591  0.00  0.00    +0.025 A 
ATOM     20  C   UNL     1       7.381  -5.358  27.349  0.00  0.00    +0.030 A 
BRANCH  15  21
ATOM     21  S   UNL     1       4.920  -6.548  27.681  0.00  0.00    +0.058 S 
ATOM     22  O   UNL     1       5.538  -7.519  28.555  0.00  0.00    -0.153 OA
ATOM     23  O   UNL     1       4.023  -5.531  28.189  0.00  0.00    -0.153 OA
BRANCH  21  25
ATOM     24  C   UNL     1       2.659  -6.997  26.269  0.00  0.00    +0.127 C 
ATOM     25  N   UNL     1       4.050  -7.372  26.500  0.00  0.00    -0.193 NA
ATOM     26  H   UNL     1       4.626  -7.586  25.687  0.00  0.00    +0.148 HD
ENDBRANCH  21  25
ENDBRANCH  15  21
ENDBRANCH   1  18
TORSDOF 4
ENDMDL
MODEL 4
REMARK VINA RESULT:      -7.2      3.238      8.067
REMARK  Name = 
REMARK  5 active torsions:
REMARK  status: ('A' for Active; 'I' for Inactive)
REMARK    1  A    between atoms: C_1  and  N_2
REMARK    2  A    between atoms: N_2  and  S_3
REMARK    3  A    between atoms: S_3  and  C_6
REMARK    4  A    between atoms: C_9  and  N_10
REMARK    5  A    between atoms: N_10  and  C_11
REMARK                            x       y       z     vdW  Elec       q    Type
REMARK                         _______ _______ _______ _____ _____    ______ ____
ROOT
ATOM      1  N   UNL     1       9.082  -3.345  24.021  0.00  0.00    -0.320 N 
ATOM      2  H   UNL     1       9.927  -3.884  24.225  0.00  0.00    +0.152 HD
ENDROOT
BRANCH   1   3
ATOM      3  C   UNL     1       7.913  -4.067  24.039  0.00  0.00    +0.085 C 
ATOM      4  C   UNL     1       7.361  -4.719  25.072  0.00  0.00    +0.060 C 
ATOM      5  C   UNL     1       6.147  -5.534  25.070  0.00  0.00    +0.010 A 
ATOM      6  C   UNL     1       5.245  -5.896  24.085  0.00  0.00    +0.010 A 
ATOM      7  C   UNL     1       4.178  -6.726  24.444  0.00  0.00    +0.001 A 
ATOM      8  C   UNL     1       4.028  -7.178  25.769  0.00  0.00    +0.002 A 
ATOM      9  C   UNL     1       4.943  -6.810  26.760  0.00  0.00    +0.024 A 
ATOM     10  C   UNL     1       5.990  -5.993  26.384  0.00  0.00    +0.042 A 
ATOM     11  N   UNL     1       7.020  -5.519  27.194  0.00  0.00    -0.281 N 
ATOM     12  H   UNL     1       7.134  -5.712  28.177  0.00  0.00    +0.155 HD
ATOM     13  C   UNL     1       7.911  -4.735  26.471  0.00  0.00    +0.250 C 
ATOM     14  O   UNL     1       8.916  -4.182  26.874  0.00  0.00    -0.270 OA
ENDBRANCH   1   3
BRANCH   1  18
ATOM     15  C   UNL     1       9.602   0.841  23.801  0.00  0.00    +0.105 A 
ATOM     16  C   UNL     1       9.024   0.253  24.926  0.00  0.00    +0.030 A 
ATOM     17  C   UNL     1       8.845  -1.134  24.967  0.00  0.00    +0.025 A 
ATOM     18  C   UNL     1       9.255  -1.956  23.904  0.00  0.00    +0.031 A 
ATOM     19  C   UNL     1       9.899  -1.348  22.816  0.00  0.00    +0.025 A 
ATOM     20  C   UNL     1      10.065   0.043  22.753  0.00  0.00    +0.030 A 
BRANCH  15  21
ATOM     21  S   UNL     1       9.811   2.601  23.740  0.00  0.00    +0.058 S 
ATOM     22  O   UNL     1       9.035   3.198  24.802  0.00  0.00    -0.153 OA
ATOM     23  O   UNL     1      11.223   2.881  23.582  0.00  0.00    -0.153 OA
BRANCH  21  25
ATOM     24  C   UNL     1       7.656   3.207  22.225  0.00  0.00    +0.127 C 
ATOM     25  N   UNL     1       9.101   3.005  22.269  0.00  0.00    -0.193 NA
ATOM     26  H   UNL     1       9.686   3.641  21.729  0.00  0.00    +0.148 HD
ENDBRANCH  21  25
ENDBRANCH  15  21
ENDBRANCH   1  18
TORSDOF 4
ENDMDL
MODEL 5
REMARK VINA RESULT:      -7.2      3.208      4.610
REMARK  Name = 
REMARK  5 active torsions:
REMARK  status: ('A' for Active; 'I' for Inactive)
REMARK    1  A    between atoms: C_1  and  N_2
REMARK    2  A    between atoms: N_2  and  S_3
REMARK    3  A    between atoms: S_3  and  C_6
REMARK    4  A    between atoms: C_9  and  N_10
REMARK    5  A    between atoms: N_10  and  C_11
REMARK                            x       y       z     vdW  Elec       q    Type
REMARK                         _______ _______ _______ _____ _____    ______ ____
ROOT
ATOM      1  N   UNL     1       9.496   0.583  21.776  0.00  0.00    -0.320 N 
ATOM      2  H   UNL     1       9.042   0.746  20.874  0.00  0.00    +0.152 HD
ENDROOT
BRANCH   1   3
ATOM      3  C   UNL     1      10.225   1.640  22.262  0.00  0.00    +0.085 C 
ATOM      4  C   UNL     1       9.774   2.739  22.883  0.00  0.00    +0.060 C 
ATOM      5  C   UNL     1      10.550   3.889  23.345  0.00  0.00    +0.010 A 
ATOM      6  C   UNL     1      11.893   4.216  23.286  0.00  0.00    +0.010 A 
ATOM      7  C   UNL     1      12.295   5.442  23.828  0.00  0.00    +0.001 A 
ATOM      8  C   UNL     1      11.359   6.313  24.416  0.00  0.00    +0.002 A 
ATOM      9  C   UNL     1      10.004   5.977  24.472  0.00  0.00    +0.024 A 
ATOM     10  C   UNL     1       9.627   4.765  23.928  0.00  0.00    +0.042 A 
ATOM     11  N   UNL     1       8.340   4.238  23.859  0.00  0.00    -0.281 N 
ATOM     12  H   UNL     1       7.501   4.680  24.205  0.00  0.00    +0.155 HD
ATOM     13  C   UNL     1       8.334   3.002  23.227  0.00  0.00    +0.250 C 
ATOM     14  O   UNL     1       7.379   2.284  22.998  0.00  0.00    -0.270 OA
ENDBRANCH   1   3
BRANCH   1  18
ATOM     15  C   UNL     1       8.635  -3.043  23.763  0.00  0.00    +0.105 A 
ATOM     16  C   UNL     1       9.939  -2.550  23.714  0.00  0.00    +0.030 A 
ATOM     17  C   UNL     1      10.202  -1.356  23.033  0.00  0.00    +0.025 A 
ATOM     18  C   UNL     1       9.174  -0.628  22.412  0.00  0.00    +0.031 A 
ATOM     19  C   UNL     1       7.862  -1.108  22.538  0.00  0.00    +0.025 A 
ATOM     20  C   UNL     1       7.588  -2.313  23.199  0.00  0.00    +0.030 A 
BRANCH  15  21
ATOM     21  S   UNL     1       8.304  -4.567  24.610  0.00  0.00    +0.058 S 
ATOM     22  O   UNL     1       9.452  -5.434  24.471  0.00  0.00    -0.153 OA
ATOM     23  O   UNL     1       7.746  -4.249  25.906  0.00  0.00    -0.153 OA
BRANCH  21  25
ATOM     24  C   UNL     1       7.337  -5.847  22.434  0.00  0.00    +0.127 C 
ATOM     25  N   UNL     1       7.036  -5.217  23.715  0.00  0.00    -0.193 NA
ATOM     26  H   UNL     1       6.342  -5.664  24.313  0.00  0.00    +0.148 HD
ENDBRANCH  21  25
ENDBRANCH  15  21
ENDBRANCH   1  18
TORSDOF 4
ENDMDL
MODEL 6
REMARK VINA RESULT:      -7.2      3.505      8.124
REMARK  Name = 
REMARK  5 active torsions:
REMARK  status: ('A' for Active; 'I' for Inactive)
REMARK    1  A    between atoms: C_1  and  N_2
REMARK    2  A    between atoms: N_2  and  S_3
REMARK    3  A    between atoms: S_3  and  C_6
REMARK    4  A    between atoms: C_9  and  N_10
REMARK    5  A    between atoms: N_10  and  C_11
REMARK                            x       y       z     vdW  Elec       q    Type
REMARK                         _______ _______ _______ _____ _____    ______ ____
ROOT
ATOM      1  N   UNL     1       9.656  -3.159  24.148  0.00  0.00    -0.320 N 
ATOM      2  H   UNL     1      10.493  -3.651  23.827  0.00  0.00    +0.152 HD
ENDROOT
BRANCH   1   3
ATOM      3  C   UNL     1       8.742  -3.937  24.815  0.00  0.00    +0.085 C 
ATOM      4  C   UNL     1       7.604  -4.463  24.342  0.00  0.00    +0.060 C 
ATOM      5  C   UNL     1       6.605  -5.242  25.074  0.00  0.00    +0.010 A 
ATOM      6  C   UNL     1       6.494  -5.647  26.391  0.00  0.00    +0.010 A 
ATOM      7  C   UNL     1       5.364  -6.386  26.758  0.00  0.00    +0.001 A 
ATOM      8  C   UNL     1       4.372  -6.707  25.812  0.00  0.00    +0.002 A 
ATOM      9  C   UNL     1       4.490  -6.293  24.482  0.00  0.00    +0.024 A 
ATOM     10  C   UNL     1       5.611  -5.563  24.142  0.00  0.00    +0.042 A 
ATOM     11  N   UNL     1       5.924  -5.038  22.890  0.00  0.00    -0.281 N 
ATOM     12  H   UNL     1       5.365  -5.128  22.055  0.00  0.00    +0.155 HD
ATOM     13  C   UNL     1       7.126  -4.342  22.922  0.00  0.00    +0.250 C 
ATOM     14  O   UNL     1       7.676  -3.759  22.007  0.00  0.00    -0.270 OA
ENDBRANCH   1   3
BRANCH   1  18
ATOM     15  C   UNL     1       9.703   1.047  23.759  0.00  0.00    +0.105 A 
ATOM     16  C   UNL     1       9.436   0.448  24.991  0.00  0.00    +0.030 A 
ATOM     17  C   UNL     1       9.408  -0.947  25.090  0.00  0.00    +0.025 A 
ATOM     18  C   UNL     1       9.663  -1.764  23.976  0.00  0.00    +0.031 A 
ATOM     19  C   UNL     1      10.000  -1.138  22.767  0.00  0.00    +0.025 A 
ATOM     20  C   UNL     1      10.011   0.259  22.649  0.00  0.00    +0.030 A 
BRANCH  15  21
ATOM     21  S   UNL     1       9.720   2.816  23.629  0.00  0.00    +0.058 S 
ATOM     22  O   UNL     1       8.940   3.369  24.712  0.00  0.00    -0.153 OA
ATOM     23  O   UNL     1      11.084   3.236  23.384  0.00  0.00    -0.153 OA
BRANCH  21  25
ATOM     24  C   UNL     1       7.461   3.348  22.242  0.00  0.00    +0.127 C 
ATOM     25  N   UNL     1       8.896   3.086  22.187  0.00  0.00    -0.193 NA
ATOM     26  H   UNL     1       9.453   3.631  21.529  0.00  0.00    +0.148 HD
ENDBRANCH  21  25
ENDBRANCH  15  21
ENDBRANCH   1  18
TORSDOF 4
ENDMDL
MODEL 7
REMARK VINA RESULT:      -6.9      1.583      1.839
REMARK  Name = 
REMARK  5 active torsions:
REMARK  status: ('A' for Active; 'I' for Inactive)
REMARK    1  A    between atoms: C_1  and  N_2
REMARK    2  A    between atoms: N_2  and  S_3
REMARK    3  A    between atoms: S_3  and  C_6
REMARK    4  A    between atoms: C_9  and  N_10
REMARK    5  A    between atoms: N_10  and  C_11
REMARK                            x       y       z     vdW  Elec       q    Type
REMARK                         _______ _______ _______ _____ _____    ______ ____
ROOT
ATOM      1  N   UNL     1       7.668  -3.478  22.365  0.00  0.00    -0.320 N 
ATOM      2  H   UNL     1       8.250  -3.984  21.694  0.00  0.00    +0.152 HD
ENDROOT
BRANCH   1   3
ATOM      3  C   UNL     1       7.763  -2.109  22.302  0.00  0.00    +0.085 C 
ATOM      4  C   UNL     1       8.696  -1.320  22.854  0.00  0.00    +0.060 C 
ATOM      5  C   UNL     1       8.759   0.141  22.834  0.00  0.00    +0.010 A 
ATOM      6  C   UNL     1       7.940   1.121  22.304  0.00  0.00    +0.010 A 
ATOM      7  C   UNL     1       8.307   2.458  22.494  0.00  0.00    +0.001 A 
ATOM      8  C   UNL     1       9.477   2.792  23.203  0.00  0.00    +0.002 A 
ATOM      9  C   UNL     1      10.300   1.796  23.736  0.00  0.00    +0.024 A 
ATOM     10  C   UNL     1       9.918   0.485  23.540  0.00  0.00    +0.042 A 
ATOM     11  N   UNL     1      10.573  -0.659  23.993  0.00  0.00    -0.281 N 
ATOM     12  H   UNL     1      11.427  -0.676  24.530  0.00  0.00    +0.155 HD
ATOM     13  C   UNL     1       9.890  -1.811  23.624  0.00  0.00    +0.250 C 
ATOM     14  O   UNL     1      10.186  -2.965  23.868  0.00  0.00    -0.270 OA
ENDBRANCH   1   3
BRANCH   1  18
ATOM     15  C   UNL     1       5.049  -5.788  24.741  0.00  0.00    +0.105 A 
ATOM     16  C   UNL     1       6.268  -5.339  25.253  0.00  0.00    +0.030 A 
ATOM     17  C   UNL     1       7.126  -4.591  24.440  0.00  0.00    +0.025 A 
ATOM     18  C   UNL     1       6.779  -4.263  23.118  0.00  0.00    +0.031 A 
ATOM     19  C   UNL     1       5.518  -4.664  22.653  0.00  0.00    +0.025 A 
ATOM     20  C   UNL     1       4.658  -5.431  23.450  0.00  0.00    +0.030 A 
BRANCH  15  21
ATOM     21  S   UNL     1       3.969  -6.752  25.766  0.00  0.00    +0.058 S 
ATOM     22  O   UNL     1       2.944  -5.887  26.304  0.00  0.00    -0.153 OA
ATOM     23  O   UNL     1       3.639  -7.967  25.052  0.00  0.00    -0.153 OA
BRANCH  21  25
ATOM     24  C   UNL     1       4.663  -6.783  28.378  0.00  0.00    +0.127 C 
ATOM     25  N   UNL     1       4.981  -7.225  27.024  0.00  0.00    -0.193 NA
ATOM     26  H   UNL     1       5.314  -8.181  26.903  0.00  0.00    +0.148 HD
ENDBRANCH  21  25
ENDBRANCH  15  21
ENDBRANCH   1  18
TORSDOF 4
ENDMDL
MODEL 8
REMARK VINA RESULT:      -6.9      4.066      8.499
REMARK  Name = 
REMARK  5 active torsions:
REMARK  status: ('A' for Active; 'I' for Inactive)
REMARK    1  A    between atoms: C_1  and  N_2
REMARK    2  A    between atoms: N_2  and  S_3
REMARK    3  A    between atoms: S_3  and  C_6
REMARK    4  A    between atoms: C_9  and  N_10
REMARK    5  A    between atoms: N_10  and  C_11
REMARK                            x       y       z     vdW  Elec       q    Type
REMARK                         _______ _______ _______ _____ _____    ______ ____
ROOT
ATOM      1  N   UNL     1       9.752  -1.073  21.820  0.00  0.00    -0.320 N 
ATOM      2  H   UNL     1      10.664  -1.440  21.540  0.00  0.00    +0.152 HD
ENDROOT
BRANCH   1   3
ATOM      3  C   UNL     1       8.725  -1.984  21.797  0.00  0.00    +0.085 C 
ATOM      4  C   UNL     1       8.367  -2.851  22.754  0.00  0.00    +0.060 C 
ATOM      5  C   UNL     1       7.309  -3.859  22.700  0.00  0.00    +0.010 A 
ATOM      6  C   UNL     1       6.410  -4.242  21.721  0.00  0.00    +0.010 A 
ATOM      7  C   UNL     1       5.525  -5.286  22.014  0.00  0.00    +0.001 A 
ATOM      8  C   UNL     1       5.551  -5.925  23.268  0.00  0.00    +0.002 A 
ATOM      9  C   UNL     1       6.464  -5.533  24.252  0.00  0.00    +0.024 A 
ATOM     10  C   UNL     1       7.329  -4.504  23.942  0.00  0.00    +0.042 A 
ATOM     11  N   UNL     1       8.323  -3.966  24.757  0.00  0.00    -0.281 N 
ATOM     12  H   UNL     1       8.540  -4.263  25.697  0.00  0.00    +0.155 HD
ATOM     13  C   UNL     1       9.014  -2.952  24.107  0.00  0.00    +0.250 C 
ATOM     14  O   UNL     1       9.940  -2.288  24.532  0.00  0.00    -0.270 OA
ENDBRANCH   1   3
BRANCH   1  18
ATOM     15  C   UNL     1       9.614   2.897  23.256  0.00  0.00    +0.105 A 
ATOM     16  C   UNL     1       8.757   2.478  22.238  0.00  0.00    +0.030 A 
ATOM     17  C   UNL     1       8.835   1.162  21.766  0.00  0.00    +0.025 A 
ATOM     18  C   UNL     1       9.748   0.244  22.311  0.00  0.00    +0.031 A 
ATOM     19  C   UNL     1      10.546   0.670  23.383  0.00  0.00    +0.025 A 
ATOM     20  C   UNL     1      10.493   1.990  23.850  0.00  0.00    +0.030 A 
BRANCH  15  21
ATOM     21  S   UNL     1       9.528   4.570  23.841  0.00  0.00    +0.058 S 
ATOM     22  O   UNL     1       8.816   4.587  25.098  0.00  0.00    -0.153 OA
ATOM     23  O   UNL     1      10.843   5.161  23.705  0.00  0.00    -0.153 OA
BRANCH  21  25
ATOM     24  C   UNL     1       7.969   6.608  22.994  0.00  0.00    +0.127 C 
ATOM     25  N   UNL     1       8.571   5.318  22.677  0.00  0.00    -0.193 NA
ATOM     26  H   UNL     1       8.946   5.186  21.738  0.00  0.00    +0.148 HD
ENDBRANCH  21  25
ENDBRANCH  15  21
ENDBRANCH   1  18
TORSDOF 4
ENDMDL
MODEL 9
REMARK VINA RESULT:      -6.9      2.289      3.045
REMARK  Name = 
REMARK  5 active torsions:
REMARK  status: ('A' for Active; 'I' for Inactive)
REMARK    1  A    between atoms: C_1  and  N_2
REMARK    2  A    between atoms: N_2  and  S_3
REMARK    3  A    between atoms: S_3  and  C_6
REMARK    4  A    between atoms: C_9  and  N_10
REMARK    5  A    between atoms: N_10  and  C_11
REMARK                            x       y       z     vdW  Elec       q    Type
REMARK                         _______ _______ _______ _____ _____    ______ ____
ROOT
ATOM      1  N   UNL     1       7.437  -1.573  26.091  0.00  0.00    -0.320 N 
ATOM      2  H   UNL     1       7.947  -1.899  26.916  0.00  0.00    +0.152 HD
ENDROOT
BRANCH   1   3
ATOM      3  C   UNL     1       7.657  -0.261  25.751  0.00  0.00    +0.085 C 
ATOM      4  C   UNL     1       8.660   0.246  25.020  0.00  0.00    +0.060 C 
ATOM      5  C   UNL     1       8.921   1.652  24.711  0.00  0.00    +0.010 A 
ATOM      6  C   UNL     1       8.290   2.834  25.054  0.00  0.00    +0.010 A 
ATOM      7  C   UNL     1       8.839   4.032  24.584  0.00  0.00    +0.001 A 
ATOM      8  C   UNL     1       9.999   4.031  23.785  0.00  0.00    +0.002 A 
ATOM      9  C   UNL     1      10.632   2.833  23.443  0.00  0.00    +0.024 A 
ATOM     10  C   UNL     1      10.076   1.663  23.920  0.00  0.00    +0.042 A 
ATOM     11  N   UNL     1      10.545   0.366  23.720  0.00  0.00    -0.281 N 
ATOM     12  H   UNL     1      11.364   0.110  23.189  0.00  0.00    +0.155 HD
ATOM     13  C   UNL     1       9.742  -0.566  24.365  0.00  0.00    +0.250 C 
ATOM     14  O   UNL     1       9.878  -1.774  24.397  0.00  0.00    -0.270 OA
ENDBRANCH   1   3
BRANCH   1  18
ATOM     15  C   UNL     1       5.306  -4.608  24.069  0.00  0.00    +0.105 A 
ATOM     16  C   UNL     1       6.128  -4.916  25.154  0.00  0.00    +0.030 A 
ATOM     17  C   UNL     1       6.838  -3.895  25.795  0.00  0.00    +0.025 A 
ATOM     18  C   UNL     1       6.727  -2.557  25.382  0.00  0.00    +0.031 A 
ATOM     19  C   UNL     1       5.839  -2.265  24.337  0.00  0.00    +0.025 A 
ATOM     20  C   UNL     1       5.138  -3.280  23.672  0.00  0.00    +0.030 A 
BRANCH  15  21
ATOM     21  S   UNL     1       4.420  -5.904  23.243  0.00  0.00    +0.058 S 
ATOM     22  O   UNL     1       4.594  -7.132  23.985  0.00  0.00    -0.153 OA
ATOM     23  O   UNL     1       3.106  -5.403  22.901  0.00  0.00    -0.153 OA
BRANCH  21  25
ATOM     24  C   UNL     1       6.694  -6.233  21.818  0.00  0.00    +0.127 C 
ATOM     25  N   UNL     1       5.247  -6.043  21.784  0.00  0.00    -0.193 NA
ATOM     26  H   UNL     1       4.714  -6.574  21.096  0.00  0.00    +0.148 HD
ENDBRANCH  21  25
ENDBRANCH  15  21
ENDBRANCH   1  18
TORSDOF 4
ENDMDL
