MODEL 1
REMARK VINA RESULT:      -7.7      0.000      0.000
REMARK  Name = 
REMARK  6 active torsions:
REMARK  status: ('A' for Active; 'I' for Inactive)
REMARK    1  A    between atoms: C_1  and  C_2
REMARK    2  A    between atoms: C_2  and  C_3
REMARK    3  A    between atoms: C_4  and  C_11
REMARK    4  A    between atoms: C_14  and  N_15
REMARK    5  A    between atoms: N_15  and  C_16
REMARK    6  A    between atoms: C_16  and  C_17
REMARK                            x       y       z     vdW  Elec       q    Type
REMARK                         _______ _______ _______ _____ _____    ______ ____
ROOT
ATOM      1  C   UNL     1       8.337  -3.133  24.572  0.00  0.00    -0.013 A 
ATOM      2  C   UNL     1       7.754  -3.121  23.289  0.00  0.00    +0.010 A 
ATOM      3  C   UNL     1       8.263  -2.341  22.227  0.00  0.00    +0.023 A 
ATOM      4  C   UNL     1       9.373  -1.513  22.401  0.00  0.00    +0.027 A 
ATOM      5  C   UNL     1       9.924  -1.476  23.677  0.00  0.00    +0.023 A 
ATOM      6  C   UNL     1       9.455  -2.302  24.706  0.00  0.00    +0.010 A 
ENDROOT
BRANCH   1  18
ATOM      7  C   UNL     1       6.684  -3.604  26.503  0.00  0.00    +0.056 A 
ATOM      8  N   UNL     1       6.192  -4.402  27.486  0.00  0.00    -0.219 NA
ATOM      9  C   UNL     1       6.786  -5.565  27.710  0.00  0.00    +0.214 A 
ATOM     10  N   UNL     1       6.247  -6.375  28.686  0.00  0.00    -0.327 N 
ATOM     11  H   UNL     1       5.273  -6.133  28.819  0.00  0.00    +0.145 HD
ATOM     12  H   UNL     1       6.460  -7.340  28.480  0.00  0.00    +0.145 HD
ATOM     13  N   UNL     1       7.836  -6.006  27.033  0.00  0.00    -0.199 NA
ATOM     14  C   UNL     1       8.329  -5.200  26.075  0.00  0.00    +0.129 A 
ATOM     15  N   UNL     1       9.474  -5.741  25.477  0.00  0.00    -0.343 N 
ATOM     16  H   UNL     1       9.669  -6.611  25.971  0.00  0.00    +0.144 HD
ATOM     17  H   UNL     1      10.251  -5.093  25.543  0.00  0.00    +0.144 HD
ATOM     18  C   UNL     1       7.788  -3.954  25.705  0.00  0.00    +0.043 A 
BRANCH   7  20
ATOM     19  C   UNL     1       4.749  -2.380  25.491  0.00  0.00    +0.010 C 
ATOM     20  C   UNL     1       5.940  -2.293  26.446  0.00  0.00    +0.053 C 
ENDBRANCH   7  20
ENDBRANCH   1  18
BRANCH   4  21
ATOM     21  N   UNL     1       9.794  -0.666  21.366  0.00  0.00    -0.340 N 
ATOM     22  H   UNL     1      10.770  -0.399  21.466  0.00  0.00    +0.146 HD
BRANCH  21  23
ATOM     23  C   UNL     1       8.931   0.464  21.035  0.00  0.00    +0.137 C 
BRANCH  23  24
ATOM     24  C   UNL     1       9.110   1.591  22.017  0.00  0.00    -0.025 A 
ATOM     25  C   UNL     1      10.393   2.050  22.348  0.00  0.00    +0.043 A 
ATOM     26  C   UNL     1      10.550   3.047  23.308  0.00  0.00    +0.126 A 
ATOM     27  F   UNL     1      11.784   3.465  23.622  0.00  0.00    -0.205 F 
ATOM     28  C   UNL     1       9.455   3.603  23.954  0.00  0.00    +0.076 A 
ATOM     29  C   UNL     1       8.185   3.149  23.626  0.00  0.00    +0.126 A 
ATOM     30  F   UNL     1       7.120   3.667  24.249  0.00  0.00    -0.205 F 
ATOM     31  C   UNL     1       8.002   2.155  22.668  0.00  0.00    +0.043 A 
ENDBRANCH  23  24
ENDBRANCH  21  23
ENDBRANCH   4  21
TORSDOF 5
ENDMDL
MODEL 2
REMARK VINA RESULT:      -7.6      1.485      1.684
REMARK  Name = 
REMARK  6 active torsions:
REMARK  status: ('A' for Active; 'I' for Inactive)
REMARK    1  A    between atoms: C_1  and  C_2
REMARK    2  A    between atoms: C_2  and  C_3
REMARK    3  A    between atoms: C_4  and  C_11
REMARK    4  A    between atoms: C_14  and  N_15
REMARK    5  A    between atoms: N_15  and  C_16
REMARK    6  A    between atoms: C_16  and  C_17
REMARK                            x       y       z     vdW  Elec       q    Type
REMARK                         _______ _______ _______ _____ _____    ______ ____
ROOT
ATOM      1  C   UNL     1       8.251  -2.946  25.039  0.00  0.00    -0.013 A 
ATOM      2  C   UNL     1       8.882  -3.102  23.789  0.00  0.00    +0.010 A 
ATOM      3  C   UNL     1       9.695  -2.099  23.214  0.00  0.00    +0.023 A 
ATOM      4  C   UNL     1       9.900  -0.876  23.854  0.00  0.00    +0.027 A 
ATOM      5  C   UNL     1       9.239  -0.690  25.063  0.00  0.00    +0.023 A 
ATOM      6  C   UNL     1       8.490  -1.714  25.658  0.00  0.00    +0.010 A 
ENDROOT
BRANCH   1  18
ATOM      7  C   UNL     1       5.992  -4.139  25.436  0.00  0.00    +0.056 A 
ATOM      8  N   UNL     1       5.250  -5.147  25.965  0.00  0.00    -0.219 NA
ATOM      9  C   UNL     1       5.860  -6.047  26.722  0.00  0.00    +0.214 A 
ATOM     10  N   UNL     1       5.095  -7.082  27.217  0.00  0.00    -0.327 N 
ATOM     11  H   UNL     1       4.281  -7.205  26.628  0.00  0.00    +0.145 HD
ATOM     12  H   UNL     1       5.680  -7.889  27.374  0.00  0.00    +0.145 HD
ATOM     13  N   UNL     1       7.155  -6.032  26.999  0.00  0.00    -0.199 NA
ATOM     14  C   UNL     1       7.878  -5.019  26.487  0.00  0.00    +0.129 A 
ATOM     15  N   UNL     1       9.215  -5.071  26.901  0.00  0.00    -0.343 N 
ATOM     16  H   UNL     1       9.284  -5.862  27.540  0.00  0.00    +0.144 HD
ATOM     17  H   UNL     1       9.484  -4.204  27.351  0.00  0.00    +0.144 HD
ATOM     18  C   UNL     1       7.377  -4.009  25.644  0.00  0.00    +0.043 A 
BRANCH   7  20
ATOM     19  C   UNL     1       5.109  -3.497  23.183  0.00  0.00    +0.010 C 
ATOM     20  C   UNL     1       5.123  -3.168  24.676  0.00  0.00    +0.053 C 
ENDBRANCH   7  20
ENDBRANCH   1  18
BRANCH   4  21
ATOM     21  N   UNL     1      10.619   0.146  23.217  0.00  0.00    -0.340 N 
ATOM     22  H   UNL     1      10.974   0.831  23.879  0.00  0.00    +0.146 HD
BRANCH  21  23
ATOM     23  C   UNL     1      10.010   0.759  22.042  0.00  0.00    +0.137 C 
BRANCH  23  24
ATOM     24  C   UNL     1       9.274   2.021  22.408  0.00  0.00    -0.025 A 
ATOM     25  C   UNL     1       9.827   2.929  23.322  0.00  0.00    +0.043 A 
ATOM     26  C   UNL     1       9.108   4.059  23.704  0.00  0.00    +0.126 A 
ATOM     27  F   UNL     1       9.647   4.909  24.589  0.00  0.00    -0.205 F 
ATOM     28  C   UNL     1       7.842   4.311  23.197  0.00  0.00    +0.076 A 
ATOM     29  C   UNL     1       7.294   3.413  22.292  0.00  0.00    +0.126 A 
ATOM     30  F   UNL     1       6.068   3.637  21.803  0.00  0.00    -0.205 F 
ATOM     31  C   UNL     1       7.994   2.277  21.892  0.00  0.00    +0.043 A 
ENDBRANCH  23  24
ENDBRANCH  21  23
ENDBRANCH   4  21
TORSDOF 5
ENDMDL
MODEL 3
REMARK VINA RESULT:      -7.5      1.687      2.645
REMARK  Name = 
REMARK  6 active torsions:
REMARK  status: ('A' for Active; 'I' for Inactive)
REMARK    1  A    between atoms: C_1  and  C_2
REMARK    2  A    between atoms: C_2  and  C_3
REMARK    3  A    between atoms: C_4  and  C_11
REMARK    4  A    between atoms: C_14  and  N_15
REMARK    5  A    between atoms: N_15  and  C_16
REMARK    6  A    between atoms: C_16  and  C_17
REMARK                            x       y       z     vdW  Elec       q    Type
REMARK                         _______ _______ _______ _____ _____    ______ ____
ROOT
ATOM      1  C   UNL     1       8.512  -2.486  25.284  0.00  0.00    -0.013 A 
ATOM      2  C   UNL     1       9.234  -2.508  24.074  0.00  0.00    +0.010 A 
ATOM      3  C   UNL     1      10.043  -1.432  23.648  0.00  0.00    +0.023 A 
ATOM      4  C   UNL     1      10.155  -0.264  24.404  0.00  0.00    +0.027 A 
ATOM      5  C   UNL     1       9.406  -0.209  25.574  0.00  0.00    +0.023 A 
ATOM      6  C   UNL     1       8.659  -1.306  26.023  0.00  0.00    +0.010 A 
ENDROOT
BRANCH   1  18
ATOM      7  C   UNL     1       6.261  -3.740  25.488  0.00  0.00    +0.056 A 
ATOM      8  N   UNL     1       5.523  -4.815  25.869  0.00  0.00    -0.219 NA
ATOM      9  C   UNL     1       6.132  -5.802  26.509  0.00  0.00    +0.214 A 
ATOM     10  N   UNL     1       5.371  -6.900  26.853  0.00  0.00    -0.327 N 
ATOM     11  H   UNL     1       4.567  -6.951  26.241  0.00  0.00    +0.145 HD
ATOM     12  H   UNL     1       5.962  -7.715  26.910  0.00  0.00    +0.145 HD
ATOM     13  N   UNL     1       7.423  -5.812  26.805  0.00  0.00    -0.199 NA
ATOM     14  C   UNL     1       8.142  -4.735  26.441  0.00  0.00    +0.129 A 
ATOM     15  N   UNL     1       9.474  -4.829  26.865  0.00  0.00    -0.343 N 
ATOM     16  H   UNL     1       9.543  -5.696  27.395  0.00  0.00    +0.144 HD
ATOM     17  H   UNL     1       9.727  -4.026  27.429  0.00  0.00    +0.144 HD
ATOM     18  C   UNL     1       7.641  -3.626  25.732  0.00  0.00    +0.043 A 
BRANCH   7  20
ATOM     19  C   UNL     1       5.465  -2.762  23.325  0.00  0.00    +0.010 C 
ATOM     20  C   UNL     1       5.391  -2.685  24.850  0.00  0.00    +0.053 C 
ENDBRANCH   7  20
ENDBRANCH   1  18
BRANCH   4  21
ATOM     21  N   UNL     1      10.875   0.833  23.911  0.00  0.00    -0.340 N 
ATOM     22  H   UNL     1      11.379   1.320  24.648  0.00  0.00    +0.146 HD
BRANCH  21  23
ATOM     23  C   UNL     1      10.174   1.742  23.011  0.00  0.00    +0.137 C 
BRANCH  23  24
ATOM     24  C   UNL     1      10.350   3.175  23.440  0.00  0.00    -0.025 A 
ATOM     25  C   UNL     1       9.267   3.904  23.950  0.00  0.00    +0.043 A 
ATOM     26  C   UNL     1       9.425   5.248  24.280  0.00  0.00    +0.126 A 
ATOM     27  F   UNL     1       8.375   5.933  24.754  0.00  0.00    -0.205 F 
ATOM     28  C   UNL     1      10.643   5.891  24.114  0.00  0.00    +0.076 A 
ATOM     29  C   UNL     1      11.715   5.170  23.609  0.00  0.00    +0.126 A 
ATOM     30  F   UNL     1      12.894   5.780  23.431  0.00  0.00    -0.205 F 
ATOM     31  C   UNL     1      11.583   3.825  23.274  0.00  0.00    +0.043 A 
ENDBRANCH  23  24
ENDBRANCH  21  23
ENDBRANCH   4  21
TORSDOF 5
ENDMDL
MODEL 4
REMARK VINA RESULT:      -7.5      0.511      1.911
REMARK  Name = 
REMARK  6 active torsions:
REMARK  status: ('A' for Active; 'I' for Inactive)
REMARK    1  A    between atoms: C_1  and  C_2
REMARK    2  A    between atoms: C_2  and  C_3
REMARK    3  A    between atoms: C_4  and  C_11
REMARK    4  A    between atoms: C_14  and  N_15
REMARK    5  A    between atoms: N_15  and  C_16
REMARK    6  A    between atoms: C_16  and  C_17
REMARK                            x       y       z     vdW  Elec       q    Type
REMARK                         _______ _______ _______ _____ _____    ______ ____
ROOT
ATOM      1  C   UNL     1       8.032  -3.138  24.926  0.00  0.00    -0.013 A 
ATOM      2  C   UNL     1       9.060  -2.186  25.079  0.00  0.00    +0.010 A 
ATOM      3  C   UNL     1       9.614  -1.478  23.990  0.00  0.00    +0.023 A 
ATOM      4  C   UNL     1       9.179  -1.702  22.682  0.00  0.00    +0.027 A 
ATOM      5  C   UNL     1       8.202  -2.676  22.512  0.00  0.00    +0.023 A 
ATOM      6  C   UNL     1       7.612  -3.326  23.604  0.00  0.00    +0.010 A 
ENDROOT
BRANCH   1  18
ATOM      7  C   UNL     1       6.281  -3.552  26.781  0.00  0.00    +0.056 A 
ATOM      8  N   UNL     1       5.766  -4.300  27.792  0.00  0.00    -0.219 NA
ATOM      9  C   UNL     1       6.402  -5.407  28.144  0.00  0.00    +0.214 A 
ATOM     10  N   UNL     1       5.841  -6.170  29.146  0.00  0.00    -0.327 N 
ATOM     11  H   UNL     1       4.850  -5.973  29.198  0.00  0.00    +0.145 HD
ATOM     12  H   UNL     1       6.116  -7.134  29.031  0.00  0.00    +0.145 HD
ATOM     13  N   UNL     1       7.516  -5.839  27.572  0.00  0.00    -0.199 NA
ATOM     14  C   UNL     1       8.030  -5.082  26.585  0.00  0.00    +0.129 A 
ATOM     15  N   UNL     1       9.239  -5.601  26.105  0.00  0.00    -0.343 N 
ATOM     16  H   UNL     1       9.445  -6.418  26.677  0.00  0.00    +0.144 HD
ATOM     17  H   UNL     1       9.976  -4.907  26.167  0.00  0.00    +0.144 HD
ATOM     18  C   UNL     1       7.452  -3.900  26.084  0.00  0.00    +0.043 A 
BRANCH   7  20
ATOM     19  C   UNL     1       4.433  -2.484  25.472  0.00  0.00    +0.010 C 
ATOM     20  C   UNL     1       5.476  -2.293  26.574  0.00  0.00    +0.053 C 
ENDBRANCH   7  20
ENDBRANCH   1  18
BRANCH   4  21
ATOM     21  N   UNL     1       9.817  -1.069  21.606  0.00  0.00    -0.340 N 
ATOM     22  H   UNL     1      10.798  -0.885  21.799  0.00  0.00    +0.146 HD
BRANCH  21  23
ATOM     23  C   UNL     1       9.136   0.073  21.004  0.00  0.00    +0.137 C 
BRANCH  23  24
ATOM     24  C   UNL     1       9.161   1.266  21.924  0.00  0.00    -0.025 A 
ATOM     25  C   UNL     1       7.973   1.930  22.260  0.00  0.00    +0.043 A 
ATOM     26  C   UNL     1       8.014   3.072  23.056  0.00  0.00    +0.126 A 
ATOM     27  F   UNL     1       6.870   3.702  23.357  0.00  0.00    -0.205 F 
ATOM     28  C   UNL     1       9.217   3.576  23.530  0.00  0.00    +0.076 A 
ATOM     29  C   UNL     1      10.393   2.918  23.197  0.00  0.00    +0.126 A 
ATOM     30  F   UNL     1      11.563   3.399  23.637  0.00  0.00    -0.205 F 
ATOM     31  C   UNL     1      10.378   1.773  22.405  0.00  0.00    +0.043 A 
ENDBRANCH  23  24
ENDBRANCH  21  23
ENDBRANCH   4  21
TORSDOF 5
ENDMDL
MODEL 5
REMARK VINA RESULT:      -7.4      2.675      3.538
REMARK  Name = 
REMARK  6 active torsions:
REMARK  status: ('A' for Active; 'I' for Inactive)
REMARK    1  A    between atoms: C_1  and  C_2
REMARK    2  A    between atoms: C_2  and  C_3
REMARK    3  A    between atoms: C_4  and  C_11
REMARK    4  A    between atoms: C_14  and  N_15
REMARK    5  A    between atoms: N_15  and  C_16
REMARK    6  A    between atoms: C_16  and  C_17
REMARK                            x       y       z     vdW  Elec       q    Type
REMARK                         _______ _______ _______ _____ _____    ______ ____
ROOT
ATOM      1  C   UNL     1       7.347  -2.801  24.397  0.00  0.00    -0.013 A 
ATOM      2  C   UNL     1       7.046  -1.713  25.240  0.00  0.00    +0.010 A 
ATOM      3  C   UNL     1       7.989  -0.711  25.558  0.00  0.00    +0.023 A 
ATOM      4  C   UNL     1       9.294  -0.758  25.065  0.00  0.00    +0.027 A 
ATOM      5  C   UNL     1       9.618  -1.855  24.274  0.00  0.00    +0.023 A 
ATOM      6  C   UNL     1       8.659  -2.809  23.909  0.00  0.00    +0.010 A 
ENDROOT
BRANCH   1  18
ATOM      7  C   UNL     1       6.133  -5.044  24.817  0.00  0.00    +0.056 A 
ATOM      8  N   UNL     1       5.181  -5.963  24.508  0.00  0.00    -0.219 NA
ATOM      9  C   UNL     1       4.422  -5.750  23.444  0.00  0.00    +0.214 A 
ATOM     10  N   UNL     1       3.437  -6.677  23.171  0.00  0.00    -0.327 N 
ATOM     11  H   UNL     1       3.200  -7.169  24.023  0.00  0.00    +0.145 HD
ATOM     12  H   UNL     1       2.685  -6.232  22.669  0.00  0.00    +0.145 HD
ATOM     13  N   UNL     1       4.527  -4.693  22.654  0.00  0.00    -0.199 NA
ATOM     14  C   UNL     1       5.486  -3.798  22.956  0.00  0.00    +0.129 A 
ATOM     15  N   UNL     1       5.546  -2.761  22.015  0.00  0.00    -0.343 N 
ATOM     16  H   UNL     1       4.857  -2.986  21.299  0.00  0.00    +0.144 HD
ATOM     17  H   UNL     1       6.479  -2.687  21.625  0.00  0.00    +0.144 HD
ATOM     18  C   UNL     1       6.346  -3.873  24.067  0.00  0.00    +0.043 A 
BRANCH   7  20
ATOM     19  C   UNL     1       6.340  -4.986  27.311  0.00  0.00    +0.010 C 
ATOM     20  C   UNL     1       6.951  -5.489  26.003  0.00  0.00    +0.053 C 
ENDBRANCH   7  20
ENDBRANCH   1  18
BRANCH   4  21
ATOM     21  N   UNL     1      10.244   0.185  25.481  0.00  0.00    -0.340 N 
ATOM     22  H   UNL     1       9.919   0.727  26.278  0.00  0.00    +0.146 HD
BRANCH  21  23
ATOM     23  C   UNL     1      10.860   1.013  24.449  0.00  0.00    +0.137 C 
BRANCH  23  24
ATOM     24  C   UNL     1       9.824   1.812  23.702  0.00  0.00    -0.025 A 
ATOM     25  C   UNL     1       9.234   2.940  24.290  0.00  0.00    +0.043 A 
ATOM     26  C   UNL     1       8.229   3.630  23.618  0.00  0.00    +0.126 A 
ATOM     27  F   UNL     1       7.667   4.698  24.201  0.00  0.00    -0.205 F 
ATOM     28  C   UNL     1       7.790   3.225  22.366  0.00  0.00    +0.076 A 
ATOM     29  C   UNL     1       8.375   2.109  21.784  0.00  0.00    +0.126 A 
ATOM     30  F   UNL     1       7.953   1.697  20.581  0.00  0.00    -0.205 F 
ATOM     31  C   UNL     1       9.383   1.402  22.434  0.00  0.00    +0.043 A 
ENDBRANCH  23  24
ENDBRANCH  21  23
ENDBRANCH   4  21
TORSDOF 5
ENDMDL
MODEL 6
REMARK VINA RESULT:      -7.3      1.995      2.641
REMARK  Name = 
REMARK  6 active torsions:
REMARK  status: ('A' for Active; 'I' for Inactive)
REMARK    1  A    between atoms: C_1  and  C_2
REMARK    2  A    between atoms: C_2  and  C_3
REMARK    3  A    between atoms: C_4  and  C_11
REMARK    4  A    between atoms: C_14  and  N_15
REMARK    5  A    between atoms: N_15  and  C_16
REMARK    6  A    between atoms: C_16  and  C_17
REMARK                            x       y       z     vdW  Elec       q    Type
REMARK                         _______ _______ _______ _____ _____    ______ ____
ROOT
ATOM      1  C   UNL     1       7.344  -3.623  24.194  0.00  0.00    -0.013 A 
ATOM      2  C   UNL     1       8.739  -3.717  24.368  0.00  0.00    +0.010 A 
ATOM      3  C   UNL     1       9.637  -2.745  23.874  0.00  0.00    +0.023 A 
ATOM      4  C   UNL     1       9.184  -1.635  23.159  0.00  0.00    +0.027 A 
ATOM      5  C   UNL     1       7.814  -1.559  22.935  0.00  0.00    +0.023 A 
ATOM      6  C   UNL     1       6.925  -2.491  23.485  0.00  0.00    +0.010 A 
ENDROOT
BRANCH   1  18
ATOM      7  C   UNL     1       5.692  -5.591  23.915  0.00  0.00    +0.056 A 
ATOM      8  N   UNL     1       4.876  -6.548  24.430  0.00  0.00    -0.219 NA
ATOM      9  C   UNL     1       4.724  -6.605  25.745  0.00  0.00    +0.214 A 
ATOM     10  N   UNL     1       3.921  -7.607  26.247  0.00  0.00    -0.327 N 
ATOM     11  H   UNL     1       3.877  -8.365  25.577  0.00  0.00    +0.145 HD
ATOM     12  H   UNL     1       4.214  -7.836  27.185  0.00  0.00    +0.145 HD
ATOM     13  N   UNL     1       5.318  -5.786  26.598  0.00  0.00    -0.199 NA
ATOM     14  C   UNL     1       6.109  -4.829  26.079  0.00  0.00    +0.129 A 
ATOM     15  N   UNL     1       6.627  -3.985  27.070  0.00  0.00    -0.343 N 
ATOM     16  H   UNL     1       6.221  -4.298  27.950  0.00  0.00    +0.144 HD
ATOM     17  H   UNL     1       6.393  -3.018  26.873  0.00  0.00    +0.144 HD
ATOM     18  C   UNL     1       6.389  -4.664  24.709  0.00  0.00    +0.043 A 
BRANCH   7  20
ATOM     19  C   UNL     1       7.006  -6.151  21.859  0.00  0.00    +0.010 C 
ATOM     20  C   UNL     1       5.680  -5.624  22.407  0.00  0.00    +0.053 C 
ENDBRANCH   7  20
ENDBRANCH   1  18
BRANCH   4  21
ATOM     21  N   UNL     1      10.099  -0.741  22.585  0.00  0.00    -0.340 N 
ATOM     22  H   UNL     1      10.600  -0.203  23.288  0.00  0.00    +0.146 HD
BRANCH  21  23
ATOM     23  C   UNL     1       9.623   0.083  21.478  0.00  0.00    +0.137 C 
BRANCH  23  24
ATOM     24  C   UNL     1       9.137   1.422  21.968  0.00  0.00    -0.025 A 
ATOM     25  C   UNL     1       9.928   2.195  22.829  0.00  0.00    +0.043 A 
ATOM     26  C   UNL     1       9.439   3.400  23.330  0.00  0.00    +0.126 A 
ATOM     27  F   UNL     1      10.203   4.119  24.163  0.00  0.00    -0.205 F 
ATOM     28  C   UNL     1       8.175   3.859  22.992  0.00  0.00    +0.076 A 
ATOM     29  C   UNL     1       7.393   3.094  22.138  0.00  0.00    +0.126 A 
ATOM     30  F   UNL     1       6.165   3.518  21.814  0.00  0.00    -0.205 F 
ATOM     31  C   UNL     1       7.858   1.887  21.624  0.00  0.00    +0.043 A 
ENDBRANCH  23  24
ENDBRANCH  21  23
ENDBRANCH   4  21
TORSDOF 5
ENDMDL
MODEL 7
REMARK VINA RESULT:      -7.1      2.319      2.551
REMARK  Name = 
REMARK  6 active torsions:
REMARK  status: ('A' for Active; 'I' for Inactive)
REMARK    1  A    between atoms: C_1  and  C_2
REMARK    2  A    between atoms: C_2  and  C_3
REMARK    3  A    between atoms: C_4  and  C_11
REMARK    4  A    between atoms: C_14  and  N_15
REMARK    5  A    between atoms: N_15  and  C_16
REMARK    6  A    between atoms: C_16  and  C_17
REMARK                            x       y       z     vdW  Elec       q    Type
REMARK                         _______ _______ _______ _____ _____    ______ ____
ROOT
ATOM      1  C   UNL     1       7.054  -4.201  23.917  0.00  0.00    -0.013 A 
ATOM      2  C   UNL     1       6.699  -3.142  23.058  0.00  0.00    +0.010 A 
ATOM      3  C   UNL     1       7.632  -2.184  22.602  0.00  0.00    +0.023 A 
ATOM      4  C   UNL     1       8.969  -2.225  23.001  0.00  0.00    +0.027 A 
ATOM      5  C   UNL     1       9.319  -3.235  23.890  0.00  0.00    +0.023 A 
ATOM      6  C   UNL     1       8.404  -4.219  24.285  0.00  0.00    +0.010 A 
ENDROOT
BRANCH   1  18
ATOM      7  C   UNL     1       5.530  -5.264  25.713  0.00  0.00    +0.056 A 
ATOM      8  N   UNL     1       4.593  -6.168  26.102  0.00  0.00    -0.219 NA
ATOM      9  C   UNL     1       4.162  -7.051  25.213  0.00  0.00    +0.214 A 
ATOM     10  N   UNL     1       3.184  -7.934  25.618  0.00  0.00    -0.327 N 
ATOM     11  H   UNL     1       2.681  -7.536  26.402  0.00  0.00    +0.145 HD
ATOM     12  H   UNL     1       2.640  -8.226  24.820  0.00  0.00    +0.145 HD
ATOM     13  N   UNL     1       4.585  -7.111  23.959  0.00  0.00    -0.199 NA
ATOM     14  C   UNL     1       5.527  -6.225  23.589  0.00  0.00    +0.129 A 
ATOM     15  N   UNL     1       5.944  -6.428  22.267  0.00  0.00    -0.343 N 
ATOM     16  H   UNL     1       5.442  -7.250  21.934  0.00  0.00    +0.144 HD
ATOM     17  H   UNL     1       6.948  -6.563  22.225  0.00  0.00    +0.144 HD
ATOM     18  C   UNL     1       6.058  -5.213  24.411  0.00  0.00    +0.043 A 
BRANCH   7  20
ATOM     19  C   UNL     1       5.991  -5.199  28.173  0.00  0.00    +0.010 C 
ATOM     20  C   UNL     1       5.959  -4.398  26.871  0.00  0.00    +0.053 C 
ENDBRANCH   7  20
ENDBRANCH   1  18
BRANCH   4  21
ATOM     21  N   UNL     1       9.852  -1.203  22.625  0.00  0.00    -0.340 N 
ATOM     22  H   UNL     1      10.167  -0.659  23.425  0.00  0.00    +0.146 HD
BRANCH  21  23
ATOM     23  C   UNL     1       9.467  -0.371  21.491  0.00  0.00    +0.137 C 
BRANCH  23  24
ATOM     24  C   UNL     1       9.139   1.032  21.933  0.00  0.00    -0.025 A 
ATOM     25  C   UNL     1      10.049   1.766  22.705  0.00  0.00    +0.043 A 
ATOM     26  C   UNL     1       9.707   3.036  23.165  0.00  0.00    +0.126 A 
ATOM     27  F   UNL     1      10.584   3.719  23.912  0.00  0.00    -0.205 F 
ATOM     28  C   UNL     1       8.473   3.598  22.874  0.00  0.00    +0.076 A 
ATOM     29  C   UNL     1       7.572   2.870  22.109  0.00  0.00    +0.126 A 
ATOM     30  F   UNL     1       6.371   3.394  21.831  0.00  0.00    -0.205 F 
ATOM     31  C   UNL     1       7.890   1.600  21.636  0.00  0.00    +0.043 A 
ENDBRANCH  23  24
ENDBRANCH  21  23
ENDBRANCH   4  21
TORSDOF 5
ENDMDL
MODEL 8
REMARK VINA RESULT:      -7.1      4.081      8.126
REMARK  Name = 
REMARK  6 active torsions:
REMARK  status: ('A' for Active; 'I' for Inactive)
REMARK    1  A    between atoms: C_1  and  C_2
REMARK    2  A    between atoms: C_2  and  C_3
REMARK    3  A    between atoms: C_4  and  C_11
REMARK    4  A    between atoms: C_14  and  N_15
REMARK    5  A    between atoms: N_15  and  C_16
REMARK    6  A    between atoms: C_16  and  C_17
REMARK                            x       y       z     vdW  Elec       q    Type
REMARK                         _______ _______ _______ _____ _____    ______ ____
ROOT
ATOM      1  C   UNL     1       8.170   0.087  25.048  0.00  0.00    -0.013 A 
ATOM      2  C   UNL     1       8.862  -0.734  25.961  0.00  0.00    +0.010 A 
ATOM      3  C   UNL     1       8.363  -1.983  26.393  0.00  0.00    +0.023 A 
ATOM      4  C   UNL     1       7.132  -2.466  25.949  0.00  0.00    +0.027 A 
ATOM      5  C   UNL     1       6.415  -1.641  25.089  0.00  0.00    +0.023 A 
ATOM      6  C   UNL     1       6.946  -0.435  24.614  0.00  0.00    +0.010 A 
ENDROOT
BRANCH   1  18
ATOM      7  C   UNL     1       9.549   1.630  23.500  0.00  0.00    +0.056 A 
ATOM      8  N   UNL     1       9.959   2.862  23.098  0.00  0.00    -0.219 NA
ATOM      9  C   UNL     1       9.541   3.918  23.780  0.00  0.00    +0.214 A 
ATOM     10  N   UNL     1       9.939   5.160  23.333  0.00  0.00    -0.327 N 
ATOM     11  H   UNL     1      10.171   5.100  22.350  0.00  0.00    +0.145 HD
ATOM     12  H   UNL     1       9.257   5.852  23.606  0.00  0.00    +0.145 HD
ATOM     13  N   UNL     1       8.743   3.854  24.835  0.00  0.00    -0.199 NA
ATOM     14  C   UNL     1       8.357   2.629  25.237  0.00  0.00    +0.129 A 
ATOM     15  N   UNL     1       7.574   2.683  26.397  0.00  0.00    -0.343 N 
ATOM     16  H   UNL     1       7.536   3.664  26.669  0.00  0.00    +0.144 HD
ATOM     17  H   UNL     1       7.978   2.109  27.128  0.00  0.00    +0.144 HD
ATOM     18  C   UNL     1       8.695   1.422  24.598  0.00  0.00    +0.043 A 
BRANCH   7  20
ATOM     19  C   UNL     1       9.336   0.237  21.430  0.00  0.00    +0.010 C 
ATOM     20  C   UNL     1      10.186   0.548  22.663  0.00  0.00    +0.053 C 
ENDBRANCH   7  20
ENDBRANCH   1  18
BRANCH   4  21
ATOM     21  N   UNL     1       6.606  -3.656  26.474  0.00  0.00    -0.340 N 
ATOM     22  H   UNL     1       6.596  -3.651  27.491  0.00  0.00    +0.146 HD
BRANCH  21  23
ATOM     23  C   UNL     1       7.106  -4.909  25.920  0.00  0.00    +0.137 C 
BRANCH  23  24
ATOM     24  C   UNL     1       6.538  -5.162  24.548  0.00  0.00    -0.025 A 
ATOM     25  C   UNL     1       5.155  -5.305  24.366  0.00  0.00    +0.043 A 
ATOM     26  C   UNL     1       4.647  -5.607  23.105  0.00  0.00    +0.126 A 
ATOM     27  F   UNL     1       3.324  -5.752  22.951  0.00  0.00    -0.205 F 
ATOM     28  C   UNL     1       5.485  -5.771  22.011  0.00  0.00    +0.076 A 
ATOM     29  C   UNL     1       6.853  -5.629  22.192  0.00  0.00    +0.126 A 
ATOM     30  F   UNL     1       7.676  -5.798  21.150  0.00  0.00    -0.205 F 
ATOM     31  C   UNL     1       7.386  -5.327  23.443  0.00  0.00    +0.043 A 
ENDBRANCH  23  24
ENDBRANCH  21  23
ENDBRANCH   4  21
TORSDOF 5
ENDMDL
MODEL 9
REMARK VINA RESULT:      -6.9      3.855      8.068
REMARK  Name = 
REMARK  6 active torsions:
REMARK  status: ('A' for Active; 'I' for Inactive)
REMARK    1  A    between atoms: C_1  and  C_2
REMARK    2  A    between atoms: C_2  and  C_3
REMARK    3  A    between atoms: C_4  and  C_11
REMARK    4  A    between atoms: C_14  and  N_15
REMARK    5  A    between atoms: N_15  and  C_16
REMARK    6  A    between atoms: C_16  and  C_17
REMARK                            x       y       z     vdW  Elec       q    Type
REMARK                         _______ _______ _______ _____ _____    ______ ____
ROOT
ATOM      1  C   UNL     1       8.749   0.368  23.481  0.00  0.00    -0.013 A 
ATOM      2  C   UNL     1       9.275  -0.541  22.542  0.00  0.00    +0.010 A 
ATOM      3  C   UNL     1       9.584  -1.880  22.866  0.00  0.00    +0.023 A 
ATOM      4  C   UNL     1       9.403  -2.375  24.158  0.00  0.00    +0.027 A 
ATOM      5  C   UNL     1       8.934  -1.473  25.107  0.00  0.00    +0.023 A 
ATOM      6  C   UNL     1       8.567  -0.166  24.763  0.00  0.00    +0.010 A 
ENDROOT
BRANCH   1  18
ATOM      7  C   UNL     1       9.339   2.868  23.199  0.00  0.00    +0.056 A 
ATOM      8  N   UNL     1       9.020   4.137  22.831  0.00  0.00    -0.219 NA
ATOM      9  C   UNL     1       7.790   4.378  22.403  0.00  0.00    +0.214 A 
ATOM     10  N   UNL     1       7.499   5.664  22.000  0.00  0.00    -0.327 N 
ATOM     11  H   UNL     1       8.358   6.132  21.738  0.00  0.00    +0.145 HD
ATOM     12  H   UNL     1       6.756   5.644  21.318  0.00  0.00    +0.145 HD
ATOM     13  N   UNL     1       6.842   3.458  22.307  0.00  0.00    -0.199 NA
ATOM     14  C   UNL     1       7.161   2.209  22.692  0.00  0.00    +0.129 A 
ATOM     15  N   UNL     1       6.064   1.342  22.610  0.00  0.00    -0.343 N 
ATOM     16  H   UNL     1       5.273   1.911  22.314  0.00  0.00    +0.144 HD
ATOM     17  H   UNL     1       5.891   0.899  23.505  0.00  0.00    +0.144 HD
ATOM     18  C   UNL     1       8.431   1.797  23.139  0.00  0.00    +0.043 A 
BRANCH   7  20
ATOM     19  C   UNL     1      11.541   4.050  23.360  0.00  0.00    +0.010 C 
ATOM     20  C   UNL     1      10.748   2.798  23.735  0.00  0.00    +0.053 C 
ENDBRANCH   7  20
ENDBRANCH   1  18
BRANCH   4  21
ATOM     21  N   UNL     1       9.818  -3.674  24.485  0.00  0.00    -0.340 N 
ATOM     22  H   UNL     1      10.159  -4.180  23.672  0.00  0.00    +0.146 HD
BRANCH  21  23
ATOM     23  C   UNL     1       8.922  -4.474  25.313  0.00  0.00    +0.137 C 
BRANCH  23  24
ATOM     24  C   UNL     1       7.772  -5.014  24.504  0.00  0.00    -0.025 A 
ATOM     25  C   UNL     1       7.937  -5.314  23.144  0.00  0.00    +0.043 A 
ATOM     26  C   UNL     1       6.850  -5.748  22.390  0.00  0.00    +0.126 A 
ATOM     27  F   UNL     1       7.022  -6.017  21.089  0.00  0.00    -0.205 F 
ATOM     28  C   UNL     1       5.592  -5.894  22.958  0.00  0.00    +0.076 A 
ATOM     29  C   UNL     1       5.429  -5.598  24.304  0.00  0.00    +0.126 A 
ATOM     30  F   UNL     1       4.219  -5.722  24.863  0.00  0.00    -0.205 F 
ATOM     31  C   UNL     1       6.501  -5.164  25.080  0.00  0.00    +0.043 A 
ENDBRANCH  23  24
ENDBRANCH  21  23
ENDBRANCH   4  21
TORSDOF 5
ENDMDL
