MODEL 1
REMARK VINA RESULT:      -6.5      0.000      0.000
REMARK  Name = 
REMARK  7 active torsions:
REMARK  status: ('A' for Active; 'I' for Inactive)
REMARK    1  A    between atoms: C_5  and  N_16
REMARK    2  A    between atoms: C_8  and  C_10
REMARK    3  A    between atoms: C_10  and  O_11
REMARK    4  A    between atoms: O_11  and  P_12
REMARK    5  A    between atoms: P_12  and  O_13
REMARK    6  A    between atoms: P_12  and  O_14
REMARK    7  A    between atoms: C_18  and  C_19
REMARK                            x       y       z     vdW  Elec       q    Type
REMARK                         _______ _______ _______ _____ _____    ______ ____
ROOT
ATOM      1  C   UNL     1       6.638  -5.243  22.433  0.00  0.00    +0.201 C 
ATOM      2  F   UNL     1       6.592  -6.431  21.786  0.00  0.00    -0.243 F 
ATOM      3  C   UNL     1       5.683  -5.235  23.607  0.00  0.00    +0.181 C 
ATOM      4  O   UNL     1       5.056  -3.927  23.638  0.00  0.00    -0.348 OA
ATOM      5  C   UNL     1       5.627  -3.122  22.588  0.00  0.00    +0.227 C 
ATOM      6  C   UNL     1       6.095  -4.144  21.561  0.00  0.00    +0.094 C 
ENDROOT
BRANCH   5   7
ATOM      7  N   UNL     1       6.673  -2.243  23.144  0.00  0.00    -0.274 N 
ATOM      8  C   UNL     1       6.354  -1.473  24.255  0.00  0.00    +0.331 A 
ATOM      9  O   UNL     1       5.249  -1.467  24.792  0.00  0.00    -0.246 OA
ATOM     10  N   UNL     1       7.367  -0.692  24.743  0.00  0.00    -0.275 N 
ATOM     11  H   UNL     1       7.145  -0.124  25.543  0.00  0.00    +0.173 HD
ATOM     12  C   UNL     1       8.667  -0.680  24.320  0.00  0.00    +0.257 A 
ATOM     13  O   UNL     1       9.533  -0.012  24.870  0.00  0.00    -0.267 OA
ATOM     14  C   UNL     1       8.968  -1.559  23.173  0.00  0.00    +0.030 A 
ATOM     15  C   UNL     1      10.354  -1.575  22.622  0.00  0.00    +0.051 C 
ATOM     16  C   UNL     1       7.972  -2.301  22.678  0.00  0.00    +0.101 A 
ENDBRANCH   5   7
BRANCH   3  17
ATOM     17  C   UNL     1       6.384  -5.538  24.930  0.00  0.00    +0.207 C 
BRANCH  17  18
ATOM     18  O   UNL     1       7.752  -5.220  24.752  0.00  0.00    -0.284 OA
BRANCH  18  19
ATOM     19  P   UNL     1       8.619  -4.802  26.019  0.00  0.00    +0.472 P 
ATOM     20  O   UNL     1       8.610  -3.353  26.351  0.00  0.00    -0.228 OA
BRANCH  19  21
ATOM     21  O   UNL     1      10.014  -5.471  25.640  0.00  0.00    -0.303 OA
ATOM     22  H   UNL     1       9.875  -6.264  25.093  0.00  0.00    +0.222 HD
ENDBRANCH  19  21
BRANCH  19  23
ATOM     23  O   UNL     1       8.025  -5.782  27.126  0.00  0.00    -0.303 OA
ATOM     24  H   UNL     1       7.065  -5.899  27.002  0.00  0.00    +0.222 HD
ENDBRANCH  19  23
ENDBRANCH  18  19
ENDBRANCH  17  18
ENDBRANCH   3  17
TORSDOF 6
ENDMDL
MODEL 2
REMARK VINA RESULT:      -6.5      2.553      4.868
REMARK  Name = 
REMARK  7 active torsions:
REMARK  status: ('A' for Active; 'I' for Inactive)
REMARK    1  A    between atoms: C_5  and  N_16
REMARK    2  A    between atoms: C_8  and  C_10
REMARK    3  A    between atoms: C_10  and  O_11
REMARK    4  A    between atoms: O_11  and  P_12
REMARK    5  A    between atoms: P_12  and  O_13
REMARK    6  A    between atoms: P_12  and  O_14
REMARK    7  A    between atoms: C_18  and  C_19
REMARK                            x       y       z     vdW  Elec       q    Type
REMARK                         _______ _______ _______ _____ _____    ______ ____
ROOT
ATOM      1  C   UNL     1       5.954  -3.358  22.431  0.00  0.00    +0.201 C 
ATOM      2  F   UNL     1       5.193  -2.786  21.469  0.00  0.00    -0.243 F 
ATOM      3  C   UNL     1       7.352  -2.778  22.424  0.00  0.00    +0.181 C 
ATOM      4  O   UNL     1       8.271  -3.877  22.649  0.00  0.00    -0.348 OA
ATOM      5  C   UNL     1       7.504  -5.079  22.857  0.00  0.00    +0.227 C 
ATOM      6  C   UNL     1       6.200  -4.809  22.118  0.00  0.00    +0.094 C 
ENDROOT
BRANCH   5   7
ATOM      7  N   UNL     1       7.381  -5.352  24.301  0.00  0.00    -0.274 N 
ATOM      8  C   UNL     1       8.542  -5.351  25.065  0.00  0.00    +0.331 A 
ATOM      9  O   UNL     1       9.664  -5.154  24.607  0.00  0.00    -0.246 OA
ATOM     10  N   UNL     1       8.368  -5.588  26.402  0.00  0.00    -0.275 N 
ATOM     11  H   UNL     1       9.203  -5.596  26.963  0.00  0.00    +0.173 HD
ATOM     12  C   UNL     1       7.178  -5.712  27.063  0.00  0.00    +0.257 A 
ATOM     13  O   UNL     1       7.110  -5.836  28.280  0.00  0.00    -0.267 OA
ATOM     14  C   UNL     1       5.972  -5.648  26.215  0.00  0.00    +0.030 A 
ATOM     15  C   UNL     1       4.633  -5.816  26.851  0.00  0.00    +0.051 C 
ATOM     16  C   UNL     1       6.142  -5.445  24.904  0.00  0.00    +0.101 A 
ENDBRANCH   5   7
BRANCH   3  17
ATOM     17  C   UNL     1       7.536  -1.687  23.477  0.00  0.00    +0.207 C 
BRANCH  17  18
ATOM     18  O   UNL     1       8.438  -0.741  22.935  0.00  0.00    -0.284 OA
BRANCH  18  19
ATOM     19  P   UNL     1       9.998  -0.930  23.186  0.00  0.00    +0.472 P 
ATOM     20  O   UNL     1      10.736   0.298  23.583  0.00  0.00    -0.228 OA
BRANCH  19  21
ATOM     21  O   UNL     1      10.419  -1.645  21.826  0.00  0.00    -0.303 OA
ATOM     22  H   UNL     1      10.077  -2.557  21.800  0.00  0.00    +0.222 HD
ENDBRANCH  19  21
BRANCH  19  23
ATOM     23  O   UNL     1       9.990  -2.120  24.245  0.00  0.00    -0.303 OA
ATOM     24  H   UNL     1       9.083  -2.450  24.384  0.00  0.00    +0.222 HD
ENDBRANCH  19  23
ENDBRANCH  18  19
ENDBRANCH  17  18
ENDBRANCH   3  17
TORSDOF 6
ENDMDL
MODEL 3
REMARK VINA RESULT:      -6.1      2.531      4.728
REMARK  Name = 
REMARK  7 active torsions:
REMARK  status: ('A' for Active; 'I' for Inactive)
REMARK    1  A    between atoms: C_5  and  N_16
REMARK    2  A    between atoms: C_8  and  C_10
REMARK    3  A    between atoms: C_10  and  O_11
REMARK    4  A    between atoms: O_11  and  P_12
REMARK    5  A    between atoms: P_12  and  O_13
REMARK    6  A    between atoms: P_12  and  O_14
REMARK    7  A    between atoms: C_18  and  C_19
REMARK                            x       y       z     vdW  Elec       q    Type
REMARK                         _______ _______ _______ _____ _____    ______ ____
ROOT
ATOM      1  C   UNL     1       7.373  -1.796  24.009  0.00  0.00    +0.201 C 
ATOM      2  F   UNL     1       7.737  -0.559  24.423  0.00  0.00    -0.243 F 
ATOM      3  C   UNL     1       8.529  -2.493  23.325  0.00  0.00    +0.181 C 
ATOM      4  O   UNL     1       7.985  -3.200  22.181  0.00  0.00    -0.348 OA
ATOM      5  C   UNL     1       6.555  -3.023  22.173  0.00  0.00    +0.227 C 
ATOM      6  C   UNL     1       6.348  -1.707  22.912  0.00  0.00    +0.094 C 
ENDROOT
BRANCH   5   7
ATOM      7  N   UNL     1       5.901  -4.204  22.768  0.00  0.00    -0.274 N 
ATOM      8  C   UNL     1       6.188  -5.450  22.224  0.00  0.00    +0.331 A 
ATOM      9  O   UNL     1       6.940  -5.625  21.269  0.00  0.00    -0.246 OA
ATOM     10  N   UNL     1       5.571  -6.513  22.827  0.00  0.00    -0.275 N 
ATOM     11  H   UNL     1       5.766  -7.419  22.437  0.00  0.00    +0.173 HD
ATOM     12  C   UNL     1       4.804  -6.480  23.959  0.00  0.00    +0.257 A 
ATOM     13  O   UNL     1       4.359  -7.494  24.483  0.00  0.00    -0.267 OA
ATOM     14  C   UNL     1       4.576  -5.139  24.530  0.00  0.00    +0.030 A 
ATOM     15  C   UNL     1       3.715  -5.009  25.742  0.00  0.00    +0.051 C 
ATOM     16  C   UNL     1       5.155  -4.096  23.925  0.00  0.00    +0.101 A 
ENDBRANCH   5   7
BRANCH   3  17
ATOM     17  C   UNL     1       9.268  -3.450  24.258  0.00  0.00    +0.207 C 
BRANCH  17  18
ATOM     18  O   UNL     1       8.332  -3.879  25.230  0.00  0.00    -0.284 OA
BRANCH  18  19
ATOM     19  P   UNL     1       8.610  -5.229  26.026  0.00  0.00    +0.472 P 
ATOM     20  O   UNL     1       7.401  -5.986  26.443  0.00  0.00    -0.228 OA
BRANCH  19  21
ATOM     21  O   UNL     1       9.582  -4.689  27.166  0.00  0.00    -0.303 OA
ATOM     22  H   UNL     1      10.243  -5.366  27.401  0.00  0.00    +0.222 HD
ENDBRANCH  19  21
BRANCH  19  23
ATOM     23  O   UNL     1       9.595  -5.974  25.019  0.00  0.00    -0.303 OA
ATOM     24  H   UNL     1      10.051  -5.331  24.445  0.00  0.00    +0.222 HD
ENDBRANCH  19  23
ENDBRANCH  18  19
ENDBRANCH  17  18
ENDBRANCH   3  17
TORSDOF 6
ENDMDL
MODEL 4
REMARK VINA RESULT:      -6.1      2.729      3.997
REMARK  Name = 
REMARK  7 active torsions:
REMARK  status: ('A' for Active; 'I' for Inactive)
REMARK    1  A    between atoms: C_5  and  N_16
REMARK    2  A    between atoms: C_8  and  C_10
REMARK    3  A    between atoms: C_10  and  O_11
REMARK    4  A    between atoms: O_11  and  P_12
REMARK    5  A    between atoms: P_12  and  O_13
REMARK    6  A    between atoms: P_12  and  O_14
REMARK    7  A    between atoms: C_18  and  C_19
REMARK                            x       y       z     vdW  Elec       q    Type
REMARK                         _______ _______ _______ _____ _____    ______ ____
ROOT
ATOM      1  C   UNL     1       7.086  -3.633  25.018  0.00  0.00    +0.201 C 
ATOM      2  F   UNL     1       6.180  -4.573  25.377  0.00  0.00    -0.243 F 
ATOM      3  C   UNL     1       8.001  -4.158  23.932  0.00  0.00    +0.181 C 
ATOM      4  O   UNL     1       9.339  -3.688  24.236  0.00  0.00    -0.348 OA
ATOM      5  C   UNL     1       9.274  -2.854  25.410  0.00  0.00    +0.227 C 
ATOM      6  C   UNL     1       8.043  -3.362  26.148  0.00  0.00    +0.094 C 
ENDROOT
BRANCH   5   7
ATOM      7  N   UNL     1       9.247  -1.433  25.014  0.00  0.00    -0.274 N 
ATOM      8  C   UNL     1       9.074  -0.482  26.012  0.00  0.00    +0.331 A 
ATOM      9  O   UNL     1       8.926  -0.754  27.201  0.00  0.00    -0.246 OA
ATOM     10  N   UNL     1       9.078   0.821  25.592  0.00  0.00    -0.275 N 
ATOM     11  H   UNL     1       8.946   1.518  26.306  0.00  0.00    +0.173 HD
ATOM     12  C   UNL     1       9.341   1.273  24.329  0.00  0.00    +0.257 A 
ATOM     13  O   UNL     1       9.409   2.465  24.057  0.00  0.00    -0.267 OA
ATOM     14  C   UNL     1       9.575   0.225  23.317  0.00  0.00    +0.030 A 
ATOM     15  C   UNL     1       9.828   0.631  21.904  0.00  0.00    +0.051 C 
ATOM     16  C   UNL     1       9.543  -1.050  23.720  0.00  0.00    +0.101 A 
ENDBRANCH   5   7
BRANCH   3  17
ATOM     17  C   UNL     1       7.567  -3.708  22.538  0.00  0.00    +0.207 C 
BRANCH  17  18
ATOM     18  O   UNL     1       7.421  -4.880  21.756  0.00  0.00    -0.284 OA
BRANCH  18  19
ATOM     19  P   UNL     1       5.975  -5.523  21.590  0.00  0.00    +0.472 P 
ATOM     20  O   UNL     1       4.861  -4.764  22.215  0.00  0.00    -0.228 OA
BRANCH  19  21
ATOM     21  O   UNL     1       6.260  -6.998  22.119  0.00  0.00    -0.303 OA
ATOM     22  H   UNL     1       6.687  -6.972  22.994  0.00  0.00    +0.222 HD
ENDBRANCH  19  21
BRANCH  19  23
ATOM     23  O   UNL     1       5.906  -5.701  20.009  0.00  0.00    -0.303 OA
ATOM     24  H   UNL     1       5.059  -6.105  19.745  0.00  0.00    +0.222 HD
ENDBRANCH  19  23
ENDBRANCH  18  19
ENDBRANCH  17  18
ENDBRANCH   3  17
TORSDOF 6
ENDMDL
MODEL 5
REMARK VINA RESULT:      -6.0      2.758      4.049
REMARK  Name = 
REMARK  7 active torsions:
REMARK  status: ('A' for Active; 'I' for Inactive)
REMARK    1  A    between atoms: C_5  and  N_16
REMARK    2  A    between atoms: C_8  and  C_10
REMARK    3  A    between atoms: C_10  and  O_11
REMARK    4  A    between atoms: O_11  and  P_12
REMARK    5  A    between atoms: P_12  and  O_13
REMARK    6  A    between atoms: P_12  and  O_14
REMARK    7  A    between atoms: C_18  and  C_19
REMARK                            x       y       z     vdW  Elec       q    Type
REMARK                         _______ _______ _______ _____ _____    ______ ____
ROOT
ATOM      1  C   UNL     1       7.458  -4.442  26.552  0.00  0.00    +0.201 C 
ATOM      2  F   UNL     1       7.214  -4.960  27.779  0.00  0.00    -0.243 F 
ATOM      3  C   UNL     1       6.715  -5.219  25.486  0.00  0.00    +0.181 C 
ATOM      4  O   UNL     1       7.608  -5.346  24.351  0.00  0.00    -0.348 OA
ATOM      5  C   UNL     1       8.826  -4.634  24.645  0.00  0.00    +0.227 C 
ATOM      6  C   UNL     1       8.897  -4.650  26.166  0.00  0.00    +0.094 C 
ENDROOT
BRANCH   5   7
ATOM      7  N   UNL     1       8.789  -3.300  24.017  0.00  0.00    -0.274 N 
ATOM      8  C   UNL     1       8.107  -3.165  22.814  0.00  0.00    +0.331 A 
ATOM      9  O   UNL     1       7.548  -4.092  22.235  0.00  0.00    -0.246 OA
ATOM     10  N   UNL     1       8.087  -1.902  22.286  0.00  0.00    -0.275 N 
ATOM     11  H   UNL     1       7.602  -1.794  21.411  0.00  0.00    +0.173 HD
ATOM     12  C   UNL     1       8.566  -0.763  22.870  0.00  0.00    +0.257 A 
ATOM     13  O   UNL     1       8.429   0.345  22.365  0.00  0.00    -0.267 OA
ATOM     14  C   UNL     1       9.231  -0.951  24.174  0.00  0.00    +0.030 A 
ATOM     15  C   UNL     1       9.820   0.235  24.861  0.00  0.00    +0.051 C 
ATOM     16  C   UNL     1       9.277  -2.189  24.678  0.00  0.00    +0.101 A 
ENDBRANCH   5   7
BRANCH   3  17
ATOM     17  C   UNL     1       5.406  -4.546  25.080  0.00  0.00    +0.207 C 
BRANCH  17  18
ATOM     18  O   UNL     1       4.567  -5.560  24.559  0.00  0.00    -0.284 OA
BRANCH  18  19
ATOM     19  P   UNL     1       4.249  -5.575  23.000  0.00  0.00    +0.472 P 
ATOM     20  O   UNL     1       2.894  -6.058  22.628  0.00  0.00    -0.228 OA
BRANCH  19  21
ATOM     21  O   UNL     1       5.506  -6.392  22.463  0.00  0.00    -0.303 OA
ATOM     22  H   UNL     1       5.256  -6.938  21.696  0.00  0.00    +0.222 HD
ENDBRANCH  19  21
BRANCH  19  23
ATOM     23  O   UNL     1       4.590  -4.068  22.610  0.00  0.00    -0.303 OA
ATOM     24  H   UNL     1       4.251  -3.452  23.286  0.00  0.00    +0.222 HD
ENDBRANCH  19  23
ENDBRANCH  18  19
ENDBRANCH  17  18
ENDBRANCH   3  17
TORSDOF 6
ENDMDL
MODEL 6
REMARK VINA RESULT:      -6.0      2.746      5.064
REMARK  Name = 
REMARK  7 active torsions:
REMARK  status: ('A' for Active; 'I' for Inactive)
REMARK    1  A    between atoms: C_5  and  N_16
REMARK    2  A    between atoms: C_8  and  C_10
REMARK    3  A    between atoms: C_10  and  O_11
REMARK    4  A    between atoms: O_11  and  P_12
REMARK    5  A    between atoms: P_12  and  O_13
REMARK    6  A    between atoms: P_12  and  O_14
REMARK    7  A    between atoms: C_18  and  C_19
REMARK                            x       y       z     vdW  Elec       q    Type
REMARK                         _______ _______ _______ _____ _____    ______ ____
ROOT
ATOM      1  C   UNL     1       7.275  -1.818  23.381  0.00  0.00    +0.201 C 
ATOM      2  F   UNL     1       6.829  -0.778  22.638  0.00  0.00    -0.243 F 
ATOM      3  C   UNL     1       8.784  -1.782  23.501  0.00  0.00    +0.181 C 
ATOM      4  O   UNL     1       9.254  -3.149  23.385  0.00  0.00    -0.348 OA
ATOM      5  C   UNL     1       8.110  -4.017  23.267  0.00  0.00    +0.227 C 
ATOM      6  C   UNL     1       7.034  -3.121  22.668  0.00  0.00    +0.094 C 
ENDROOT
BRANCH   5   7
ATOM      7  N   UNL     1       7.795  -4.611  24.580  0.00  0.00    -0.274 N 
ATOM      8  C   UNL     1       8.843  -5.138  25.325  0.00  0.00    +0.331 A 
ATOM      9  O   UNL     1      10.012  -5.153  24.949  0.00  0.00    -0.246 OA
ATOM     10  N   UNL     1       8.498  -5.656  26.544  0.00  0.00    -0.275 N 
ATOM     11  H   UNL     1       9.248  -6.047  27.089  0.00  0.00    +0.173 HD
ATOM     12  C   UNL     1       7.266  -5.607  27.135  0.00  0.00    +0.257 A 
ATOM     13  O   UNL     1       7.063  -6.021  28.270  0.00  0.00    -0.267 OA
ATOM     14  C   UNL     1       6.199  -4.986  26.327  0.00  0.00    +0.030 A 
ATOM     15  C   UNL     1       4.815  -4.929  26.881  0.00  0.00    +0.051 C 
ATOM     16  C   UNL     1       6.529  -4.504  25.123  0.00  0.00    +0.101 A 
ENDBRANCH   5   7
BRANCH   3  17
ATOM     17  C   UNL     1       9.249  -1.153  24.812  0.00  0.00    +0.207 C 
BRANCH  17  18
ATOM     18  O   UNL     1       8.215  -1.359  25.756  0.00  0.00    -0.284 OA
BRANCH  18  19
ATOM     19  P   UNL     1       7.928  -0.236  26.846  0.00  0.00    +0.472 P 
ATOM     20  O   UNL     1       6.600  -0.310  27.509  0.00  0.00    -0.228 OA
BRANCH  19  21
ATOM     21  O   UNL     1       8.267   1.071  26.001  0.00  0.00    -0.303 OA
ATOM     22  H   UNL     1       8.283   1.856  26.577  0.00  0.00    +0.222 HD
ENDBRANCH  19  21
BRANCH  19  23
ATOM     23  O   UNL     1       9.198  -0.406  27.793  0.00  0.00    -0.303 OA
ATOM     24  H   UNL     1       9.991  -0.017  27.378  0.00  0.00    +0.222 HD
ENDBRANCH  19  23
ENDBRANCH  18  19
ENDBRANCH  17  18
ENDBRANCH   3  17
TORSDOF 6
ENDMDL
MODEL 7
REMARK VINA RESULT:      -5.9      2.994      5.467
REMARK  Name = 
REMARK  7 active torsions:
REMARK  status: ('A' for Active; 'I' for Inactive)
REMARK    1  A    between atoms: C_5  and  N_16
REMARK    2  A    between atoms: C_8  and  C_10
REMARK    3  A    between atoms: C_10  and  O_11
REMARK    4  A    between atoms: O_11  and  P_12
REMARK    5  A    between atoms: P_12  and  O_13
REMARK    6  A    between atoms: P_12  and  O_14
REMARK    7  A    between atoms: C_18  and  C_19
REMARK                            x       y       z     vdW  Elec       q    Type
REMARK                         _______ _______ _______ _____ _____    ______ ____
ROOT
ATOM      1  C   UNL     1       9.226  -2.900  23.728  0.00  0.00    +0.201 C 
ATOM      2  F   UNL     1      10.533  -2.609  23.532  0.00  0.00    -0.243 F 
ATOM      3  C   UNL     1       8.448  -1.654  24.093  0.00  0.00    +0.181 C 
ATOM      4  O   UNL     1       7.504  -2.028  25.129  0.00  0.00    -0.348 OA
ATOM      5  C   UNL     1       7.623  -3.444  25.366  0.00  0.00    +0.227 C 
ATOM      6  C   UNL     1       9.053  -3.763  24.949  0.00  0.00    +0.094 C 
ENDROOT
BRANCH   5   7
ATOM      7  N   UNL     1       6.564  -4.165  24.635  0.00  0.00    -0.274 N 
ATOM      8  C   UNL     1       5.285  -4.167  25.178  0.00  0.00    +0.331 A 
ATOM      9  O   UNL     1       4.987  -3.621  26.237  0.00  0.00    -0.246 OA
ATOM     10  N   UNL     1       4.336  -4.832  24.448  0.00  0.00    -0.275 N 
ATOM     11  H   UNL     1       3.407  -4.847  24.836  0.00  0.00    +0.173 HD
ATOM     12  C   UNL     1       4.496  -5.387  23.209  0.00  0.00    +0.257 A 
ATOM     13  O   UNL     1       3.569  -5.889  22.587  0.00  0.00    -0.267 OA
ATOM     14  C   UNL     1       5.860  -5.307  22.651  0.00  0.00    +0.030 A 
ATOM     15  C   UNL     1       6.132  -5.924  21.320  0.00  0.00    +0.051 C 
ATOM     16  C   UNL     1       6.795  -4.682  23.376  0.00  0.00    +0.101 A 
ENDBRANCH   5   7
BRANCH   3  17
ATOM     17  C   UNL     1       7.728  -1.045  22.891  0.00  0.00    +0.207 C 
BRANCH  17  18
ATOM     18  O   UNL     1       8.119   0.314  22.824  0.00  0.00    -0.284 OA
BRANCH  18  19
ATOM     19  P   UNL     1       9.506   0.686  22.138  0.00  0.00    +0.472 P 
ATOM     20  O   UNL     1      10.650   0.873  23.068  0.00  0.00    -0.228 OA
BRANCH  19  21
ATOM     21  O   UNL     1       9.057   1.928  21.249  0.00  0.00    -0.303 OA
ATOM     22  H   UNL     1       9.820   2.301  20.772  0.00  0.00    +0.222 HD
ENDBRANCH  19  21
BRANCH  19  23
ATOM     23  O   UNL     1       9.644  -0.498  21.081  0.00  0.00    -0.303 OA
ATOM     24  H   UNL     1      10.137  -1.246  21.465  0.00  0.00    +0.222 HD
ENDBRANCH  19  23
ENDBRANCH  18  19
ENDBRANCH  17  18
ENDBRANCH   3  17
TORSDOF 6
ENDMDL
MODEL 8
REMARK VINA RESULT:      -5.9      2.570      5.103
REMARK  Name = 
REMARK  7 active torsions:
REMARK  status: ('A' for Active; 'I' for Inactive)
REMARK    1  A    between atoms: C_5  and  N_16
REMARK    2  A    between atoms: C_8  and  C_10
REMARK    3  A    between atoms: C_10  and  O_11
REMARK    4  A    between atoms: O_11  and  P_12
REMARK    5  A    between atoms: P_12  and  O_13
REMARK    6  A    between atoms: P_12  and  O_14
REMARK    7  A    between atoms: C_18  and  C_19
REMARK                            x       y       z     vdW  Elec       q    Type
REMARK                         _______ _______ _______ _____ _____    ______ ____
ROOT
ATOM      1  C   UNL     1       6.108  -3.196  22.760  0.00  0.00    +0.201 C 
ATOM      2  F   UNL     1       5.387  -2.593  21.786  0.00  0.00    -0.243 F 
ATOM      3  C   UNL     1       7.482  -2.572  22.875  0.00  0.00    +0.181 C 
ATOM      4  O   UNL     1       8.425  -3.652  23.095  0.00  0.00    -0.348 OA
ATOM      5  C   UNL     1       7.690  -4.888  23.185  0.00  0.00    +0.227 C 
ATOM      6  C   UNL     1       6.425  -4.618  22.381  0.00  0.00    +0.094 C 
ENDROOT
BRANCH   5   7
ATOM      7  N   UNL     1       7.489  -5.249  24.601  0.00  0.00    -0.274 N 
ATOM      8  C   UNL     1       8.611  -5.349  25.413  0.00  0.00    +0.331 A 
ATOM      9  O   UNL     1       9.761  -5.171  25.020  0.00  0.00    -0.246 OA
ATOM     10  N   UNL     1       8.365  -5.666  26.722  0.00  0.00    -0.275 N 
ATOM     11  H   UNL     1       9.171  -5.748  27.318  0.00  0.00    +0.173 HD
ATOM     12  C   UNL     1       7.141  -5.782  27.321  0.00  0.00    +0.257 A 
ATOM     13  O   UNL     1       7.011  -5.983  28.521  0.00  0.00    -0.267 OA
ATOM     14  C   UNL     1       5.980  -5.610  26.426  0.00  0.00    +0.030 A 
ATOM     15  C   UNL     1       4.607  -5.761  26.989  0.00  0.00    +0.051 C 
ATOM     16  C   UNL     1       6.219  -5.328  25.140  0.00  0.00    +0.101 A 
ENDBRANCH   5   7
BRANCH   3  17
ATOM     17  C   UNL     1       7.560  -1.540  23.999  0.00  0.00    +0.207 C 
BRANCH  17  18
ATOM     18  O   UNL     1       8.924  -1.188  24.138  0.00  0.00    -0.284 OA
BRANCH  18  19
ATOM     19  P   UNL     1       9.312   0.344  24.324  0.00  0.00    +0.472 P 
ATOM     20  O   UNL     1       9.997   0.976  23.166  0.00  0.00    -0.228 OA
BRANCH  19  21
ATOM     21  O   UNL     1      10.098   0.271  25.707  0.00  0.00    -0.303 OA
ATOM     22  H   UNL     1      10.768   0.977  25.757  0.00  0.00    +0.222 HD
ENDBRANCH  19  21
BRANCH  19  23
ATOM     23  O   UNL     1       7.901   0.963  24.730  0.00  0.00    -0.303 OA
ATOM     24  H   UNL     1       7.174   0.376  24.450  0.00  0.00    +0.222 HD
ENDBRANCH  19  23
ENDBRANCH  18  19
ENDBRANCH  17  18
ENDBRANCH   3  17
TORSDOF 6
ENDMDL
MODEL 9
REMARK VINA RESULT:      -5.8      2.979      4.459
REMARK  Name = 
REMARK  7 active torsions:
REMARK  status: ('A' for Active; 'I' for Inactive)
REMARK    1  A    between atoms: C_5  and  N_16
REMARK    2  A    between atoms: C_8  and  C_10
REMARK    3  A    between atoms: C_10  and  O_11
REMARK    4  A    between atoms: O_11  and  P_12
REMARK    5  A    between atoms: P_12  and  O_13
REMARK    6  A    between atoms: P_12  and  O_14
REMARK    7  A    between atoms: C_18  and  C_19
REMARK                            x       y       z     vdW  Elec       q    Type
REMARK                         _______ _______ _______ _____ _____    ______ ____
ROOT
ATOM      1  C   UNL     1       8.874  -2.961  23.952  0.00  0.00    +0.201 C 
ATOM      2  F   UNL     1       9.071  -4.246  24.333  0.00  0.00    -0.243 F 
ATOM      3  C   UNL     1       8.245  -2.900  22.577  0.00  0.00    +0.181 C 
ATOM      4  O   UNL     1       8.884  -1.810  21.864  0.00  0.00    -0.348 OA
ATOM      5  C   UNL     1       9.818  -1.167  22.753  0.00  0.00    +0.227 C 
ATOM      6  C   UNL     1      10.191  -2.264  23.742  0.00  0.00    +0.094 C 
ENDROOT
BRANCH   5   7
ATOM      7  N   UNL     1       9.204   0.041  23.335  0.00  0.00    -0.274 N 
ATOM      8  C   UNL     1       9.877   0.681  24.368  0.00  0.00    +0.331 A 
ATOM      9  O   UNL     1      10.944   0.291  24.837  0.00  0.00    -0.246 OA
ATOM     10  N   UNL     1       9.274   1.809  24.857  0.00  0.00    -0.275 N 
ATOM     11  H   UNL     1       9.750   2.276  25.610  0.00  0.00    +0.173 HD
ATOM     12  C   UNL     1       8.154   2.417  24.362  0.00  0.00    +0.257 A 
ATOM     13  O   UNL     1       7.729   3.476  24.806  0.00  0.00    -0.267 OA
ATOM     14  C   UNL     1       7.509   1.730  23.227  0.00  0.00    +0.030 A 
ATOM     15  C   UNL     1       6.257   2.305  22.654  0.00  0.00    +0.051 C 
ATOM     16  C   UNL     1       8.081   0.612  22.767  0.00  0.00    +0.101 A 
ENDBRANCH   5   7
BRANCH   3  17
ATOM     17  C   UNL     1       6.732  -2.703  22.637  0.00  0.00    +0.207 C 
BRANCH  17  18
ATOM     18  O   UNL     1       6.170  -3.949  23.003  0.00  0.00    -0.284 OA
BRANCH  18  19
ATOM     19  P   UNL     1       6.068  -5.102  21.911  0.00  0.00    +0.472 P 
ATOM     20  O   UNL     1       7.244  -6.007  21.824  0.00  0.00    -0.228 OA
BRANCH  19  21
ATOM     21  O   UNL     1       5.694  -4.240  20.625  0.00  0.00    -0.303 OA
ATOM     22  H   UNL     1       5.005  -4.688  20.102  0.00  0.00    +0.222 HD
ENDBRANCH  19  21
BRANCH  19  23
ATOM     23  O   UNL     1       4.686  -5.780  22.319  0.00  0.00    -0.303 OA
ATOM     24  H   UNL     1       4.817  -6.419  23.045  0.00  0.00    +0.222 HD
ENDBRANCH  19  23
ENDBRANCH  18  19
ENDBRANCH  17  18
ENDBRANCH   3  17
TORSDOF 6
ENDMDL
