MODEL 1
REMARK VINA RESULT:      -8.3      0.000      0.000
REMARK  Name = 
REMARK  11 active torsions:
REMARK  status: ('A' for Active; 'I' for Inactive)
REMARK    1  A    between atoms: C_7  and  C_8
REMARK    2  A    between atoms: C_8  and  N_9
REMARK    3  A    between atoms: N_9  and  C_10
REMARK    4  A    between atoms: C_13  and  C_16
REMARK    5  A    between atoms: N_18  and  CA_19
REMARK    6  A    between atoms: CA_19  and  CB_21
REMARK    7  A    between atoms: CA_19  and  C_26
REMARK    8  A    between atoms: CB_21  and  CG_22
REMARK    9  A    between atoms: CG_22  and  CD_23
REMARK   10  A    between atoms: CD_23  and  OE1_24
REMARK   11  A    between atoms: C_26  and  O_27
REMARK                            x       y       z     vdW  Elec       q    Type
REMARK                         _______ _______ _______ _____ _____    ______ ____
ROOT
ATOM      1  C   UNK A   0      10.120  -0.421  22.979  0.00  0.00    +0.027 A 
ATOM      2  C   UNK A   0      10.580   0.126  24.187  0.00  0.00    +0.023 A 
ATOM      3  C   UNK A   0      10.814   1.505  24.323  0.00  0.00    +0.015 A 
ATOM      4  C   UNK A   0      10.575   2.363  23.251  0.00  0.00    +0.037 A 
ATOM      5  C   UNK A   0      10.018   1.846  22.077  0.00  0.00    +0.015 A 
ATOM      6  C   UNK A   0       9.778   0.470  21.956  0.00  0.00    +0.023 A 
ENDROOT
BRANCH   4   7
ATOM      7  C   UNK A   0      10.925   3.810  23.367  0.00  0.00    +0.245 C 
ATOM      8  N   GLU A   1       9.875   4.659  23.649  0.00  0.00    -0.298 N 
ATOM      9  H   GLU A   1       8.944   4.284  23.784  0.00  0.00    +0.150 HD
ATOM     10  O   UNK A   0      12.066   4.224  23.196  0.00  0.00    -0.270 OA
BRANCH   8  11
ATOM     11  CA  GLU A   1      10.077   6.102  23.754  0.00  0.00    +0.182 C 
BRANCH  11  12
ATOM     12  C   GLU A   1      10.696   6.419  25.126  0.00  0.00    +0.325 C 
ATOM     13  OXT GLU A   1      10.065   6.449  26.174  0.00  0.00    -0.249 OA
BRANCH  12  14
ATOM     14  O   GLU A   1      12.026   6.658  25.067  0.00  0.00    -0.479 OA
ATOM     15  H   GLU A   1      12.540   6.100  25.696  0.00  0.00    +0.295 HD
ENDBRANCH  12  14
ENDBRANCH  11  12
BRANCH  11  16
ATOM     16  CB  GLU A   1       8.755   6.863  23.580  0.00  0.00    +0.045 C 
BRANCH  16  17
ATOM     17  CG  GLU A   1       7.552   5.919  23.568  0.00  0.00    +0.123 C 
BRANCH  17  18
ATOM     18  CD  GLU A   1       7.293   5.397  22.180  0.00  0.00    +0.305 C 
ATOM     19  OE2 GLU A   1       7.175   4.212  21.917  0.00  0.00    -0.251 OA
BRANCH  18  20
ATOM     20  OE1 GLU A   1       7.162   6.369  21.251  0.00  0.00    -0.481 OA
ATOM     21  HE1 GLU A   1       6.769   6.075  20.405  0.00  0.00    +0.295 HD
ENDBRANCH  18  20
ENDBRANCH  17  18
ENDBRANCH  16  17
ENDBRANCH  11  16
ENDBRANCH   8  11
ENDBRANCH   4   7
BRANCH   1  22
ATOM     22  N   UNK A   0       9.904  -1.799  22.891  0.00  0.00    -0.338 N 
ATOM     23  H   UNK A   0      10.713  -2.313  22.534  0.00  0.00    +0.146 HD
BRANCH  22  24
ATOM     24  C   UNK A   0       8.676  -2.292  22.255  0.00  0.00    +0.158 C 
BRANCH  24  36
ATOM     25  N   UNK A   0       5.367  -6.866  27.480  0.00  0.00    -0.327 N 
ATOM     26  H   UNK A   0       5.701  -6.882  28.432  0.00  0.00    +0.145 HD
ATOM     27  H   UNK A   0       4.383  -6.691  27.327  0.00  0.00    +0.145 HD
ATOM     28  C   UNK A   0       6.146  -6.052  26.688  0.00  0.00    +0.216 A 
ATOM     29  N   UNK A   0       7.394  -5.822  27.086  0.00  0.00    -0.198 NA
ATOM     30  C   UNK A   0       8.141  -5.042  26.290  0.00  0.00    +0.149 A 
ATOM     31  N   UNK A   0       9.483  -4.883  26.679  0.00  0.00    -0.341 N 
ATOM     32  H   UNK A   0       9.610  -5.244  27.618  0.00  0.00    +0.144 HD
ATOM     33  H   UNK A   0       9.797  -3.926  26.546  0.00  0.00    +0.144 HD
ATOM     34  C   UNK A   0       7.684  -4.467  25.111  0.00  0.00    +0.148 A 
ATOM     35  N   UNK A   0       8.459  -3.665  24.313  0.00  0.00    -0.242 NA
ATOM     36  C   UNK A   0       7.866  -3.154  23.207  0.00  0.00    +0.077 A 
ATOM     37  C   UNK A   0       6.540  -3.448  22.931  0.00  0.00    +0.138 A 
ATOM     38  N   UNK A   0       5.780  -4.235  23.730  0.00  0.00    -0.232 NA
ATOM     39  C   UNK A   0       6.344  -4.761  24.825  0.00  0.00    +0.185 A 
ATOM     40  N   UNK A   0       5.588  -5.531  25.602  0.00  0.00    -0.193 NA
ENDBRANCH  24  36
ENDBRANCH  22  24
ENDBRANCH   1  22
TORSDOF 11
ENDMDL
MODEL 2
REMARK VINA RESULT:      -8.3      1.818      3.117
REMARK  Name = 
REMARK  11 active torsions:
REMARK  status: ('A' for Active; 'I' for Inactive)
REMARK    1  A    between atoms: C_7  and  C_8
REMARK    2  A    between atoms: C_8  and  N_9
REMARK    3  A    between atoms: N_9  and  C_10
REMARK    4  A    between atoms: C_13  and  C_16
REMARK    5  A    between atoms: N_18  and  CA_19
REMARK    6  A    between atoms: CA_19  and  CB_21
REMARK    7  A    between atoms: CA_19  and  C_26
REMARK    8  A    between atoms: CB_21  and  CG_22
REMARK    9  A    between atoms: CG_22  and  CD_23
REMARK   10  A    between atoms: CD_23  and  OE1_24
REMARK   11  A    between atoms: C_26  and  O_27
REMARK                            x       y       z     vdW  Elec       q    Type
REMARK                         _______ _______ _______ _____ _____    ______ ____
ROOT
ATOM      1  C   UNK A   0       9.652  -0.826  23.230  0.00  0.00    +0.027 A 
ATOM      2  C   UNK A   0       9.594  -0.056  22.059  0.00  0.00    +0.023 A 
ATOM      3  C   UNK A   0       9.863   1.324  22.076  0.00  0.00    +0.015 A 
ATOM      4  C   UNK A   0      10.213   1.952  23.270  0.00  0.00    +0.037 A 
ATOM      5  C   UNK A   0      10.378   1.178  24.423  0.00  0.00    +0.015 A 
ATOM      6  C   UNK A   0      10.116  -0.199  24.393  0.00  0.00    +0.023 A 
ENDROOT
BRANCH   4   7
ATOM      7  C   UNK A   0      10.395   3.434  23.303  0.00  0.00    +0.245 C 
ATOM      8  N   GLU A   1      11.699   3.878  23.247  0.00  0.00    -0.298 N 
ATOM      9  H   GLU A   1      12.457   3.211  23.166  0.00  0.00    +0.150 HD
ATOM     10  O   UNK A   0       9.450   4.208  23.401  0.00  0.00    -0.270 OA
BRANCH   8  11
ATOM     11  CA  GLU A   1      12.017   5.303  23.306  0.00  0.00    +0.182 C 
BRANCH  11  12
ATOM     12  C   GLU A   1      13.349   5.547  22.576  0.00  0.00    +0.325 C 
ATOM     13  OXT GLU A   1      13.450   6.147  21.514  0.00  0.00    -0.249 OA
BRANCH  12  14
ATOM     14  O   GLU A   1      14.416   5.035  23.231  0.00  0.00    -0.479 OA
ATOM     15  H   GLU A   1      14.737   4.192  22.833  0.00  0.00    +0.295 HD
ENDBRANCH  12  14
ENDBRANCH  11  12
BRANCH  11  16
ATOM     16  CB  GLU A   1      12.110   5.793  24.757  0.00  0.00    +0.045 C 
BRANCH  16  17
ATOM     17  CG  GLU A   1      11.325   7.088  24.973  0.00  0.00    +0.123 C 
BRANCH  17  18
ATOM     18  CD  GLU A   1       9.945   6.798  25.500  0.00  0.00    +0.305 C 
ATOM     19  OE2 GLU A   1       9.711   6.527  26.666  0.00  0.00    -0.251 OA
BRANCH  18  20
ATOM     20  OE1 GLU A   1       8.976   6.905  24.566  0.00  0.00    -0.481 OA
ATOM     21  HE1 GLU A   1       8.917   6.148  23.949  0.00  0.00    +0.295 HD
ENDBRANCH  18  20
ENDBRANCH  17  18
ENDBRANCH  16  17
ENDBRANCH  11  16
ENDBRANCH   8  11
ENDBRANCH   4   7
BRANCH   1  22
ATOM     22  N   UNK A   0       9.374  -2.194  23.164  0.00  0.00    -0.338 N 
ATOM     23  H   UNK A   0       8.381  -2.397  23.027  0.00  0.00    +0.146 HD
BRANCH  22  24
ATOM     24  C   UNK A   0       9.934  -3.089  24.184  0.00  0.00    +0.158 C 
BRANCH  24  36
ATOM     25  N   UNK A   0       3.993  -7.344  26.586  0.00  0.00    -0.327 N 
ATOM     26  H   UNK A   0       3.459  -7.894  25.930  0.00  0.00    +0.145 HD
ATOM     27  H   UNK A   0       4.377  -7.813  27.395  0.00  0.00    +0.145 HD
ATOM     28  C   UNK A   0       4.952  -6.590  25.944  0.00  0.00    +0.216 A 
ATOM     29  N   UNK A   0       4.752  -6.306  24.662  0.00  0.00    -0.198 NA
ATOM     30  C   UNK A   0       5.689  -5.556  24.062  0.00  0.00    +0.149 A 
ATOM     31  N   UNK A   0       5.417  -5.191  22.731  0.00  0.00    -0.341 N 
ATOM     32  H   UNK A   0       4.627  -5.725  22.387  0.00  0.00    +0.144 HD
ATOM     33  H   UNK A   0       6.251  -5.245  22.154  0.00  0.00    +0.144 HD
ATOM     34  C   UNK A   0       6.833  -5.086  24.694  0.00  0.00    +0.148 A 
ATOM     35  N   UNK A   0       7.785  -4.327  24.064  0.00  0.00    -0.242 NA
ATOM     36  C   UNK A   0       8.861  -3.965  24.804  0.00  0.00    +0.077 A 
ATOM     37  C   UNK A   0       8.959  -4.363  26.128  0.00  0.00    +0.138 A 
ATOM     38  N   UNK A   0       8.016  -5.120  26.740  0.00  0.00    -0.232 NA
ATOM     39  C   UNK A   0       6.938  -5.484  26.034  0.00  0.00    +0.185 A 
ATOM     40  N   UNK A   0       6.020  -6.228  26.645  0.00  0.00    -0.193 NA
ENDBRANCH  24  36
ENDBRANCH  22  24
ENDBRANCH   1  22
TORSDOF 11
ENDMDL
MODEL 3
REMARK VINA RESULT:      -8.2      1.864      3.090
REMARK  Name = 
REMARK  11 active torsions:
REMARK  status: ('A' for Active; 'I' for Inactive)
REMARK    1  A    between atoms: C_7  and  C_8
REMARK    2  A    between atoms: C_8  and  N_9
REMARK    3  A    between atoms: N_9  and  C_10
REMARK    4  A    between atoms: C_13  and  C_16
REMARK    5  A    between atoms: N_18  and  CA_19
REMARK    6  A    between atoms: CA_19  and  CB_21
REMARK    7  A    between atoms: CA_19  and  C_26
REMARK    8  A    between atoms: CB_21  and  CG_22
REMARK    9  A    between atoms: CG_22  and  CD_23
REMARK   10  A    between atoms: CD_23  and  OE1_24
REMARK   11  A    between atoms: C_26  and  O_27
REMARK                            x       y       z     vdW  Elec       q    Type
REMARK                         _______ _______ _______ _____ _____    ______ ____
ROOT
ATOM      1  C   UNK A   0      10.101  -0.948  23.295  0.00  0.00    +0.027 A 
ATOM      2  C   UNK A   0      10.287  -0.204  24.470  0.00  0.00    +0.023 A 
ATOM      3  C   UNK A   0      10.319   1.201  24.449  0.00  0.00    +0.015 A 
ATOM      4  C   UNK A   0      10.148   1.886  23.246  0.00  0.00    +0.037 A 
ATOM      5  C   UNK A   0       9.857   1.160  22.086  0.00  0.00    +0.015 A 
ATOM      6  C   UNK A   0       9.818  -0.241  22.121  0.00  0.00    +0.023 A 
ENDROOT
BRANCH   4   7
ATOM      7  C   UNK A   0      10.287   3.372  23.212  0.00  0.00    +0.245 C 
ATOM      8  N   GLU A   1      11.580   3.852  23.238  0.00  0.00    -0.298 N 
ATOM      9  H   GLU A   1      12.359   3.206  23.255  0.00  0.00    +0.150 HD
ATOM     10  O   UNK A   0       9.317   4.120  23.192  0.00  0.00    -0.270 OA
BRANCH   8  11
ATOM     11  CA  GLU A   1      11.853   5.288  23.244  0.00  0.00    +0.182 C 
BRANCH  11  12
ATOM     12  C   GLU A   1      13.239   5.533  22.623  0.00  0.00    +0.325 C 
ATOM     13  OXT GLU A   1      13.432   6.199  21.615  0.00  0.00    -0.249 OA
BRANCH  12  14
ATOM     14  O   GLU A   1      14.242   4.941  23.312  0.00  0.00    -0.479 OA
ATOM     15  H   GLU A   1      15.052   5.500  23.359  0.00  0.00    +0.295 HD
ENDBRANCH  12  14
ENDBRANCH  11  12
BRANCH  11  16
ATOM     16  CB  GLU A   1      11.801   5.858  24.668  0.00  0.00    +0.045 C 
BRANCH  16  17
ATOM     17  CG  GLU A   1      10.616   6.806  24.859  0.00  0.00    +0.123 C 
BRANCH  17  18
ATOM     18  CD  GLU A   1       9.823   6.434  26.084  0.00  0.00    +0.305 C 
ATOM     19  OE2 GLU A   1       8.904   5.632  26.074  0.00  0.00    -0.251 OA
BRANCH  18  20
ATOM     20  OE1 GLU A   1      10.250   7.043  27.211  0.00  0.00    -0.481 OA
ATOM     21  HE1 GLU A   1      10.456   6.437  27.949  0.00  0.00    +0.295 HD
ENDBRANCH  18  20
ENDBRANCH  17  18
ENDBRANCH  16  17
ENDBRANCH  11  16
ENDBRANCH   8  11
ENDBRANCH   4   7
BRANCH   1  22
ATOM     22  N   UNK A   0      10.080  -2.344  23.365  0.00  0.00    -0.338 N 
ATOM     23  H   UNK A   0       9.837  -2.789  22.477  0.00  0.00    +0.146 HD
BRANCH  22  24
ATOM     24  C   UNK A   0       9.360  -2.994  24.467  0.00  0.00    +0.158 C 
BRANCH  24  36
ATOM     25  N   UNK A   0       2.831  -6.698  22.789  0.00  0.00    -0.327 N 
ATOM     26  H   UNK A   0       2.192  -6.969  23.522  0.00  0.00    +0.145 HD
ATOM     27  H   UNK A   0       2.464  -6.151  22.021  0.00  0.00    +0.145 HD
ATOM     28  C   UNK A   0       3.974  -6.128  23.304  0.00  0.00    +0.216 A 
ATOM     29  N   UNK A   0       4.301  -6.435  24.556  0.00  0.00    -0.198 NA
ATOM     30  C   UNK A   0       5.429  -5.884  25.032  0.00  0.00    +0.149 A 
ATOM     31  N   UNK A   0       5.806  -6.289  26.324  0.00  0.00    -0.341 N 
ATOM     32  H   UNK A   0       5.044  -6.798  26.757  0.00  0.00    +0.144 HD
ATOM     33  H   UNK A   0       6.159  -5.508  26.869  0.00  0.00    +0.144 HD
ATOM     34  C   UNK A   0       6.242  -5.022  24.305  0.00  0.00    +0.148 A 
ATOM     35  N   UNK A   0       7.387  -4.462  24.810  0.00  0.00    -0.242 NA
ATOM     36  C   UNK A   0       8.061  -3.618  23.991  0.00  0.00    +0.077 A 
ATOM     37  C   UNK A   0       7.585  -3.359  22.716  0.00  0.00    +0.138 A 
ATOM     38  N   UNK A   0       6.448  -3.912  22.229  0.00  0.00    -0.232 NA
ATOM     39  C   UNK A   0       5.766  -4.757  23.014  0.00  0.00    +0.185 A 
ATOM     40  N   UNK A   0       4.651  -5.292  22.526  0.00  0.00    -0.193 NA
ENDBRANCH  24  36
ENDBRANCH  22  24
ENDBRANCH   1  22
TORSDOF 11
ENDMDL
MODEL 4
REMARK VINA RESULT:      -8.2      0.862      1.042
REMARK  Name = 
REMARK  11 active torsions:
REMARK  status: ('A' for Active; 'I' for Inactive)
REMARK    1  A    between atoms: C_7  and  C_8
REMARK    2  A    between atoms: C_8  and  N_9
REMARK    3  A    between atoms: N_9  and  C_10
REMARK    4  A    between atoms: C_13  and  C_16
REMARK    5  A    between atoms: N_18  and  CA_19
REMARK    6  A    between atoms: CA_19  and  CB_21
REMARK    7  A    between atoms: CA_19  and  C_26
REMARK    8  A    between atoms: CB_21  and  CG_22
REMARK    9  A    between atoms: CG_22  and  CD_23
REMARK   10  A    between atoms: CD_23  and  OE1_24
REMARK   11  A    between atoms: C_26  and  O_27
REMARK                            x       y       z     vdW  Elec       q    Type
REMARK                         _______ _______ _______ _____ _____    ______ ____
ROOT
ATOM      1  C   UNK A   0      10.019  -0.370  22.859  0.00  0.00    +0.027 A 
ATOM      2  C   UNK A   0      10.355   0.169  24.111  0.00  0.00    +0.023 A 
ATOM      3  C   UNK A   0      10.596   1.544  24.274  0.00  0.00    +0.015 A 
ATOM      4  C   UNK A   0      10.488   2.407  23.184  0.00  0.00    +0.037 A 
ATOM      5  C   UNK A   0      10.052   1.900  21.956  0.00  0.00    +0.015 A 
ATOM      6  C   UNK A   0       9.805   0.528  21.806  0.00  0.00    +0.023 A 
ENDROOT
BRANCH   4   7
ATOM      7  C   UNK A   0      10.846   3.848  23.341  0.00  0.00    +0.245 C 
ATOM      8  N   GLU A   1       9.799   4.697  23.631  0.00  0.00    -0.298 N 
ATOM      9  H   GLU A   1       8.864   4.326  23.745  0.00  0.00    +0.150 HD
ATOM     10  O   UNK A   0      11.992   4.258  23.195  0.00  0.00    -0.270 OA
BRANCH   8  11
ATOM     11  CA  GLU A   1      10.009   6.136  23.775  0.00  0.00    +0.182 C 
BRANCH  11  12
ATOM     12  C   GLU A   1      10.638   6.412  25.152  0.00  0.00    +0.325 C 
ATOM     13  OXT GLU A   1      10.020   6.377  26.207  0.00  0.00    -0.249 OA
BRANCH  12  14
ATOM     14  O   GLU A   1      11.959   6.692  25.086  0.00  0.00    -0.479 OA
ATOM     15  H   GLU A   1      12.477   5.980  24.644  0.00  0.00    +0.295 HD
ENDBRANCH  12  14
ENDBRANCH  11  12
BRANCH  11  16
ATOM     16  CB  GLU A   1       8.691   6.908  23.628  0.00  0.00    +0.045 C 
BRANCH  16  17
ATOM     17  CG  GLU A   1       7.485   5.971  23.572  0.00  0.00    +0.123 C 
BRANCH  17  18
ATOM     18  CD  GLU A   1       7.274   5.450  22.175  0.00  0.00    +0.305 C 
ATOM     19  OE2 GLU A   1       7.177   4.264  21.906  0.00  0.00    -0.251 OA
BRANCH  18  20
ATOM     20  OE1 GLU A   1       7.161   6.422  21.246  0.00  0.00    -0.481 OA
ATOM     21  HE1 GLU A   1       6.283   6.480  20.820  0.00  0.00    +0.295 HD
ENDBRANCH  18  20
ENDBRANCH  17  18
ENDBRANCH  16  17
ENDBRANCH  11  16
ENDBRANCH   8  11
ENDBRANCH   4   7
BRANCH   1  22
ATOM     22  N   UNK A   0       9.792  -1.744  22.744  0.00  0.00    -0.338 N 
ATOM     23  H   UNK A   0       8.977  -1.972  22.170  0.00  0.00    +0.146 HD
BRANCH  22  24
ATOM     24  C   UNK A   0       9.804  -2.575  23.954  0.00  0.00    +0.158 C 
BRANCH  24  36
ATOM     25  N   UNK A   0       3.832  -7.257  25.214  0.00  0.00    -0.327 N 
ATOM     26  H   UNK A   0       3.512  -7.439  26.154  0.00  0.00    +0.145 HD
ATOM     27  H   UNK A   0       3.154  -6.928  24.540  0.00  0.00    +0.145 HD
ATOM     28  C   UNK A   0       4.961  -6.467  25.211  0.00  0.00    +0.216 A 
ATOM     29  N   UNK A   0       5.711  -6.467  26.308  0.00  0.00    -0.198 NA
ATOM     30  C   UNK A   0       6.816  -5.706  26.277  0.00  0.00    +0.149 A 
ATOM     31  N   UNK A   0       7.643  -5.786  27.411  0.00  0.00    -0.341 N 
ATOM     32  H   UNK A   0       7.156  -6.277  28.153  0.00  0.00    +0.144 HD
ATOM     33  H   UNK A   0       8.006  -4.874  27.672  0.00  0.00    +0.144 HD
ATOM     34  C   UNK A   0       7.197  -4.929  25.190  0.00  0.00    +0.148 A 
ATOM     35  N   UNK A   0       8.325  -4.151  25.178  0.00  0.00    -0.242 NA
ATOM     36  C   UNK A   0       8.552  -3.427  24.055  0.00  0.00    +0.077 A 
ATOM     37  C   UNK A   0       7.663  -3.495  22.994  0.00  0.00    +0.138 A 
ATOM     38  N   UNK A   0       6.546  -4.262  23.018  0.00  0.00    -0.232 NA
ATOM     39  C   UNK A   0       6.302  -4.995  24.113  0.00  0.00    +0.185 A 
ATOM     40  N   UNK A   0       5.203  -5.742  24.126  0.00  0.00    -0.193 NA
ENDBRANCH  24  36
ENDBRANCH  22  24
ENDBRANCH   1  22
TORSDOF 11
ENDMDL
MODEL 5
REMARK VINA RESULT:      -8.2      1.539      3.370
REMARK  Name = 
REMARK  11 active torsions:
REMARK  status: ('A' for Active; 'I' for Inactive)
REMARK    1  A    between atoms: C_7  and  C_8
REMARK    2  A    between atoms: C_8  and  N_9
REMARK    3  A    between atoms: N_9  and  C_10
REMARK    4  A    between atoms: C_13  and  C_16
REMARK    5  A    between atoms: N_18  and  CA_19
REMARK    6  A    between atoms: CA_19  and  CB_21
REMARK    7  A    between atoms: CA_19  and  C_26
REMARK    8  A    between atoms: CB_21  and  CG_22
REMARK    9  A    between atoms: CG_22  and  CD_23
REMARK   10  A    between atoms: CD_23  and  OE1_24
REMARK   11  A    between atoms: C_26  and  O_27
REMARK                            x       y       z     vdW  Elec       q    Type
REMARK                         _______ _______ _______ _____ _____    ______ ____
ROOT
ATOM      1  C   UNK A   0       9.514  -0.906  24.229  0.00  0.00    +0.027 A 
ATOM      2  C   UNK A   0       8.189  -0.476  24.058  0.00  0.00    +0.023 A 
ATOM      3  C   UNK A   0       7.844   0.884  24.148  0.00  0.00    +0.015 A 
ATOM      4  C   UNK A   0       8.829   1.839  24.396  0.00  0.00    +0.037 A 
ATOM      5  C   UNK A   0      10.166   1.436  24.463  0.00  0.00    +0.015 A 
ATOM      6  C   UNK A   0      10.500   0.078  24.362  0.00  0.00    +0.023 A 
ENDROOT
BRANCH   4   7
ATOM      7  C   UNK A   0       8.443   3.268  24.595  0.00  0.00    +0.245 C 
ATOM      8  N   GLU A   1       8.473   4.058  23.465  0.00  0.00    -0.298 N 
ATOM      9  H   GLU A   1       8.723   3.654  22.571  0.00  0.00    +0.150 HD
ATOM     10  O   UNK A   0       8.146   3.720  25.695  0.00  0.00    -0.270 OA
BRANCH   8  11
ATOM     11  CA  GLU A   1       8.150   5.482  23.529  0.00  0.00    +0.182 C 
BRANCH  11  12
ATOM     12  C   GLU A   1       7.061   5.793  22.489  0.00  0.00    +0.325 C 
ATOM     13  OXT GLU A   1       5.860   5.681  22.698  0.00  0.00    -0.249 OA
BRANCH  12  14
ATOM     14  O   GLU A   1       7.561   6.217  21.306  0.00  0.00    -0.479 OA
ATOM     15  H   GLU A   1       8.543   6.150  21.263  0.00  0.00    +0.295 HD
ENDBRANCH  12  14
ENDBRANCH  11  12
BRANCH  11  16
ATOM     16  CB  GLU A   1       9.392   6.346  23.272  0.00  0.00    +0.045 C 
BRANCH  16  17
ATOM     17  CG  GLU A   1      10.449   6.164  24.362  0.00  0.00    +0.123 C 
BRANCH  17  18
ATOM     18  CD  GLU A   1      11.690   5.520  23.804  0.00  0.00    +0.305 C 
ATOM     19  OE2 GLU A   1      12.822   5.866  24.103  0.00  0.00    -0.251 OA
BRANCH  18  20
ATOM     20  OE1 GLU A   1      11.437   4.490  22.968  0.00  0.00    -0.481 OA
ATOM     21  HE1 GLU A   1      12.084   3.759  23.013  0.00  0.00    +0.295 HD
ENDBRANCH  18  20
ENDBRANCH  17  18
ENDBRANCH  16  17
ENDBRANCH  11  16
ENDBRANCH   8  11
ENDBRANCH   4   7
BRANCH   1  22
ATOM     22  N   UNK A   0       9.808  -2.269  24.134  0.00  0.00    -0.338 N 
ATOM     23  H   UNK A   0      10.685  -2.460  23.644  0.00  0.00    +0.146 HD
BRANCH  22  24
ATOM     24  C   UNK A   0       8.765  -3.196  23.677  0.00  0.00    +0.158 C 
BRANCH  24  36
ATOM     25  N   UNK A   0       5.162  -7.425  28.998  0.00  0.00    -0.327 N 
ATOM     26  H   UNK A   0       4.596  -8.216  28.727  0.00  0.00    +0.145 HD
ATOM     27  H   UNK A   0       5.890  -7.576  29.682  0.00  0.00    +0.145 HD
ATOM     28  C   UNK A   0       5.645  -6.753  27.896  0.00  0.00    +0.216 A 
ATOM     29  N   UNK A   0       4.976  -6.886  26.755  0.00  0.00    -0.198 NA
ATOM     30  C   UNK A   0       5.454  -6.208  25.700  0.00  0.00    +0.149 A 
ATOM     31  N   UNK A   0       4.684  -6.288  24.526  0.00  0.00    -0.341 N 
ATOM     32  H   UNK A   0       3.982  -7.013  24.628  0.00  0.00    +0.144 HD
ATOM     33  H   UNK A   0       5.272  -6.380  23.703  0.00  0.00    +0.144 HD
ATOM     34  C   UNK A   0       6.588  -5.407  25.737  0.00  0.00    +0.148 A 
ATOM     35  N   UNK A   0       7.067  -4.727  24.646  0.00  0.00    -0.242 NA
ATOM     36  C   UNK A   0       8.201  -4.008  24.829  0.00  0.00    +0.077 A 
ATOM     37  C   UNK A   0       8.817  -3.987  26.070  0.00  0.00    +0.138 A 
ATOM     38  N   UNK A   0       8.341  -4.668  27.140  0.00  0.00    -0.232 NA
ATOM     39  C   UNK A   0       7.216  -5.381  26.989  0.00  0.00    +0.185 A 
ATOM     40  N   UNK A   0       6.759  -6.046  28.046  0.00  0.00    -0.193 NA
ENDBRANCH  24  36
ENDBRANCH  22  24
ENDBRANCH   1  22
TORSDOF 11
ENDMDL
MODEL 6
REMARK VINA RESULT:      -7.9      1.816      3.283
REMARK  Name = 
REMARK  11 active torsions:
REMARK  status: ('A' for Active; 'I' for Inactive)
REMARK    1  A    between atoms: C_7  and  C_8
REMARK    2  A    between atoms: C_8  and  N_9
REMARK    3  A    between atoms: N_9  and  C_10
REMARK    4  A    between atoms: C_13  and  C_16
REMARK    5  A    between atoms: N_18  and  CA_19
REMARK    6  A    between atoms: CA_19  and  CB_21
REMARK    7  A    between atoms: CA_19  and  C_26
REMARK    8  A    between atoms: CB_21  and  CG_22
REMARK    9  A    between atoms: CG_22  and  CD_23
REMARK   10  A    between atoms: CD_23  and  OE1_24
REMARK   11  A    between atoms: C_26  and  O_27
REMARK                            x       y       z     vdW  Elec       q    Type
REMARK                         _______ _______ _______ _____ _____    ______ ____
ROOT
ATOM      1  C   UNK A   0       9.398  -0.833  23.570  0.00  0.00    +0.027 A 
ATOM      2  C   UNK A   0      10.201  -0.112  24.466  0.00  0.00    +0.023 A 
ATOM      3  C   UNK A   0       9.897   1.215  24.816  0.00  0.00    +0.015 A 
ATOM      4  C   UNK A   0       8.769   1.837  24.282  0.00  0.00    +0.037 A 
ATOM      5  C   UNK A   0       7.903   1.096  23.472  0.00  0.00    +0.015 A 
ATOM      6  C   UNK A   0       8.211  -0.230  23.137  0.00  0.00    +0.023 A 
ENDROOT
BRANCH   4   7
ATOM      7  C   UNK A   0       8.509   3.278  24.573  0.00  0.00    +0.245 C 
ATOM      8  N   GLU A   1       8.698   4.146  23.518  0.00  0.00    -0.298 N 
ATOM      9  H   GLU A   1       8.972   3.787  22.612  0.00  0.00    +0.150 HD
ATOM     10  O   UNK A   0       8.177   3.672  25.685  0.00  0.00    -0.270 OA
BRANCH   8  11
ATOM     11  CA  GLU A   1       8.510   5.586  23.680  0.00  0.00    +0.182 C 
BRANCH  11  12
ATOM     12  C   GLU A   1       7.354   6.042  22.773  0.00  0.00    +0.325 C 
ATOM     13  OXT GLU A   1       6.221   6.276  23.171  0.00  0.00    -0.249 OA
BRANCH  12  14
ATOM     14  O   GLU A   1       7.715   6.171  21.476  0.00  0.00    -0.479 OA
ATOM     15  H   GLU A   1       8.507   6.746  21.357  0.00  0.00    +0.295 HD
ENDBRANCH  12  14
ENDBRANCH  11  12
BRANCH  11  16
ATOM     16  CB  GLU A   1       9.792   6.356  23.334  0.00  0.00    +0.045 C 
BRANCH  16  17
ATOM     17  CG  GLU A   1      10.899   6.110  24.359  0.00  0.00    +0.123 C 
BRANCH  17  18
ATOM     18  CD  GLU A   1      12.003   5.275  23.768  0.00  0.00    +0.305 C 
ATOM     19  OE2 GLU A   1      11.823   4.181  23.259  0.00  0.00    -0.251 OA
BRANCH  18  20
ATOM     20  OE1 GLU A   1      13.215   5.867  23.816  0.00  0.00    -0.481 OA
ATOM     21  HE1 GLU A   1      13.657   5.824  24.687  0.00  0.00    +0.295 HD
ENDBRANCH  18  20
ENDBRANCH  17  18
ENDBRANCH  16  17
ENDBRANCH  11  16
ENDBRANCH   8  11
ENDBRANCH   4   7
BRANCH   1  22
ATOM     22  N   UNK A   0       9.741  -2.150  23.250  0.00  0.00    -0.338 N 
ATOM     23  H   UNK A   0       9.501  -2.409  22.291  0.00  0.00    +0.146 HD
BRANCH  22  24
ATOM     24  C   UNK A   0       9.369  -3.231  24.171  0.00  0.00    +0.158 C 
BRANCH  24  36
ATOM     25  N   UNK A   0       2.727  -6.917  22.959  0.00  0.00    -0.327 N 
ATOM     26  H   UNK A   0       2.106  -7.119  23.728  0.00  0.00    +0.145 HD
ATOM     27  H   UNK A   0       2.349  -6.422  22.162  0.00  0.00    +0.145 HD
ATOM     28  C   UNK A   0       3.896  -6.334  23.398  0.00  0.00    +0.216 A 
ATOM     29  N   UNK A   0       4.253  -6.552  24.659  0.00  0.00    -0.198 NA
ATOM     30  C   UNK A   0       5.403  -5.990  25.061  0.00  0.00    +0.149 A 
ATOM     31  N   UNK A   0       5.811  -6.304  26.369  0.00  0.00    -0.341 N 
ATOM     32  H   UNK A   0       5.052  -6.764  26.860  0.00  0.00    +0.144 HD
ATOM     33  H   UNK A   0       6.193  -5.492  26.844  0.00  0.00    +0.144 HD
ATOM     34  C   UNK A   0       6.210  -5.202  24.249  0.00  0.00    +0.148 A 
ATOM     35  N   UNK A   0       7.380  -4.629  24.678  0.00  0.00    -0.242 NA
ATOM     36  C   UNK A   0       8.046  -3.863  23.780  0.00  0.00    +0.077 A 
ATOM     37  C   UNK A   0       7.538  -3.691  22.502  0.00  0.00    +0.138 A 
ATOM     38  N   UNK A   0       6.377  -4.256  22.090  0.00  0.00    -0.232 NA
ATOM     39  C   UNK A   0       5.702  -5.025  22.955  0.00  0.00    +0.185 A 
ATOM     40  N   UNK A   0       4.564  -5.572  22.540  0.00  0.00    -0.193 NA
ENDBRANCH  24  36
ENDBRANCH  22  24
ENDBRANCH   1  22
TORSDOF 11
ENDMDL
MODEL 7
REMARK VINA RESULT:      -7.9      1.243      2.288
REMARK  Name = 
REMARK  11 active torsions:
REMARK  status: ('A' for Active; 'I' for Inactive)
REMARK    1  A    between atoms: C_7  and  C_8
REMARK    2  A    between atoms: C_8  and  N_9
REMARK    3  A    between atoms: N_9  and  C_10
REMARK    4  A    between atoms: C_13  and  C_16
REMARK    5  A    between atoms: N_18  and  CA_19
REMARK    6  A    between atoms: CA_19  and  CB_21
REMARK    7  A    between atoms: CA_19  and  C_26
REMARK    8  A    between atoms: CB_21  and  CG_22
REMARK    9  A    between atoms: CG_22  and  CD_23
REMARK   10  A    between atoms: CD_23  and  OE1_24
REMARK   11  A    between atoms: C_26  and  O_27
REMARK                            x       y       z     vdW  Elec       q    Type
REMARK                         _______ _______ _______ _____ _____    ______ ____
ROOT
ATOM      1  C   UNK A   0       9.628  -0.702  23.245  0.00  0.00    +0.027 A 
ATOM      2  C   UNK A   0       9.554   0.093  22.091  0.00  0.00    +0.023 A 
ATOM      3  C   UNK A   0       9.899   1.456  22.118  0.00  0.00    +0.015 A 
ATOM      4  C   UNK A   0      10.342   2.040  23.304  0.00  0.00    +0.037 A 
ATOM      5  C   UNK A   0      10.520   1.236  24.434  0.00  0.00    +0.015 A 
ATOM      6  C   UNK A   0      10.182  -0.124  24.393  0.00  0.00    +0.023 A 
ENDROOT
BRANCH   4   7
ATOM      7  C   UNK A   0      10.606   3.509  23.353  0.00  0.00    +0.245 C 
ATOM      8  N   GLU A   1       9.494   4.314  23.479  0.00  0.00    -0.298 N 
ATOM      9  H   GLU A   1       8.574   3.897  23.555  0.00  0.00    +0.150 HD
ATOM     10  O   UNK A   0      11.736   3.974  23.259  0.00  0.00    -0.270 OA
BRANCH   8  11
ATOM     11  CA  GLU A   1       9.612   5.770  23.504  0.00  0.00    +0.182 C 
BRANCH  11  12
ATOM     12  C   GLU A   1       9.843   6.226  24.955  0.00  0.00    +0.325 C 
ATOM     13  OXT GLU A   1      10.813   6.873  25.326  0.00  0.00    -0.249 OA
BRANCH  12  14
ATOM     14  O   GLU A   1       8.854   5.845  25.796  0.00  0.00    -0.479 OA
ATOM     15  H   GLU A   1       8.572   6.568  26.404  0.00  0.00    +0.295 HD
ENDBRANCH  12  14
ENDBRANCH  11  12
BRANCH  11  16
ATOM     16  CB  GLU A   1       8.357   6.441  22.930  0.00  0.00    +0.045 C 
BRANCH  16  17
ATOM     17  CG  GLU A   1       7.471   5.445  22.180  0.00  0.00    +0.123 C 
BRANCH  17  18
ATOM     18  CD  GLU A   1       6.295   5.031  23.023  0.00  0.00    +0.305 C 
ATOM     19  OE2 GLU A   1       6.326   4.973  24.242  0.00  0.00    -0.251 OA
BRANCH  18  20
ATOM     20  OE1 GLU A   1       5.182   4.766  22.307  0.00  0.00    -0.481 OA
ATOM     21  HE1 GLU A   1       5.341   4.579  21.360  0.00  0.00    +0.295 HD
ENDBRANCH  18  20
ENDBRANCH  17  18
ENDBRANCH  16  17
ENDBRANCH  11  16
ENDBRANCH   8  11
ENDBRANCH   4   7
BRANCH   1  22
ATOM     22  N   UNK A   0       9.271  -2.051  23.169  0.00  0.00    -0.338 N 
ATOM     23  H   UNK A   0       8.261  -2.199  23.100  0.00  0.00    +0.146 HD
BRANCH  22  24
ATOM     24  C   UNK A   0       9.853  -3.000  24.126  0.00  0.00    +0.158 C 
BRANCH  24  36
ATOM     25  N   UNK A   0       3.982  -7.381  26.475  0.00  0.00    -0.327 N 
ATOM     26  H   UNK A   0       3.492  -7.974  25.821  0.00  0.00    +0.145 HD
ATOM     27  H   UNK A   0       4.353  -7.806  27.313  0.00  0.00    +0.145 HD
ATOM     28  C   UNK A   0       4.937  -6.617  25.840  0.00  0.00    +0.216 A 
ATOM     29  N   UNK A   0       4.774  -6.387  24.541  0.00  0.00    -0.198 NA
ATOM     30  C   UNK A   0       5.706  -5.625  23.946  0.00  0.00    +0.149 A 
ATOM     31  N   UNK A   0       5.470  -5.319  22.595  0.00  0.00    -0.341 N 
ATOM     32  H   UNK A   0       4.713  -5.894  22.243  0.00  0.00    +0.144 HD
ATOM     33  H   UNK A   0       6.326  -5.363  22.050  0.00  0.00    +0.144 HD
ATOM     34  C   UNK A   0       6.808  -5.091  24.601  0.00  0.00    +0.148 A 
ATOM     35  N   UNK A   0       7.755  -4.320  23.977  0.00  0.00    -0.242 NA
ATOM     36  C   UNK A   0       8.790  -3.892  24.740  0.00  0.00    +0.077 A 
ATOM     37  C   UNK A   0       8.853  -4.238  26.080  0.00  0.00    +0.138 A 
ATOM     38  N   UNK A   0       7.916  -5.007  26.687  0.00  0.00    -0.232 NA
ATOM     39  C   UNK A   0       6.878  -5.436  25.957  0.00  0.00    +0.185 A 
ATOM     40  N   UNK A   0       5.966  -6.190  26.563  0.00  0.00    -0.193 NA
ENDBRANCH  24  36
ENDBRANCH  22  24
ENDBRANCH   1  22
TORSDOF 11
ENDMDL
MODEL 8
REMARK VINA RESULT:      -7.7      4.445      9.717
REMARK  Name = 
REMARK  11 active torsions:
REMARK  status: ('A' for Active; 'I' for Inactive)
REMARK    1  A    between atoms: C_7  and  C_8
REMARK    2  A    between atoms: C_8  and  N_9
REMARK    3  A    between atoms: N_9  and  C_10
REMARK    4  A    between atoms: C_13  and  C_16
REMARK    5  A    between atoms: N_18  and  CA_19
REMARK    6  A    between atoms: CA_19  and  CB_21
REMARK    7  A    between atoms: CA_19  and  C_26
REMARK    8  A    between atoms: CB_21  and  CG_22
REMARK    9  A    between atoms: CG_22  and  CD_23
REMARK   10  A    between atoms: CD_23  and  OE1_24
REMARK   11  A    between atoms: C_26  and  O_27
REMARK                            x       y       z     vdW  Elec       q    Type
REMARK                         _______ _______ _______ _____ _____    ______ ____
ROOT
ATOM      1  C   UNK A   0      10.172   1.581  22.757  0.00  0.00    +0.027 A 
ATOM      2  C   UNK A   0      10.466   0.956  23.979  0.00  0.00    +0.023 A 
ATOM      3  C   UNK A   0      10.180  -0.403  24.192  0.00  0.00    +0.015 A 
ATOM      4  C   UNK A   0       9.607  -1.165  23.174  0.00  0.00    +0.037 A 
ATOM      5  C   UNK A   0       9.407  -0.582  21.919  0.00  0.00    +0.015 A 
ATOM      6  C   UNK A   0       9.705   0.773  21.714  0.00  0.00    +0.023 A 
ENDROOT
BRANCH   4   7
ATOM      7  C   UNK A   0       9.209  -2.579  23.440  0.00  0.00    +0.245 C 
ATOM      8  N   GLU A   1       7.981  -2.959  22.942  0.00  0.00    -0.298 N 
ATOM      9  H   GLU A   1       7.423  -2.299  22.413  0.00  0.00    +0.150 HD
ATOM     10  O   UNK A   0       9.914  -3.348  24.085  0.00  0.00    -0.270 OA
BRANCH   8  11
ATOM     11  CA  GLU A   1       7.459  -4.306  23.163  0.00  0.00    +0.182 C 
BRANCH  11  12
ATOM     12  C   GLU A   1       6.710  -4.763  21.899  0.00  0.00    +0.325 C 
ATOM     13  OXT GLU A   1       5.806  -4.130  21.370  0.00  0.00    -0.249 OA
BRANCH  12  14
ATOM     14  O   GLU A   1       7.156  -5.944  21.414  0.00  0.00    -0.479 OA
ATOM     15  H   GLU A   1       7.678  -5.842  20.585  0.00  0.00    +0.295 HD
ENDBRANCH  12  14
ENDBRANCH  11  12
BRANCH  11  16
ATOM     16  CB  GLU A   1       6.523  -4.347  24.378  0.00  0.00    +0.045 C 
BRANCH  16  17
ATOM     17  CG  GLU A   1       6.918  -5.447  25.364  0.00  0.00    +0.123 C 
BRANCH  17  18
ATOM     18  CD  GLU A   1       7.621  -4.868  26.562  0.00  0.00    +0.305 C 
ATOM     19  OE2 GLU A   1       7.826  -3.675  26.712  0.00  0.00    -0.251 OA
BRANCH  18  20
ATOM     20  OE1 GLU A   1       7.972  -5.791  27.483  0.00  0.00    -0.481 OA
ATOM     21  HE1 GLU A   1       8.078  -6.698  27.132  0.00  0.00    +0.295 HD
ENDBRANCH  18  20
ENDBRANCH  17  18
ENDBRANCH  16  17
ENDBRANCH  11  16
ENDBRANCH   8  11
ENDBRANCH   4   7
BRANCH   1  22
ATOM     22  N   UNK A   0      10.472   2.936  22.593  0.00  0.00    -0.338 N 
ATOM     23  H   UNK A   0      11.344   3.098  22.083  0.00  0.00    +0.146 HD
BRANCH  22  24
ATOM     24  C   UNK A   0      10.394   3.833  23.752  0.00  0.00    +0.158 C 
BRANCH  24  36
ATOM     25  N   UNK A   0       3.341   6.871  24.200  0.00  0.00    -0.327 N 
ATOM     26  H   UNK A   0       2.826   7.097  23.361  0.00  0.00    +0.145 HD
ATOM     27  H   UNK A   0       2.893   6.275  24.883  0.00  0.00    +0.145 HD
ATOM     28  C   UNK A   0       4.610   6.422  23.904  0.00  0.00    +0.216 A 
ATOM     29  N   UNK A   0       5.132   6.786  22.737  0.00  0.00    -0.198 NA
ATOM     30  C   UNK A   0       6.375   6.354  22.477  0.00  0.00    +0.149 A 
ATOM     31  N   UNK A   0       6.945   6.821  21.280  0.00  0.00    -0.341 N 
ATOM     32  H   UNK A   0       6.231   7.267  20.715  0.00  0.00    +0.144 HD
ATOM     33  H   UNK A   0       7.466   6.089  20.806  0.00  0.00    +0.144 HD
ATOM     34  C   UNK A   0       7.119   5.556  23.339  0.00  0.00    +0.148 A 
ATOM     35  N   UNK A   0       8.386   5.117  23.054  0.00  0.00    -0.242 NA
ATOM     36  C   UNK A   0       8.975   4.322  23.981  0.00  0.00    +0.077 A 
ATOM     37  C   UNK A   0       8.298   3.991  25.143  0.00  0.00    +0.138 A 
ATOM     38  N   UNK A   0       7.043   4.424  25.412  0.00  0.00    -0.232 NA
ATOM     39  C   UNK A   0       6.440   5.219  24.517  0.00  0.00    +0.185 A 
ATOM     40  N   UNK A   0       5.207   5.636  24.791  0.00  0.00    -0.193 NA
ENDBRANCH  24  36
ENDBRANCH  22  24
ENDBRANCH   1  22
TORSDOF 11
ENDMDL
MODEL 9
REMARK VINA RESULT:      -7.7      1.655      2.956
REMARK  Name = 
REMARK  11 active torsions:
REMARK  status: ('A' for Active; 'I' for Inactive)
REMARK    1  A    between atoms: C_7  and  C_8
REMARK    2  A    between atoms: C_8  and  N_9
REMARK    3  A    between atoms: N_9  and  C_10
REMARK    4  A    between atoms: C_13  and  C_16
REMARK    5  A    between atoms: N_18  and  CA_19
REMARK    6  A    between atoms: CA_19  and  CB_21
REMARK    7  A    between atoms: CA_19  and  C_26
REMARK    8  A    between atoms: CB_21  and  CG_22
REMARK    9  A    between atoms: CG_22  and  CD_23
REMARK   10  A    between atoms: CD_23  and  OE1_24
REMARK   11  A    between atoms: C_26  and  O_27
REMARK                            x       y       z     vdW  Elec       q    Type
REMARK                         _______ _______ _______ _____ _____    ______ ____
ROOT
ATOM      1  C   UNK A   0       9.789  -1.597  23.915  0.00  0.00    +0.027 A 
ATOM      2  C   UNK A   0      10.096  -1.108  22.635  0.00  0.00    +0.023 A 
ATOM      3  C   UNK A   0      10.083   0.269  22.356  0.00  0.00    +0.015 A 
ATOM      4  C   UNK A   0       9.777   1.184  23.364  0.00  0.00    +0.037 A 
ATOM      5  C   UNK A   0       9.574   0.717  24.666  0.00  0.00    +0.015 A 
ATOM      6  C   UNK A   0       9.599  -0.659  24.936  0.00  0.00    +0.023 A 
ENDROOT
BRANCH   4   7
ATOM      7  C   UNK A   0       9.662   2.636  23.038  0.00  0.00    +0.245 C 
ATOM      8  N   GLU A   1      10.720   3.425  23.438  0.00  0.00    -0.298 N 
ATOM      9  H   GLU A   1      11.517   3.005  23.901  0.00  0.00    +0.150 HD
ATOM     10  O   UNK A   0       8.680   3.106  22.475  0.00  0.00    -0.270 OA
BRANCH   8  11
ATOM     11  CA  GLU A   1      10.717   4.868  23.210  0.00  0.00    +0.182 C 
BRANCH  11  12
ATOM     12  C   GLU A   1      12.169   5.376  23.210  0.00  0.00    +0.325 C 
ATOM     13  OXT GLU A   1      12.776   5.720  24.215  0.00  0.00    -0.249 OA
BRANCH  12  14
ATOM     14  O   GLU A   1      12.724   5.398  21.977  0.00  0.00    -0.479 OA
ATOM     15  H   GLU A   1      13.382   6.123  21.870  0.00  0.00    +0.295 HD
ENDBRANCH  12  14
ENDBRANCH  11  12
BRANCH  11  16
ATOM     16  CB  GLU A   1       9.899   5.599  24.284  0.00  0.00    +0.045 C 
BRANCH  16  17
ATOM     17  CG  GLU A   1       9.118   6.778  23.702  0.00  0.00    +0.123 C 
BRANCH  17  18
ATOM     18  CD  GLU A   1       7.834   6.312  23.069  0.00  0.00    +0.305 C 
ATOM     19  OE2 GLU A   1       6.799   6.140  23.692  0.00  0.00    -0.251 OA
BRANCH  18  20
ATOM     20  OE1 GLU A   1       7.920   6.139  21.733  0.00  0.00    -0.481 OA
ATOM     21  HE1 GLU A   1       7.085   5.870  21.301  0.00  0.00    +0.295 HD
ENDBRANCH  18  20
ENDBRANCH  17  18
ENDBRANCH  16  17
ENDBRANCH  11  16
ENDBRANCH   8  11
ENDBRANCH   4   7
BRANCH   1  22
ATOM     22  N   UNK A   0       9.812  -2.975  24.144  0.00  0.00    -0.338 N 
ATOM     23  H   UNK A   0       9.454  -3.522  23.357  0.00  0.00    +0.146 HD
BRANCH  22  24
ATOM     24  C   UNK A   0       9.276  -3.501  25.405  0.00  0.00    +0.158 C 
BRANCH  24  36
ATOM     25  N   UNK A   0       2.803  -7.190  23.494  0.00  0.00    -0.327 N 
ATOM     26  H   UNK A   0       2.588  -7.380  22.526  0.00  0.00    +0.145 HD
ATOM     27  H   UNK A   0       2.799  -7.968  24.140  0.00  0.00    +0.145 HD
ATOM     28  C   UNK A   0       3.957  -6.447  23.615  0.00  0.00    +0.216 A 
ATOM     29  N   UNK A   0       4.325  -5.712  22.571  0.00  0.00    -0.198 NA
ATOM     30  C   UNK A   0       5.441  -4.982  22.717  0.00  0.00    +0.149 A 
ATOM     31  N   UNK A   0       5.766  -4.142  21.637  0.00  0.00    -0.341 N 
ATOM     32  H   UNK A   0       5.188  -4.378  20.838  0.00  0.00    +0.144 HD
ATOM     33  H   UNK A   0       6.765  -4.144  21.453  0.00  0.00    +0.144 HD
ATOM     34  C   UNK A   0       6.217  -4.967  23.870  0.00  0.00    +0.148 A 
ATOM     35  N   UNK A   0       7.360  -4.220  24.000  0.00  0.00    -0.242 NA
ATOM     36  C   UNK A   0       8.026  -4.330  25.175  0.00  0.00    +0.077 A 
ATOM     37  C   UNK A   0       7.546  -5.166  26.170  0.00  0.00    +0.138 A 
ATOM     38  N   UNK A   0       6.419  -5.906  26.029  0.00  0.00    -0.232 NA
ATOM     39  C   UNK A   0       5.736  -5.810  24.881  0.00  0.00    +0.185 A 
ATOM     40  N   UNK A   0       4.633  -6.541  24.754  0.00  0.00    -0.193 NA
ENDBRANCH  24  36
ENDBRANCH  22  24
ENDBRANCH   1  22
TORSDOF 11
ENDMDL
