MODEL 1
REMARK VINA RESULT:      -5.8      0.000      0.000
REMARK  Name = 
REMARK  3 active torsions:
REMARK  status: ('A' for Active; 'I' for Inactive)
REMARK    1  A    between atoms: O_1  and  C_2
REMARK    2  A    between atoms: C_2  and  C_4
REMARK    3  A    between atoms: N_6  and  C_9
REMARK                            x       y       z     vdW  Elec       q    Type
REMARK                         _______ _______ _______ _____ _____    ______ ____
ROOT
ATOM      1  C   UNL     1       8.844  -4.065  24.485  0.00  0.00    +0.097 A 
ATOM      2  C   UNL     1       7.960  -3.940  23.394  0.00  0.00    +0.149 A 
ATOM      3  N   UNL     1       8.044  -2.755  22.789  0.00  0.00    -0.174 NA
ATOM      4  N   UNL     1       8.998  -2.079  23.477  0.00  0.00    -0.239 N 
ATOM      5  C   UNL     1       9.502  -2.851  24.509  0.00  0.00    +0.129 A 
ENDROOT
BRANCH   4   6
ATOM      6  C   UNL     1       9.367  -0.752  23.124  0.00  0.00    +0.065 A 
ATOM      7  C   UNL     1      10.084   0.034  24.041  0.00  0.00    +0.028 A 
ATOM      8  C   UNL     1      10.464   1.336  23.703  0.00  0.00    +0.002 A 
ATOM      9  C   UNL     1      10.134   1.860  22.455  0.00  0.00    +0.000 A 
ATOM     10  C   UNL     1       9.419   1.088  21.543  0.00  0.00    +0.002 A 
ATOM     11  C   UNL     1       9.034  -0.214  21.873  0.00  0.00    +0.028 A 
ENDBRANCH   4   6
BRANCH   1  12
ATOM     12  C   UNL     1       9.000  -5.222  25.343  0.00  0.00    +0.340 C 
ATOM     13  O   UNL     1       8.075  -5.714  25.971  0.00  0.00    -0.245 OA
BRANCH  12  14
ATOM     14  O   UNL     1      10.255  -5.733  25.415  0.00  0.00    -0.477 OA
ATOM     15  H   UNL     1      10.279  -6.693  25.565  0.00  0.00    +0.295 HD
ENDBRANCH  12  14
ENDBRANCH   1  12
TORSDOF 3
ENDMDL
MODEL 2
REMARK VINA RESULT:      -5.7      1.334      2.011
REMARK  Name = 
REMARK  3 active torsions:
REMARK  status: ('A' for Active; 'I' for Inactive)
REMARK    1  A    between atoms: O_1  and  C_2
REMARK    2  A    between atoms: C_2  and  C_4
REMARK    3  A    between atoms: N_6  and  C_9
REMARK                            x       y       z     vdW  Elec       q    Type
REMARK                         _______ _______ _______ _____ _____    ______ ____
ROOT
ATOM      1  C   UNL     1       8.589  -3.880  25.777  0.00  0.00    +0.097 A 
ATOM      2  C   UNL     1       9.551  -4.350  24.861  0.00  0.00    +0.149 A 
ATOM      3  N   UNL     1      10.047  -3.385  24.085  0.00  0.00    -0.174 NA
ATOM      4  N   UNL     1       9.413  -2.256  24.487  0.00  0.00    -0.239 N 
ATOM      5  C   UNL     1       8.526  -2.526  25.514  0.00  0.00    +0.129 A 
ENDROOT
BRANCH   4   6
ATOM      6  C   UNL     1       9.679  -0.998  23.876  0.00  0.00    +0.065 A 
ATOM      7  C   UNL     1       9.520  -0.856  22.489  0.00  0.00    +0.028 A 
ATOM      8  C   UNL     1       9.766   0.376  21.877  0.00  0.00    +0.002 A 
ATOM      9  C   UNL     1      10.169   1.469  22.642  0.00  0.00    +0.000 A 
ATOM     10  C   UNL     1      10.333   1.334  24.018  0.00  0.00    +0.002 A 
ATOM     11  C   UNL     1      10.090   0.105  24.637  0.00  0.00    +0.028 A 
ENDBRANCH   4   6
BRANCH   1  12
ATOM     12  C   UNL     1       7.869  -4.670  26.756  0.00  0.00    +0.340 C 
ATOM     13  O   UNL     1       7.023  -4.198  27.499  0.00  0.00    -0.245 OA
BRANCH  12  14
ATOM     14  O   UNL     1       8.199  -5.986  26.803  0.00  0.00    -0.477 OA
ATOM     15  H   UNL     1       7.602  -6.519  27.355  0.00  0.00    +0.295 HD
ENDBRANCH  12  14
ENDBRANCH   1  12
TORSDOF 3
ENDMDL
MODEL 3
REMARK VINA RESULT:      -5.6      2.373      3.230
REMARK  Name = 
REMARK  3 active torsions:
REMARK  status: ('A' for Active; 'I' for Inactive)
REMARK    1  A    between atoms: O_1  and  C_2
REMARK    2  A    between atoms: C_2  and  C_4
REMARK    3  A    between atoms: N_6  and  C_9
REMARK                            x       y       z     vdW  Elec       q    Type
REMARK                         _______ _______ _______ _____ _____    ______ ____
ROOT
ATOM      1  C   UNL     1       7.089  -4.813  22.384  0.00  0.00    +0.097 A 
ATOM      2  C   UNL     1       7.894  -5.149  23.491  0.00  0.00    +0.149 A 
ATOM      3  N   UNL     1       8.682  -4.148  23.885  0.00  0.00    -0.174 NA
ATOM      4  N   UNL     1       8.400  -3.129  23.037  0.00  0.00    -0.239 N 
ATOM      5  C   UNL     1       7.435  -3.503  22.118  0.00  0.00    +0.129 A 
ENDROOT
BRANCH   4   6
ATOM      6  C   UNL     1       9.059  -1.872  23.141  0.00  0.00    +0.065 A 
ATOM      7  C   UNL     1       9.212  -1.074  21.997  0.00  0.00    +0.028 A 
ATOM      8  C   UNL     1       9.847   0.168  22.087  0.00  0.00    +0.002 A 
ATOM      9  C   UNL     1      10.332   0.619  23.313  0.00  0.00    +0.000 A 
ATOM     10  C   UNL     1      10.189  -0.170  24.452  0.00  0.00    +0.002 A 
ATOM     11  C   UNL     1       9.556  -1.413  24.370  0.00  0.00    +0.028 A 
ENDBRANCH   4   6
BRANCH   1  12
ATOM     12  C   UNL     1       6.128  -5.672  21.721  0.00  0.00    +0.340 C 
ATOM     13  O   UNL     1       5.952  -5.664  20.513  0.00  0.00    -0.245 OA
BRANCH  12  14
ATOM     14  O   UNL     1       5.419  -6.494  22.536  0.00  0.00    -0.477 OA
ATOM     15  H   UNL     1       5.864  -6.688  23.379  0.00  0.00    +0.295 HD
ENDBRANCH  12  14
ENDBRANCH   1  12
TORSDOF 3
ENDMDL
MODEL 4
REMARK VINA RESULT:      -5.4      3.600      5.889
REMARK  Name = 
REMARK  3 active torsions:
REMARK  status: ('A' for Active; 'I' for Inactive)
REMARK    1  A    between atoms: O_1  and  C_2
REMARK    2  A    between atoms: C_2  and  C_4
REMARK    3  A    between atoms: N_6  and  C_9
REMARK                            x       y       z     vdW  Elec       q    Type
REMARK                         _______ _______ _______ _____ _____    ______ ____
ROOT
ATOM      1  C   UNL     1       9.967   0.815  23.360  0.00  0.00    +0.097 A 
ATOM      2  C   UNL     1      10.135   0.451  24.711  0.00  0.00    +0.149 A 
ATOM      3  N   UNL     1       9.721  -0.789  24.973  0.00  0.00    -0.174 NA
ATOM      4  N   UNL     1       9.275  -1.265  23.785  0.00  0.00    -0.239 N 
ATOM      5  C   UNL     1       9.415  -0.315  22.788  0.00  0.00    +0.129 A 
ENDROOT
BRANCH   4   6
ATOM      6  C   UNL     1       8.740  -2.578  23.664  0.00  0.00    +0.065 A 
ATOM      7  C   UNL     1       7.869  -2.875  22.605  0.00  0.00    +0.028 A 
ATOM      8  C   UNL     1       7.346  -4.164  22.468  0.00  0.00    +0.002 A 
ATOM      9  C   UNL     1       7.687  -5.160  23.381  0.00  0.00    +0.000 A 
ATOM     10  C   UNL     1       8.546  -4.870  24.438  0.00  0.00    +0.002 A 
ATOM     11  C   UNL     1       9.073  -3.584  24.583  0.00  0.00    +0.028 A 
ENDBRANCH   4   6
BRANCH   1  12
ATOM     12  C   UNL     1      10.318   2.084  22.756  0.00  0.00    +0.340 C 
ATOM     13  O   UNL     1      10.915   2.964  23.356  0.00  0.00    -0.245 OA
BRANCH  12  14
ATOM     14  O   UNL     1       9.934   2.242  21.463  0.00  0.00    -0.477 OA
ATOM     15  H   UNL     1       9.811   1.404  20.987  0.00  0.00    +0.295 HD
ENDBRANCH  12  14
ENDBRANCH   1  12
TORSDOF 3
ENDMDL
MODEL 5
REMARK VINA RESULT:      -5.2      3.376      5.645
REMARK  Name = 
REMARK  3 active torsions:
REMARK  status: ('A' for Active; 'I' for Inactive)
REMARK    1  A    between atoms: O_1  and  C_2
REMARK    2  A    between atoms: C_2  and  C_4
REMARK    3  A    between atoms: N_6  and  C_9
REMARK                            x       y       z     vdW  Elec       q    Type
REMARK                         _______ _______ _______ _____ _____    ______ ____
ROOT
ATOM      1  C   UNL     1       9.716   0.295  22.753  0.00  0.00    +0.097 A 
ATOM      2  C   UNL     1       9.454  -0.527  21.638  0.00  0.00    +0.149 A 
ATOM      3  N   UNL     1       9.021  -1.741  21.976  0.00  0.00    -0.174 NA
ATOM      4  N   UNL     1       8.986  -1.734  23.332  0.00  0.00    -0.239 N 
ATOM      5  C   UNL     1       9.399  -0.510  23.829  0.00  0.00    +0.129 A 
ENDROOT
BRANCH   4   6
ATOM      6  C   UNL     1       8.573  -2.877  24.070  0.00  0.00    +0.065 A 
ATOM      7  C   UNL     1       8.777  -2.915  25.458  0.00  0.00    +0.028 A 
ATOM      8  C   UNL     1       8.365  -4.027  26.198  0.00  0.00    +0.002 A 
ATOM      9  C   UNL     1       7.751  -5.104  25.561  0.00  0.00    +0.000 A 
ATOM     10  C   UNL     1       7.551  -5.076  24.183  0.00  0.00    +0.002 A 
ATOM     11  C   UNL     1       7.960  -3.968  23.436  0.00  0.00    +0.028 A 
ENDBRANCH   4   6
BRANCH   1  12
ATOM     12  C   UNL     1      10.192   1.664  22.726  0.00  0.00    +0.340 C 
ATOM     13  O   UNL     1      10.611   2.241  23.717  0.00  0.00    -0.245 OA
BRANCH  12  14
ATOM     14  O   UNL     1      10.139   2.277  21.516  0.00  0.00    -0.477 OA
ATOM     15  H   UNL     1      10.755   3.025  21.430  0.00  0.00    +0.295 HD
ENDBRANCH  12  14
ENDBRANCH   1  12
TORSDOF 3
ENDMDL
MODEL 6
REMARK VINA RESULT:      -5.2      3.286      4.513
REMARK  Name = 
REMARK  3 active torsions:
REMARK  status: ('A' for Active; 'I' for Inactive)
REMARK    1  A    between atoms: O_1  and  C_2
REMARK    2  A    between atoms: C_2  and  C_4
REMARK    3  A    between atoms: N_6  and  C_9
REMARK                            x       y       z     vdW  Elec       q    Type
REMARK                         _______ _______ _______ _____ _____    ______ ____
ROOT
ATOM      1  C   UNL     1       9.827  -0.272  23.309  0.00  0.00    +0.097 A 
ATOM      2  C   UNL     1       8.821   0.067  24.237  0.00  0.00    +0.149 A 
ATOM      3  N   UNL     1       8.795   1.368  24.526  0.00  0.00    -0.174 NA
ATOM      4  N   UNL     1       9.791   1.910  23.782  0.00  0.00    -0.239 N 
ATOM      5  C   UNL     1      10.431   0.939  23.031  0.00  0.00    +0.129 A 
ENDROOT
BRANCH   4   6
ATOM      6  C   UNL     1      10.080   3.302  23.830  0.00  0.00    +0.065 A 
ATOM      7  C   UNL     1      11.342   3.761  23.420  0.00  0.00    +0.028 A 
ATOM      8  C   UNL     1      11.635   5.128  23.450  0.00  0.00    +0.002 A 
ATOM      9  C   UNL     1      10.677   6.040  23.886  0.00  0.00    +0.000 A 
ATOM     10  C   UNL     1       9.425   5.591  24.300  0.00  0.00    +0.002 A 
ATOM     11  C   UNL     1       9.124   4.227  24.273  0.00  0.00    +0.028 A 
ENDBRANCH   4   6
BRANCH   1  12
ATOM     12  C   UNL     1      10.113  -1.593  22.787  0.00  0.00    +0.340 C 
ATOM     13  O   UNL     1      10.271  -2.570  23.503  0.00  0.00    -0.245 OA
BRANCH  12  14
ATOM     14  O   UNL     1      10.203  -1.681  21.436  0.00  0.00    -0.477 OA
ATOM     15  H   UNL     1      11.110  -1.594  21.098  0.00  0.00    +0.295 HD
ENDBRANCH  12  14
ENDBRANCH   1  12
TORSDOF 3
ENDMDL
MODEL 7
REMARK VINA RESULT:      -5.2      3.590      5.717
REMARK  Name = 
REMARK  3 active torsions:
REMARK  status: ('A' for Active; 'I' for Inactive)
REMARK    1  A    between atoms: O_1  and  C_2
REMARK    2  A    between atoms: C_2  and  C_4
REMARK    3  A    between atoms: N_6  and  C_9
REMARK                            x       y       z     vdW  Elec       q    Type
REMARK                         _______ _______ _______ _____ _____    ______ ____
ROOT
ATOM      1  C   UNL     1       8.931   0.154  22.154  0.00  0.00    +0.097 A 
ATOM      2  C   UNL     1       9.869  -0.775  21.660  0.00  0.00    +0.149 A 
ATOM      3  N   UNL     1       9.825  -1.947  22.294  0.00  0.00    -0.174 NA
ATOM      4  N   UNL     1       8.845  -1.805  23.220  0.00  0.00    -0.239 N 
ATOM      5  C   UNL     1       8.283  -0.542  23.156  0.00  0.00    +0.129 A 
ENDROOT
BRANCH   4   6
ATOM      6  C   UNL     1       8.505  -2.863  24.109  0.00  0.00    +0.065 A 
ATOM      7  C   UNL     1       8.670  -2.686  25.491  0.00  0.00    +0.028 A 
ATOM      8  C   UNL     1       8.329  -3.712  26.376  0.00  0.00    +0.002 A 
ATOM      9  C   UNL     1       7.822  -4.916  25.890  0.00  0.00    +0.000 A 
ATOM     10  C   UNL     1       7.661  -5.101  24.520  0.00  0.00    +0.002 A 
ATOM     11  C   UNL     1       8.000  -4.080  23.628  0.00  0.00    +0.028 A 
ENDBRANCH   4   6
BRANCH   1  12
ATOM     12  C   UNL     1       8.723   1.508  21.681  0.00  0.00    +0.340 C 
ATOM     13  O   UNL     1       7.615   1.980  21.481  0.00  0.00    -0.245 OA
BRANCH  12  14
ATOM     14  O   UNL     1       9.852   2.231  21.465  0.00  0.00    -0.477 OA
ATOM     15  H   UNL     1      10.534   1.751  20.966  0.00  0.00    +0.295 HD
ENDBRANCH  12  14
ENDBRANCH   1  12
TORSDOF 3
ENDMDL
MODEL 8
REMARK VINA RESULT:      -5.1      3.249      5.822
REMARK  Name = 
REMARK  3 active torsions:
REMARK  status: ('A' for Active; 'I' for Inactive)
REMARK    1  A    between atoms: O_1  and  C_2
REMARK    2  A    between atoms: C_2  and  C_4
REMARK    3  A    between atoms: N_6  and  C_9
REMARK                            x       y       z     vdW  Elec       q    Type
REMARK                         _______ _______ _______ _____ _____    ______ ____
ROOT
ATOM      1  C   UNL     1       9.406  -1.396  22.845  0.00  0.00    +0.097 A 
ATOM      2  C   UNL     1      10.054  -2.263  23.747  0.00  0.00    +0.149 A 
ATOM      3  N   UNL     1       9.385  -3.399  23.951  0.00  0.00    -0.174 NA
ATOM      4  N   UNL     1       8.279  -3.295  23.174  0.00  0.00    -0.239 N 
ATOM      5  C   UNL     1       8.267  -2.093  22.489  0.00  0.00    +0.129 A 
ENDROOT
BRANCH   4   6
ATOM      6  C   UNL     1       7.303  -4.330  23.131  0.00  0.00    +0.065 A 
ATOM      7  C   UNL     1       6.547  -4.616  24.278  0.00  0.00    +0.028 A 
ATOM      8  C   UNL     1       5.577  -5.622  24.247  0.00  0.00    +0.002 A 
ATOM      9  C   UNL     1       5.355  -6.344  23.076  0.00  0.00    +0.000 A 
ATOM     10  C   UNL     1       6.105  -6.069  21.935  0.00  0.00    +0.002 A 
ATOM     11  C   UNL     1       7.078  -5.066  21.959  0.00  0.00    +0.028 A 
ENDBRANCH   4   6
BRANCH   1  12
ATOM     12  C   UNL     1       9.870  -0.094  22.411  0.00  0.00    +0.340 C 
ATOM     13  O   UNL     1       9.582   0.387  21.326  0.00  0.00    -0.245 OA
BRANCH  12  14
ATOM     14  O   UNL     1      10.662   0.568  23.293  0.00  0.00    -0.477 OA
ATOM     15  H   UNL     1      11.597   0.304  23.253  0.00  0.00    +0.295 HD
ENDBRANCH  12  14
ENDBRANCH   1  12
TORSDOF 3
ENDMDL
MODEL 9
REMARK VINA RESULT:      -5.0      5.403      7.097
REMARK  Name = 
REMARK  3 active torsions:
REMARK  status: ('A' for Active; 'I' for Inactive)
REMARK    1  A    between atoms: O_1  and  C_2
REMARK    2  A    between atoms: C_2  and  C_4
REMARK    3  A    between atoms: N_6  and  C_9
REMARK                            x       y       z     vdW  Elec       q    Type
REMARK                         _______ _______ _______ _____ _____    ______ ____
ROOT
ATOM      1  C   UNL     1       7.888   4.300  22.762  0.00  0.00    +0.097 A 
ATOM      2  C   UNL     1       8.929   4.390  23.707  0.00  0.00    +0.149 A 
ATOM      3  N   UNL     1       9.560   3.231  23.901  0.00  0.00    -0.174 NA
ATOM      4  N   UNL     1       8.938   2.355  23.074  0.00  0.00    -0.239 N 
ATOM      5  C   UNL     1       7.923   2.976  22.369  0.00  0.00    +0.129 A 
ENDROOT
BRANCH   4   6
ATOM      6  C   UNL     1       9.335   0.990  23.005  0.00  0.00    +0.065 A 
ATOM      7  C   UNL     1       9.556   0.274  24.192  0.00  0.00    +0.028 A 
ATOM      8  C   UNL     1       9.935  -1.071  24.140  0.00  0.00    +0.002 A 
ATOM      9  C   UNL     1      10.094  -1.706  22.909  0.00  0.00    +0.000 A 
ATOM     10  C   UNL     1       9.882  -1.000  21.728  0.00  0.00    +0.002 A 
ATOM     11  C   UNL     1       9.504   0.345  21.772  0.00  0.00    +0.028 A 
ENDBRANCH   4   6
BRANCH   1  12
ATOM     12  C   UNL     1       7.019   5.375  22.327  0.00  0.00    +0.340 C 
ATOM     13  O   UNL     1       5.912   5.570  22.806  0.00  0.00    -0.245 OA
BRANCH  12  14
ATOM     14  O   UNL     1       7.512   6.160  21.336  0.00  0.00    -0.477 OA
ATOM     15  H   UNL     1       7.216   5.899  20.447  0.00  0.00    +0.295 HD
ENDBRANCH  12  14
ENDBRANCH   1  12
TORSDOF 3
ENDMDL
