MODEL 1
REMARK VINA RESULT:      -3.5      0.000      0.000
REMARK  Name = 
REMARK  7 active torsions:
REMARK  status: ('A' for Active; 'I' for Inactive)
REMARK    1  A    between atoms: O_1  and  C_2
REMARK    2  A    between atoms: C_2  and  C_3
REMARK    3  A    between atoms: C_3  and  O_5
REMARK    4  A    between atoms: C_3  and  C_6
REMARK    5  A    between atoms: C_6  and  O_8
REMARK    6  A    between atoms: C_6  and  C_9
REMARK    7  A    between atoms: C_9  and  O_10
REMARK                            x       y       z     vdW  Elec       q    Type
REMARK                         _______ _______ _______ _____ _____    ______ ____
ROOT
ATOM      1  C   UNL     1      10.029  -0.341  22.264  0.00  0.00    +0.170 C 
ENDROOT
BRANCH   1   2
ATOM      2  O   UNL     1      10.174  -1.479  21.401  0.00  0.00    -0.387 OA
ATOM      3  H   UNL     1      11.071  -1.394  21.014  0.00  0.00    +0.210 HD
ENDBRANCH   1   2
BRANCH   1   4
ATOM      4  C   UNL     1       9.238   0.732  21.506  0.00  0.00    +0.189 C 
BRANCH   4   5
ATOM      5  O   UNL     1       9.982   1.958  21.507  0.00  0.00    -0.392 OA
ATOM      6  H   UNL     1      10.867   1.739  21.162  0.00  0.00    +0.210 HD
ENDBRANCH   4   5
ENDBRANCH   1   4
BRANCH   1   7
ATOM      7  C   UNL     1       9.344  -0.768  23.578  0.00  0.00    +0.170 C 
BRANCH   7   8
ATOM      8  O   UNL     1      10.203  -0.475  24.693  0.00  0.00    -0.387 OA
ATOM      9  H   UNL     1      11.061  -0.196  24.320  0.00  0.00    +0.210 HD
ENDBRANCH   7   8
BRANCH   7  10
ATOM     10  C   UNL     1       9.043  -2.273  23.604  0.00  0.00    +0.189 C 
BRANCH  10  11
ATOM     11  O   UNL     1      10.232  -3.024  23.854  0.00  0.00    -0.392 OA
ATOM     12  H   UNL     1       9.952  -3.836  24.317  0.00  0.00    +0.210 HD
ENDBRANCH  10  11
ENDBRANCH   7  10
ENDBRANCH   1   7
TORSDOF 7
ENDMDL
MODEL 2
REMARK VINA RESULT:      -3.5      1.648      2.802
REMARK  Name = 
REMARK  7 active torsions:
REMARK  status: ('A' for Active; 'I' for Inactive)
REMARK    1  A    between atoms: O_1  and  C_2
REMARK    2  A    between atoms: C_2  and  C_3
REMARK    3  A    between atoms: C_3  and  O_5
REMARK    4  A    between atoms: C_3  and  C_6
REMARK    5  A    between atoms: C_6  and  O_8
REMARK    6  A    between atoms: C_6  and  C_9
REMARK    7  A    between atoms: C_9  and  O_10
REMARK                            x       y       z     vdW  Elec       q    Type
REMARK                         _______ _______ _______ _____ _____    ______ ____
ROOT
ATOM      1  C   UNL     1       9.795   1.083  23.326  0.00  0.00    +0.170 C 
ENDROOT
BRANCH   1   2
ATOM      2  O   UNL     1      10.826   0.331  23.984  0.00  0.00    -0.387 OA
ATOM      3  H   UNL     1      11.431   1.004  24.361  0.00  0.00    +0.210 HD
ENDBRANCH   1   2
BRANCH   1   4
ATOM      4  C   UNL     1      10.044   2.571  23.599  0.00  0.00    +0.189 C 
BRANCH   4   5
ATOM      5  O   UNL     1      10.803   3.129  22.519  0.00  0.00    -0.392 OA
ATOM      6  H   UNL     1      10.299   2.943  21.706  0.00  0.00    +0.210 HD
ENDBRANCH   4   5
ENDBRANCH   1   4
BRANCH   1   7
ATOM      7  C   UNL     1       9.786   0.748  21.821  0.00  0.00    +0.170 C 
BRANCH   7   8
ATOM      8  O   UNL     1       8.875   1.622  21.132  0.00  0.00    -0.387 OA
ATOM      9  H   UNL     1       7.988   1.226  21.217  0.00  0.00    +0.210 HD
ENDBRANCH   7   8
BRANCH   7  10
ATOM     10  C   UNL     1       9.333  -0.696  21.558  0.00  0.00    +0.189 C 
BRANCH  10  11
ATOM     11  O   UNL     1      10.420  -1.607  21.727  0.00  0.00    -0.392 OA
ATOM     12  H   UNL     1      10.619  -1.964  20.841  0.00  0.00    +0.210 HD
ENDBRANCH  10  11
ENDBRANCH   7  10
ENDBRANCH   1   7
TORSDOF 7
ENDMDL
MODEL 3
REMARK VINA RESULT:      -3.4      1.475      2.567
REMARK  Name = 
REMARK  7 active torsions:
REMARK  status: ('A' for Active; 'I' for Inactive)
REMARK    1  A    between atoms: O_1  and  C_2
REMARK    2  A    between atoms: C_2  and  C_3
REMARK    3  A    between atoms: C_3  and  O_5
REMARK    4  A    between atoms: C_3  and  C_6
REMARK    5  A    between atoms: C_6  and  O_8
REMARK    6  A    between atoms: C_6  and  C_9
REMARK    7  A    between atoms: C_9  and  O_10
REMARK                            x       y       z     vdW  Elec       q    Type
REMARK                         _______ _______ _______ _____ _____    ______ ____
ROOT
ATOM      1  C   UNL     1      10.025   0.943  22.246  0.00  0.00    +0.170 C 
ENDROOT
BRANCH   1   2
ATOM      2  O   UNL     1       9.853   2.127  21.453  0.00  0.00    -0.387 OA
ATOM      3  H   UNL     1      10.757   2.488  21.333  0.00  0.00    +0.210 HD
ENDBRANCH   1   2
BRANCH   1   4
ATOM      4  C   UNL     1      10.348   1.374  23.681  0.00  0.00    +0.189 C 
BRANCH   4   5
ATOM      5  O   UNL     1      10.838   0.245  24.416  0.00  0.00    -0.392 OA
ATOM      6  H   UNL     1      10.124  -0.418  24.406  0.00  0.00    +0.210 HD
ENDBRANCH   4   5
ENDBRANCH   1   4
BRANCH   1   7
ATOM      7  C   UNL     1       8.757   0.069  22.158  0.00  0.00    +0.170 C 
BRANCH   7   8
ATOM      8  O   UNL     1       8.071   0.078  23.422  0.00  0.00    -0.387 OA
ATOM      9  H   UNL     1       8.645  -0.390  24.056  0.00  0.00    +0.210 HD
ENDBRANCH   7   8
BRANCH   7  10
ATOM     10  C   UNL     1       9.090  -1.391  21.820  0.00  0.00    +0.189 C 
BRANCH  10  11
ATOM     11  O   UNL     1      10.499  -1.617  21.878  0.00  0.00    -0.392 OA
ATOM     12  H   UNL     1      10.657  -2.162  22.672  0.00  0.00    +0.210 HD
ENDBRANCH  10  11
ENDBRANCH   7  10
ENDBRANCH   1   7
TORSDOF 7
ENDMDL
MODEL 4
REMARK VINA RESULT:      -3.4      0.844      3.283
REMARK  Name = 
REMARK  7 active torsions:
REMARK  status: ('A' for Active; 'I' for Inactive)
REMARK    1  A    between atoms: O_1  and  C_2
REMARK    2  A    between atoms: C_2  and  C_3
REMARK    3  A    between atoms: C_3  and  O_5
REMARK    4  A    between atoms: C_3  and  C_6
REMARK    5  A    between atoms: C_6  and  O_8
REMARK    6  A    between atoms: C_6  and  C_9
REMARK    7  A    between atoms: C_9  and  O_10
REMARK                            x       y       z     vdW  Elec       q    Type
REMARK                         _______ _______ _______ _____ _____    ______ ____
ROOT
ATOM      1  C   UNL     1       9.503  -1.048  22.554  0.00  0.00    +0.170 C 
ENDROOT
BRANCH   1   2
ATOM      2  O   UNL     1      10.205  -1.563  21.413  0.00  0.00    -0.387 OA
ATOM      3  H   UNL     1      10.043  -0.912  20.698  0.00  0.00    +0.210 HD
ENDBRANCH   1   2
BRANCH   1   4
ATOM      4  C   UNL     1       9.083  -2.236  23.429  0.00  0.00    +0.189 C 
BRANCH   4   5
ATOM      5  O   UNL     1      10.249  -2.976  23.814  0.00  0.00    -0.392 OA
ATOM      6  H   UNL     1      10.830  -2.993  23.032  0.00  0.00    +0.210 HD
ENDBRANCH   4   5
ENDBRANCH   1   4
BRANCH   1   7
ATOM      7  C   UNL     1      10.399  -0.044  23.307  0.00  0.00    +0.170 C 
BRANCH   7   8
ATOM      8  O   UNL     1      10.187  -0.167  24.724  0.00  0.00    -0.387 OA
ATOM      9  H   UNL     1      10.497  -1.057  24.977  0.00  0.00    +0.210 HD
ENDBRANCH   7   8
BRANCH   7  10
ATOM     10  C   UNL     1      10.088   1.407  22.914  0.00  0.00    +0.189 C 
BRANCH  10  11
ATOM     11  O   UNL     1       9.829   1.509  21.514  0.00  0.00    -0.392 OA
ATOM     12  H   UNL     1       8.877   1.327  21.397  0.00  0.00    +0.210 HD
ENDBRANCH  10  11
ENDBRANCH   7  10
ENDBRANCH   1   7
TORSDOF 7
ENDMDL
MODEL 5
REMARK VINA RESULT:      -3.4      3.909      5.259
REMARK  Name = 
REMARK  7 active torsions:
REMARK  status: ('A' for Active; 'I' for Inactive)
REMARK    1  A    between atoms: O_1  and  C_2
REMARK    2  A    between atoms: C_2  and  C_3
REMARK    3  A    between atoms: C_3  and  O_5
REMARK    4  A    between atoms: C_3  and  C_6
REMARK    5  A    between atoms: C_6  and  O_8
REMARK    6  A    between atoms: C_6  and  C_9
REMARK    7  A    between atoms: C_9  and  O_10
REMARK                            x       y       z     vdW  Elec       q    Type
REMARK                         _______ _______ _______ _____ _____    ______ ____
ROOT
ATOM      1  C   UNL     1       8.763  -3.581  24.905  0.00  0.00    +0.170 C 
ENDROOT
BRANCH   1   2
ATOM      2  O   UNL     1      10.027  -3.507  24.230  0.00  0.00    -0.387 OA
ATOM      3  H   UNL     1       9.889  -3.969  23.377  0.00  0.00    +0.210 HD
ENDBRANCH   1   2
BRANCH   1   4
ATOM      4  C   UNL     1       7.786  -4.342  24.002  0.00  0.00    +0.189 C 
BRANCH   4   5
ATOM      5  O   UNL     1       8.416  -5.538  23.524  0.00  0.00    -0.392 OA
ATOM      6  H   UNL     1       7.749  -6.002  22.987  0.00  0.00    +0.210 HD
ENDBRANCH   4   5
ENDBRANCH   1   4
BRANCH   1   7
ATOM      7  C   UNL     1       8.945  -4.251  26.282  0.00  0.00    +0.170 C 
BRANCH   7   8
ATOM      8  O   UNL     1       9.832  -5.377  26.162  0.00  0.00    -0.387 OA
ATOM      9  H   UNL     1       9.911  -5.767  27.053  0.00  0.00    +0.210 HD
ENDBRANCH   7   8
BRANCH   7  10
ATOM     10  C   UNL     1       7.615  -4.765  26.850  0.00  0.00    +0.189 C 
BRANCH  10  11
ATOM     11  O   UNL     1       7.814  -5.957  27.610  0.00  0.00    -0.392 OA
ATOM     12  H   UNL     1       6.930  -6.244  27.908  0.00  0.00    +0.210 HD
ENDBRANCH  10  11
ENDBRANCH   7  10
ENDBRANCH   1   7
TORSDOF 7
ENDMDL
MODEL 6
REMARK VINA RESULT:      -3.3      1.739      4.012
REMARK  Name = 
REMARK  7 active torsions:
REMARK  status: ('A' for Active; 'I' for Inactive)
REMARK    1  A    between atoms: O_1  and  C_2
REMARK    2  A    between atoms: C_2  and  C_3
REMARK    3  A    between atoms: C_3  and  O_5
REMARK    4  A    between atoms: C_3  and  C_6
REMARK    5  A    between atoms: C_6  and  O_8
REMARK    6  A    between atoms: C_6  and  C_9
REMARK    7  A    between atoms: C_9  and  O_10
REMARK                            x       y       z     vdW  Elec       q    Type
REMARK                         _______ _______ _______ _____ _____    ______ ____
ROOT
ATOM      1  C   UNL     1      10.525   0.489  23.297  0.00  0.00    +0.170 C 
ENDROOT
BRANCH   1   2
ATOM      2  O   UNL     1      10.597   0.440  24.730  0.00  0.00    -0.387 OA
ATOM      3  H   UNL     1      10.327  -0.472  24.968  0.00  0.00    +0.210 HD
ENDBRANCH   1   2
BRANCH   1   4
ATOM      4  C   UNL     1       9.886  -0.816  22.809  0.00  0.00    +0.189 C 
BRANCH   4   5
ATOM      5  O   UNL     1       9.939  -0.863  21.377  0.00  0.00    -0.392 OA
ATOM      6  H   UNL     1      10.533  -1.602  21.151  0.00  0.00    +0.210 HD
ENDBRANCH   4   5
ENDBRANCH   1   4
BRANCH   1   7
ATOM      7  C   UNL     1       9.734   1.738  22.859  0.00  0.00    +0.170 C 
BRANCH   7   8
ATOM      8  O   UNL     1       9.974   2.004  21.466  0.00  0.00    -0.387 OA
ATOM      9  H   UNL     1      10.287   1.168  21.071  0.00  0.00    +0.210 HD
ENDBRANCH   7   8
BRANCH   7  10
ATOM     10  C   UNL     1      10.152   2.987  23.649  0.00  0.00    +0.189 C 
BRANCH  10  11
ATOM     11  O   UNL     1      11.186   3.696  22.967  0.00  0.00    -0.392 OA
ATOM     12  H   UNL     1      11.570   3.072  22.323  0.00  0.00    +0.210 HD
ENDBRANCH  10  11
ENDBRANCH   7  10
ENDBRANCH   1   7
TORSDOF 7
ENDMDL
MODEL 7
REMARK VINA RESULT:      -3.3      1.935      3.732
REMARK  Name = 
REMARK  7 active torsions:
REMARK  status: ('A' for Active; 'I' for Inactive)
REMARK    1  A    between atoms: O_1  and  C_2
REMARK    2  A    between atoms: C_2  and  C_3
REMARK    3  A    between atoms: C_3  and  O_5
REMARK    4  A    between atoms: C_3  and  C_6
REMARK    5  A    between atoms: C_6  and  O_8
REMARK    6  A    between atoms: C_6  and  C_9
REMARK    7  A    between atoms: C_9  and  O_10
REMARK                            x       y       z     vdW  Elec       q    Type
REMARK                         _______ _______ _______ _____ _____    ______ ____
ROOT
ATOM      1  C   UNL     1       8.781   0.071  22.721  0.00  0.00    +0.170 C 
ENDROOT
BRANCH   1   2
ATOM      2  O   UNL     1       7.727  -0.901  22.646  0.00  0.00    -0.387 OA
ATOM      3  H   UNL     1       8.115  -1.662  22.164  0.00  0.00    +0.210 HD
ENDBRANCH   1   2
BRANCH   1   4
ATOM      4  C   UNL     1      10.120  -0.674  22.649  0.00  0.00    +0.189 C 
BRANCH   4   5
ATOM      5  O   UNL     1      10.194  -1.396  21.413  0.00  0.00    -0.392 OA
ATOM      6  H   UNL     1      10.262  -2.338  21.652  0.00  0.00    +0.210 HD
ENDBRANCH   4   5
ENDBRANCH   1   4
BRANCH   1   7
ATOM      7  C   UNL     1       8.615   1.105  21.589  0.00  0.00    +0.170 C 
BRANCH   7   8
ATOM      8  O   UNL     1       9.836   1.847  21.424  0.00  0.00    -0.387 OA
ATOM      9  H   UNL     1      10.234   1.548  20.585  0.00  0.00    +0.210 HD
ENDBRANCH   7   8
BRANCH   7  10
ATOM     10  C   UNL     1       7.496   2.112  21.893  0.00  0.00    +0.189 C 
BRANCH  10  11
ATOM     11  O   UNL     1       6.321   1.441  22.349  0.00  0.00    -0.392 OA
ATOM     12  H   UNL     1       6.431   0.501  22.111  0.00  0.00    +0.210 HD
ENDBRANCH  10  11
ENDBRANCH   7  10
ENDBRANCH   1   7
TORSDOF 7
ENDMDL
MODEL 8
REMARK VINA RESULT:      -3.2      1.664      2.087
REMARK  Name = 
REMARK  7 active torsions:
REMARK  status: ('A' for Active; 'I' for Inactive)
REMARK    1  A    between atoms: O_1  and  C_2
REMARK    2  A    between atoms: C_2  and  C_3
REMARK    3  A    between atoms: C_3  and  O_5
REMARK    4  A    between atoms: C_3  and  C_6
REMARK    5  A    between atoms: C_6  and  O_8
REMARK    6  A    between atoms: C_6  and  C_9
REMARK    7  A    between atoms: C_9  and  O_10
REMARK                            x       y       z     vdW  Elec       q    Type
REMARK                         _______ _______ _______ _____ _____    ______ ____
ROOT
ATOM      1  C   UNL     1       8.189   0.259  22.323  0.00  0.00    +0.170 C 
ENDROOT
BRANCH   1   2
ATOM      2  O   UNL     1       6.819   0.175  22.742  0.00  0.00    -0.387 OA
ATOM      3  H   UNL     1       6.404  -0.470  22.131  0.00  0.00    +0.210 HD
ENDBRANCH   1   2
BRANCH   1   4
ATOM      4  C   UNL     1       8.536   1.739  22.128  0.00  0.00    +0.189 C 
BRANCH   4   5
ATOM      5  O   UNL     1       9.763   1.845  21.394  0.00  0.00    -0.392 OA
ATOM      6  H   UNL     1       9.566   2.393  20.612  0.00  0.00    +0.210 HD
ENDBRANCH   4   5
ENDBRANCH   1   4
BRANCH   1   7
ATOM      7  C   UNL     1       9.095  -0.432  23.362  0.00  0.00    +0.170 C 
BRANCH   7   8
ATOM      8  O   UNL     1       9.976   0.534  23.960  0.00  0.00    -0.387 OA
ATOM      9  H   UNL     1       9.449   1.021  24.622  0.00  0.00    +0.210 HD
ENDBRANCH   7   8
BRANCH   7  10
ATOM     10  C   UNL     1       9.966  -1.525  22.726  0.00  0.00    +0.189 C 
BRANCH  10  11
ATOM     11  O   UNL     1      10.071  -1.333  21.315  0.00  0.00    -0.392 OA
ATOM     12  H   UNL     1       9.837  -0.400  21.146  0.00  0.00    +0.210 HD
ENDBRANCH  10  11
ENDBRANCH   7  10
ENDBRANCH   1   7
TORSDOF 7
ENDMDL
MODEL 9
REMARK VINA RESULT:      -3.2      2.198      3.893
REMARK  Name = 
REMARK  7 active torsions:
REMARK  status: ('A' for Active; 'I' for Inactive)
REMARK    1  A    between atoms: O_1  and  C_2
REMARK    2  A    between atoms: C_2  and  C_3
REMARK    3  A    between atoms: C_3  and  O_5
REMARK    4  A    between atoms: C_3  and  C_6
REMARK    5  A    between atoms: C_6  and  O_8
REMARK    6  A    between atoms: C_6  and  C_9
REMARK    7  A    between atoms: C_9  and  O_10
REMARK                            x       y       z     vdW  Elec       q    Type
REMARK                         _______ _______ _______ _____ _____    ______ ____
ROOT
ATOM      1  C   UNL     1       8.231  -0.791  22.766  0.00  0.00    +0.170 C 
ENDROOT
BRANCH   1   2
ATOM      2  O   UNL     1       7.270   0.269  22.873  0.00  0.00    -0.387 OA
ATOM      3  H   UNL     1       7.470   0.871  22.125  0.00  0.00    +0.210 HD
ENDBRANCH   1   2
BRANCH   1   4
ATOM      4  C   UNL     1       7.470  -2.099  22.516  0.00  0.00    +0.189 C 
BRANCH   4   5
ATOM      5  O   UNL     1       6.065  -1.868  22.679  0.00  0.00    -0.392 OA
ATOM      6  H   UNL     1       5.732  -2.598  23.232  0.00  0.00    +0.210 HD
ENDBRANCH   4   5
ENDBRANCH   1   4
BRANCH   1   7
ATOM      7  C   UNL     1       9.241  -0.468  21.647  0.00  0.00    +0.170 C 
BRANCH   7   8
ATOM      8  O   UNL     1      10.235  -1.504  21.572  0.00  0.00    -0.387 OA
ATOM      9  H   UNL     1       9.980  -2.185  22.223  0.00  0.00    +0.210 HD
ENDBRANCH   7   8
BRANCH   7  10
ATOM     10  C   UNL     1       9.971   0.859  21.899  0.00  0.00    +0.189 C 
BRANCH  10  11
ATOM     11  O   UNL     1       9.268   1.947  21.297  0.00  0.00    -0.392 OA
ATOM     12  H   UNL     1       8.400   1.595  21.023  0.00  0.00    +0.210 HD
ENDBRANCH  10  11
ENDBRANCH   7  10
ENDBRANCH   1   7
TORSDOF 7
ENDMDL
