MODEL 1
REMARK VINA RESULT:      -7.3      0.000      0.000
REMARK  Name = 
REMARK  9 active torsions:
REMARK  status: ('A' for Active; 'I' for Inactive)
REMARK    1  A    between atoms: C_1  and  O_2
REMARK    2  A    between atoms: O_2  and  C_3
REMARK    3  A    between atoms: C_5  and  C_6
REMARK    4  A    between atoms: C_6  and  N_7
REMARK    5  A    between atoms: C_8  and  C_16
REMARK    6  A    between atoms: N_18  and  C_19
REMARK    7  A    between atoms: N_22  and  C_25
REMARK    8  A    between atoms: C_25  and  C_26
REMARK    9  A    between atoms: C_25  and  C_27
REMARK                            x       y       z     vdW  Elec       q    Type
REMARK                         _______ _______ _______ _____ _____    ______ ____
ROOT
ATOM      1  N   UNL     1       8.599   2.752  24.421  0.00  0.00    -0.332 N 
ATOM      2  C   UNL     1       8.818   4.140  24.192  0.00  0.00    +0.050 A 
ATOM      3  C   UNL     1      10.001   4.906  23.938  0.00  0.00    +0.026 A 
ATOM      4  C   UNL     1       9.905   6.276  23.681  0.00  0.00    +0.002 A 
ATOM      5  C   UNL     1       8.673   6.913  23.728  0.00  0.00    +0.001 A 
ATOM      6  C   UNL     1       7.516   6.159  23.993  0.00  0.00    +0.010 A 
ATOM      7  C   UNL     1       7.577   4.751  24.194  0.00  0.00    +0.001 A 
ATOM      8  C   UNL     1       6.627   3.692  24.369  0.00  0.00    +0.041 A 
ATOM      9  C   UNL     1       7.232   2.431  24.461  0.00  0.00    +0.106 A 
ENDROOT
BRANCH   9  10
ATOM     10  C   UNL     1       6.412   1.126  24.340  0.00  0.00    +0.261 C 
ATOM     11  N   UNL     1       6.916  -0.202  24.102  0.00  0.00    -0.307 N 
ATOM     12  H   UNL     1       7.912  -0.368  24.120  0.00  0.00    +0.149 HD
ATOM     13  O   UNL     1       5.192   1.225  24.519  0.00  0.00    -0.269 OA
BRANCH  11  14
ATOM     14  C   UNL     1       5.959  -1.449  23.970  0.00  0.00    +0.076 C 
ATOM     15  C   UNL     1       5.733  -2.402  25.188  0.00  0.00    +0.037 C 
ATOM     16  C   UNL     1       6.440  -3.791  25.184  0.00  0.00    +0.086 C 
ATOM     17  N   UNL     1       6.501  -4.542  23.921  0.00  0.00    -0.300 NA
ATOM     18  C   UNL     1       6.934  -3.622  22.859  0.00  0.00    +0.086 C 
ATOM     19  C   UNL     1       6.084  -2.345  22.707  0.00  0.00    +0.037 C 
BRANCH  17  20
ATOM     20  C   UNL     1       5.400  -5.494  23.585  0.00  0.00    +0.050 C 
ATOM     21  C   UNL     1       5.034  -6.498  24.706  0.00  0.00    +0.024 C 
ATOM     22  C   UNL     1       5.729  -6.392  22.360  0.00  0.00    +0.024 C 
ENDBRANCH  17  20
ENDBRANCH  11  14
ENDBRANCH   9  10
BRANCH   1  23
ATOM     23  C   UNL     1       9.754   1.876  24.663  0.00  0.00    +0.157 C 
BRANCH  23  28
ATOM     24  C   UNL     1      10.171  -1.431  22.897  0.00  0.00    +0.120 A 
ATOM     25  C   UNL     1       9.592  -1.083  21.679  0.00  0.00    +0.045 A 
ATOM     26  C   UNL     1       9.412   0.257  21.330  0.00  0.00    +0.004 A 
ATOM     27  C   UNL     1       9.675   1.257  22.263  0.00  0.00    +0.005 A 
ATOM     28  C   UNL     1      10.104   0.910  23.551  0.00  0.00    -0.024 A 
ATOM     29  C   UNL     1      10.501  -0.418  23.799  0.00  0.00    +0.051 A 
BRANCH  24  31
ATOM     30  C   UNL     1       9.950  -3.285  24.403  0.00  0.00    +0.277 C 
ATOM     31  O   UNL     1      10.296  -2.773  23.118  0.00  0.00    -0.495 OA
ENDBRANCH  24  31
ENDBRANCH  23  28
ENDBRANCH   1  23
TORSDOF 6
ENDMDL
MODEL 2
REMARK VINA RESULT:      -7.2      1.551      7.887
REMARK  Name = 
REMARK  9 active torsions:
REMARK  status: ('A' for Active; 'I' for Inactive)
REMARK    1  A    between atoms: C_1  and  O_2
REMARK    2  A    between atoms: O_2  and  C_3
REMARK    3  A    between atoms: C_5  and  C_6
REMARK    4  A    between atoms: C_6  and  N_7
REMARK    5  A    between atoms: C_8  and  C_16
REMARK    6  A    between atoms: N_18  and  C_19
REMARK    7  A    between atoms: N_22  and  C_25
REMARK    8  A    between atoms: C_25  and  C_26
REMARK    9  A    between atoms: C_25  and  C_27
REMARK                            x       y       z     vdW  Elec       q    Type
REMARK                         _______ _______ _______ _____ _____    ______ ____
ROOT
ATOM      1  N   UNL     1       6.127  -3.421  25.502  0.00  0.00    -0.332 N 
ATOM      2  C   UNL     1       5.503  -4.687  25.316  0.00  0.00    +0.050 A 
ATOM      3  C   UNL     1       5.566  -5.914  26.050  0.00  0.00    +0.026 A 
ATOM      4  C   UNL     1       4.777  -7.001  25.664  0.00  0.00    +0.002 A 
ATOM      5  C   UNL     1       3.973  -6.917  24.536  0.00  0.00    +0.001 A 
ATOM      6  C   UNL     1       3.927  -5.713  23.810  0.00  0.00    +0.010 A 
ATOM      7  C   UNL     1       4.671  -4.570  24.218  0.00  0.00    +0.001 A 
ATOM      8  C   UNL     1       4.772  -3.203  23.801  0.00  0.00    +0.041 A 
ATOM      9  C   UNL     1       5.632  -2.451  24.613  0.00  0.00    +0.106 A 
ENDROOT
BRANCH   9  10
ATOM     10  C   UNL     1       5.663  -0.907  24.553  0.00  0.00    +0.261 C 
ATOM     11  N   UNL     1       6.377  -0.083  23.612  0.00  0.00    -0.307 N 
ATOM     12  H   UNL     1       6.829  -0.512  22.819  0.00  0.00    +0.149 HD
ATOM     13  O   UNL     1       4.954  -0.312  25.376  0.00  0.00    -0.269 OA
BRANCH  11  14
ATOM     14  C   UNL     1       6.344   1.492  23.687  0.00  0.00    +0.076 C 
ATOM     15  C   UNL     1       6.413   2.345  22.378  0.00  0.00    +0.037 C 
ATOM     16  C   UNL     1       7.753   3.059  22.027  0.00  0.00    +0.086 C 
ATOM     17  N   UNL     1       8.519   3.686  23.115  0.00  0.00    -0.300 NA
ATOM     18  C   UNL     1       8.597   2.732  24.231  0.00  0.00    +0.086 C 
ATOM     19  C   UNL     1       7.243   2.199  24.739  0.00  0.00    +0.037 C 
BRANCH  17  20
ATOM     20  C   UNL     1       8.256   5.115  23.462  0.00  0.00    +0.050 C 
ATOM     21  C   UNL     1       7.435   5.905  22.414  0.00  0.00    +0.024 C 
ATOM     22  C   UNL     1       9.558   5.946  23.634  0.00  0.00    +0.024 C 
ENDBRANCH  17  20
ENDBRANCH  11  14
ENDBRANCH   9  10
BRANCH   1  23
ATOM     23  C   UNL     1       7.216  -3.295  26.481  0.00  0.00    +0.157 C 
BRANCH  23  28
ATOM     24  C   UNL     1       9.737  -1.873  24.064  0.00  0.00    +0.120 A 
ATOM     25  C   UNL     1       9.864  -0.605  24.626  0.00  0.00    +0.045 A 
ATOM     26  C   UNL     1       9.430  -0.356  25.931  0.00  0.00    +0.004 A 
ATOM     27  C   UNL     1       8.732  -1.338  26.628  0.00  0.00    +0.005 A 
ATOM     28  C   UNL     1       8.455  -2.565  26.011  0.00  0.00    -0.024 A 
ATOM     29  C   UNL     1       9.101  -2.875  24.798  0.00  0.00    +0.051 A 
BRANCH  24  31
ATOM     30  C   UNL     1       9.656  -1.132  21.784  0.00  0.00    +0.277 C 
ATOM     31  O   UNL     1      10.202  -1.988  22.784  0.00  0.00    -0.495 OA
ENDBRANCH  24  31
ENDBRANCH  23  28
ENDBRANCH   1  23
TORSDOF 6
ENDMDL
MODEL 3
REMARK VINA RESULT:      -6.9      2.744      4.772
REMARK  Name = 
REMARK  9 active torsions:
REMARK  status: ('A' for Active; 'I' for Inactive)
REMARK    1  A    between atoms: C_1  and  O_2
REMARK    2  A    between atoms: O_2  and  C_3
REMARK    3  A    between atoms: C_5  and  C_6
REMARK    4  A    between atoms: C_6  and  N_7
REMARK    5  A    between atoms: C_8  and  C_16
REMARK    6  A    between atoms: N_18  and  C_19
REMARK    7  A    between atoms: N_22  and  C_25
REMARK    8  A    between atoms: C_25  and  C_26
REMARK    9  A    between atoms: C_25  and  C_27
REMARK                            x       y       z     vdW  Elec       q    Type
REMARK                         _______ _______ _______ _____ _____    ______ ____
ROOT
ATOM      1  N   UNL     1       7.683  -0.732  23.854  0.00  0.00    -0.332 N 
ATOM      2  C   UNL     1       8.658   0.234  23.478  0.00  0.00    +0.050 A 
ATOM      3  C   UNL     1       8.862   0.989  22.279  0.00  0.00    +0.026 A 
ATOM      4  C   UNL     1       9.887   1.935  22.214  0.00  0.00    +0.002 A 
ATOM      5  C   UNL     1      10.750   2.109  23.287  0.00  0.00    +0.001 A 
ATOM      6  C   UNL     1      10.555   1.354  24.457  0.00  0.00    +0.010 A 
ATOM      7  C   UNL     1       9.479   0.429  24.574  0.00  0.00    +0.001 A 
ATOM      8  C   UNL     1       8.934  -0.393  25.614  0.00  0.00    +0.041 A 
ATOM      9  C   UNL     1       7.786  -1.088  25.210  0.00  0.00    +0.106 A 
ENDROOT
BRANCH   9  10
ATOM     10  C   UNL     1       6.855  -1.784  26.230  0.00  0.00    +0.261 C 
ATOM     11  N   UNL     1       6.626  -3.198  26.379  0.00  0.00    -0.307 N 
ATOM     12  H   UNL     1       7.195  -3.852  25.862  0.00  0.00    +0.149 HD
ATOM     13  O   UNL     1       6.282  -1.047  27.042  0.00  0.00    -0.269 OA
BRANCH  11  14
ATOM     14  C   UNL     1       5.620  -3.774  27.449  0.00  0.00    +0.076 C 
ATOM     15  C   UNL     1       5.947  -5.102  28.205  0.00  0.00    +0.037 C 
ATOM     16  C   UNL     1       5.195  -6.400  27.784  0.00  0.00    +0.086 C 
ATOM     17  N   UNL     1       3.762  -6.307  27.463  0.00  0.00    -0.300 NA
ATOM     18  C   UNL     1       3.567  -5.157  26.567  0.00  0.00    +0.086 C 
ATOM     19  C   UNL     1       4.108  -3.813  27.092  0.00  0.00    +0.037 C 
BRANCH  17  20
ATOM     20  C   UNL     1       2.757  -6.497  28.551  0.00  0.00    +0.050 C 
ATOM     21  C   UNL     1       3.299  -7.172  29.835  0.00  0.00    +0.024 C 
ATOM     22  C   UNL     1       1.563  -7.394  28.123  0.00  0.00    +0.024 C 
ENDBRANCH  17  20
ENDBRANCH  11  14
ENDBRANCH   9  10
BRANCH   1  23
ATOM     23  C   UNL     1       6.789  -1.285  22.827  0.00  0.00    +0.157 C 
BRANCH  23  28
ATOM     24  C   UNL     1       7.739  -4.871  23.506  0.00  0.00    +0.120 A 
ATOM     25  C   UNL     1       6.457  -5.392  23.669  0.00  0.00    +0.045 A 
ATOM     26  C   UNL     1       5.338  -4.688  23.219  0.00  0.00    +0.004 A 
ATOM     27  C   UNL     1       5.483  -3.391  22.735  0.00  0.00    +0.005 A 
ATOM     28  C   UNL     1       6.750  -2.794  22.718  0.00  0.00    -0.024 A 
ATOM     29  C   UNL     1       7.883  -3.598  22.952  0.00  0.00    +0.051 A 
BRANCH  24  31
ATOM     30  C   UNL     1       9.432  -5.239  25.165  0.00  0.00    +0.277 C 
ATOM     31  O   UNL     1       8.749  -5.656  23.985  0.00  0.00    -0.495 OA
ENDBRANCH  24  31
ENDBRANCH  23  28
ENDBRANCH   1  23
TORSDOF 6
ENDMDL
MODEL 4
REMARK VINA RESULT:      -6.8      1.572      3.730
REMARK  Name = 
REMARK  9 active torsions:
REMARK  status: ('A' for Active; 'I' for Inactive)
REMARK    1  A    between atoms: C_1  and  O_2
REMARK    2  A    between atoms: O_2  and  C_3
REMARK    3  A    between atoms: C_5  and  C_6
REMARK    4  A    between atoms: C_6  and  N_7
REMARK    5  A    between atoms: C_8  and  C_16
REMARK    6  A    between atoms: N_18  and  C_19
REMARK    7  A    between atoms: N_22  and  C_25
REMARK    8  A    between atoms: C_25  and  C_26
REMARK    9  A    between atoms: C_25  and  C_27
REMARK                            x       y       z     vdW  Elec       q    Type
REMARK                         _______ _______ _______ _____ _____    ______ ____
ROOT
ATOM      1  N   UNL     1       8.824   3.022  23.394  0.00  0.00    -0.332 N 
ATOM      2  C   UNL     1       9.666   4.126  23.709  0.00  0.00    +0.050 A 
ATOM      3  C   UNL     1       9.431   5.356  24.403  0.00  0.00    +0.026 A 
ATOM      4  C   UNL     1      10.486   6.245  24.625  0.00  0.00    +0.002 A 
ATOM      5  C   UNL     1      11.751   5.971  24.124  0.00  0.00    +0.001 A 
ATOM      6  C   UNL     1      11.972   4.769  23.430  0.00  0.00    +0.010 A 
ATOM      7  C   UNL     1      10.931   3.815  23.245  0.00  0.00    +0.001 A 
ATOM      8  C   UNL     1      10.830   2.490  22.708  0.00  0.00    +0.041 A 
ATOM      9  C   UNL     1       9.542   1.952  22.834  0.00  0.00    +0.106 A 
ENDROOT
BRANCH   9  10
ATOM     10  C   UNL     1       9.265   0.446  22.615  0.00  0.00    +0.261 C 
ATOM     11  N   UNL     1       8.740  -0.493  23.573  0.00  0.00    -0.307 N 
ATOM     12  H   UNL     1       8.395  -0.158  24.460  0.00  0.00    +0.149 HD
ATOM     13  O   UNL     1       9.470   0.010  21.475  0.00  0.00    -0.269 OA
BRANCH  11  14
ATOM     14  C   UNL     1       8.535  -2.017  23.223  0.00  0.00    +0.076 C 
ATOM     15  C   UNL     1       7.394  -2.456  22.249  0.00  0.00    +0.037 C 
ATOM     16  C   UNL     1       6.117  -3.115  22.851  0.00  0.00    +0.086 C 
ATOM     17  N   UNL     1       6.277  -4.074  23.954  0.00  0.00    -0.300 NA
ATOM     18  C   UNL     1       7.199  -3.491  24.940  0.00  0.00    +0.086 C 
ATOM     19  C   UNL     1       8.567  -3.050  24.383  0.00  0.00    +0.037 C 
BRANCH  17  20
ATOM     20  C   UNL     1       6.449  -5.524  23.640  0.00  0.00    +0.050 C 
ATOM     21  C   UNL     1       7.062  -5.827  22.252  0.00  0.00    +0.024 C 
ATOM     22  C   UNL     1       5.107  -6.309  23.644  0.00  0.00    +0.024 C 
ENDBRANCH  17  20
ENDBRANCH  11  14
ENDBRANCH   9  10
BRANCH   1  23
ATOM     23  C   UNL     1       7.373   3.147  23.594  0.00  0.00    +0.157 C 
BRANCH  23  28
ATOM     24  C   UNL     1       5.710   0.271  25.378  0.00  0.00    +0.120 A 
ATOM     25  C   UNL     1       6.573   0.182  26.468  0.00  0.00    +0.045 A 
ATOM     26  C   UNL     1       7.430   1.239  26.788  0.00  0.00    +0.004 A 
ATOM     27  C   UNL     1       7.533   2.331  25.931  0.00  0.00    +0.005 A 
ATOM     28  C   UNL     1       6.788   2.356  24.744  0.00  0.00    -0.024 A 
ATOM     29  C   UNL     1       5.767   1.403  24.564  0.00  0.00    +0.051 A 
BRANCH  24  31
ATOM     30  C   UNL     1       4.385  -1.499  26.310  0.00  0.00    +0.277 C 
ATOM     31  O   UNL     1       4.921  -0.826  25.174  0.00  0.00    -0.495 OA
ENDBRANCH  24  31
ENDBRANCH  23  28
ENDBRANCH   1  23
TORSDOF 6
ENDMDL
MODEL 5
REMARK VINA RESULT:      -6.7      2.715      4.970
REMARK  Name = 
REMARK  9 active torsions:
REMARK  status: ('A' for Active; 'I' for Inactive)
REMARK    1  A    between atoms: C_1  and  O_2
REMARK    2  A    between atoms: O_2  and  C_3
REMARK    3  A    between atoms: C_5  and  C_6
REMARK    4  A    between atoms: C_6  and  N_7
REMARK    5  A    between atoms: C_8  and  C_16
REMARK    6  A    between atoms: N_18  and  C_19
REMARK    7  A    between atoms: N_22  and  C_25
REMARK    8  A    between atoms: C_25  and  C_26
REMARK    9  A    between atoms: C_25  and  C_27
REMARK                            x       y       z     vdW  Elec       q    Type
REMARK                         _______ _______ _______ _____ _____    ______ ____
ROOT
ATOM      1  N   UNL     1       8.339  -1.647  23.109  0.00  0.00    -0.332 N 
ATOM      2  C   UNL     1       8.760  -0.310  22.861  0.00  0.00    +0.050 A 
ATOM      3  C   UNL     1      10.053   0.298  22.773  0.00  0.00    +0.026 A 
ATOM      4  C   UNL     1      10.168   1.652  22.446  0.00  0.00    +0.002 A 
ATOM      5  C   UNL     1       9.032   2.427  22.262  0.00  0.00    +0.001 A 
ATOM      6  C   UNL     1       7.764   1.828  22.365  0.00  0.00    +0.010 A 
ATOM      7  C   UNL     1       7.619   0.437  22.633  0.00  0.00    +0.001 A 
ATOM      8  C   UNL     1       6.531  -0.493  22.693  0.00  0.00    +0.041 A 
ATOM      9  C   UNL     1       6.954  -1.807  22.937  0.00  0.00    +0.106 A 
ENDROOT
BRANCH   9  10
ATOM     10  C   UNL     1       6.010  -3.015  22.738  0.00  0.00    +0.261 C 
ATOM     11  N   UNL     1       5.299  -3.744  23.756  0.00  0.00    -0.307 N 
ATOM     12  H   UNL     1       5.295  -3.399  24.705  0.00  0.00    +0.149 HD
ATOM     13  O   UNL     1       5.802  -3.363  21.568  0.00  0.00    -0.269 OA
BRANCH  11  14
ATOM     14  C   UNL     1       4.388  -4.986  23.414  0.00  0.00    +0.076 C 
ATOM     15  C   UNL     1       2.858  -4.954  23.738  0.00  0.00    +0.037 C 
ATOM     16  C   UNL     1       2.343  -5.764  24.966  0.00  0.00    +0.086 C 
ATOM     17  N   UNL     1       2.916  -7.096  25.217  0.00  0.00    -0.300 NA
ATOM     18  C   UNL     1       4.379  -6.994  25.109  0.00  0.00    +0.086 C 
ATOM     19  C   UNL     1       4.903  -6.404  23.785  0.00  0.00    +0.037 C 
BRANCH  17  20
ATOM     20  C   UNL     1       2.273  -8.294  24.600  0.00  0.00    +0.050 C 
ATOM     21  C   UNL     1       1.523  -8.028  23.272  0.00  0.00    +0.024 C 
ATOM     22  C   UNL     1       1.202  -8.948  25.519  0.00  0.00    +0.024 C 
ENDBRANCH  17  20
ENDBRANCH  11  14
ENDBRANCH   9  10
BRANCH   1  23
ATOM     23  C   UNL     1       9.324  -2.634  23.575  0.00  0.00    +0.157 C 
BRANCH  23  28
ATOM     24  C   UNL     1       7.321  -3.631  26.611  0.00  0.00    +0.120 A 
ATOM     25  C   UNL     1       7.492  -5.011  26.521  0.00  0.00    +0.045 A 
ATOM     26  C   UNL     1       8.507  -5.554  25.729  0.00  0.00    +0.004 A 
ATOM     27  C   UNL     1       9.263  -4.725  24.906  0.00  0.00    +0.005 A 
ATOM     28  C   UNL     1       8.991  -3.351  24.865  0.00  0.00    -0.024 A 
ATOM     29  C   UNL     1       8.133  -2.800  25.837  0.00  0.00    +0.051 A 
BRANCH  24  31
ATOM     30  C   UNL     1       5.255  -4.152  27.712  0.00  0.00    +0.277 C 
ATOM     31  O   UNL     1       6.298  -3.225  27.420  0.00  0.00    -0.495 OA
ENDBRANCH  24  31
ENDBRANCH  23  28
ENDBRANCH   1  23
TORSDOF 6
ENDMDL
MODEL 6
REMARK VINA RESULT:      -6.7      1.515      2.157
REMARK  Name = 
REMARK  9 active torsions:
REMARK  status: ('A' for Active; 'I' for Inactive)
REMARK    1  A    between atoms: C_1  and  O_2
REMARK    2  A    between atoms: O_2  and  C_3
REMARK    3  A    between atoms: C_5  and  C_6
REMARK    4  A    between atoms: C_6  and  N_7
REMARK    5  A    between atoms: C_8  and  C_16
REMARK    6  A    between atoms: N_18  and  C_19
REMARK    7  A    between atoms: N_22  and  C_25
REMARK    8  A    between atoms: C_25  and  C_26
REMARK    9  A    between atoms: C_25  and  C_27
REMARK                            x       y       z     vdW  Elec       q    Type
REMARK                         _______ _______ _______ _____ _____    ______ ____
ROOT
ATOM      1  N   UNL     1       7.826   2.328  24.131  0.00  0.00    -0.332 N 
ATOM      2  C   UNL     1       7.385   3.570  23.593  0.00  0.00    +0.050 A 
ATOM      3  C   UNL     1       8.068   4.628  22.912  0.00  0.00    +0.026 A 
ATOM      4  C   UNL     1       7.351   5.725  22.428  0.00  0.00    +0.002 A 
ATOM      5  C   UNL     1       5.985   5.825  22.654  0.00  0.00    +0.001 A 
ATOM      6  C   UNL     1       5.322   4.790  23.337  0.00  0.00    +0.010 A 
ATOM      7  C   UNL     1       6.017   3.630  23.784  0.00  0.00    +0.001 A 
ATOM      8  C   UNL     1       5.657   2.381  24.387  0.00  0.00    +0.041 A 
ATOM      9  C   UNL     1       6.755   1.530  24.568  0.00  0.00    +0.106 A 
ENDROOT
BRANCH   9  10
ATOM     10  C   UNL     1       6.577   0.032  24.907  0.00  0.00    +0.261 C 
ATOM     11  N   UNL     1       5.809  -0.942  24.176  0.00  0.00    -0.307 N 
ATOM     12  H   UNL     1       5.419  -0.697  23.278  0.00  0.00    +0.149 HD
ATOM     13  O   UNL     1       7.205  -0.387  25.888  0.00  0.00    -0.269 OA
BRANCH  11  14
ATOM     14  C   UNL     1       5.687  -2.440  24.655  0.00  0.00    +0.076 C 
ATOM     15  C   UNL     1       5.664  -3.603  23.610  0.00  0.00    +0.037 C 
ATOM     16  C   UNL     1       4.303  -4.295  23.300  0.00  0.00    +0.086 C 
ATOM     17  N   UNL     1       3.381  -4.561  24.415  0.00  0.00    -0.300 NA
ATOM     18  C   UNL     1       3.286  -3.342  25.233  0.00  0.00    +0.086 C 
ATOM     19  C   UNL     1       4.630  -2.784  25.741  0.00  0.00    +0.037 C 
BRANCH  17  20
ATOM     20  C   UNL     1       3.475  -5.860  25.145  0.00  0.00    +0.050 C 
ATOM     21  C   UNL     1       4.210  -6.990  24.383  0.00  0.00    +0.024 C 
ATOM     22  C   UNL     1       2.085  -6.468  25.482  0.00  0.00    +0.024 C 
ENDBRANCH  17  20
ENDBRANCH  11  14
ENDBRANCH   9  10
BRANCH   1  23
ATOM     23  C   UNL     1       9.268   2.069  24.244  0.00  0.00    +0.157 C 
BRANCH  23  28
ATOM     24  C   UNL     1      10.102  -1.456  23.192  0.00  0.00    +0.120 A 
ATOM     25  C   UNL     1       9.668  -1.380  21.870  0.00  0.00    +0.045 A 
ATOM     26  C   UNL     1       9.458  -0.142  21.258  0.00  0.00    +0.004 A 
ATOM     27  C   UNL     1       9.539   1.026  22.010  0.00  0.00    +0.005 A 
ATOM     28  C   UNL     1       9.815   0.951  23.382  0.00  0.00    -0.024 A 
ATOM     29  C   UNL     1      10.252  -0.274  23.920  0.00  0.00    +0.051 A 
BRANCH  24  31
ATOM     30  C   UNL     1       9.309  -3.238  24.587  0.00  0.00    +0.277 C 
ATOM     31  O   UNL     1      10.274  -2.723  23.674  0.00  0.00    -0.495 OA
ENDBRANCH  24  31
ENDBRANCH  23  28
ENDBRANCH   1  23
TORSDOF 6
ENDMDL
MODEL 7
REMARK VINA RESULT:      -6.7      2.379      8.457
REMARK  Name = 
REMARK  9 active torsions:
REMARK  status: ('A' for Active; 'I' for Inactive)
REMARK    1  A    between atoms: C_1  and  O_2
REMARK    2  A    between atoms: O_2  and  C_3
REMARK    3  A    between atoms: C_5  and  C_6
REMARK    4  A    between atoms: C_6  and  N_7
REMARK    5  A    between atoms: C_8  and  C_16
REMARK    6  A    between atoms: N_18  and  C_19
REMARK    7  A    between atoms: N_22  and  C_25
REMARK    8  A    between atoms: C_25  and  C_26
REMARK    9  A    between atoms: C_25  and  C_27
REMARK                            x       y       z     vdW  Elec       q    Type
REMARK                         _______ _______ _______ _____ _____    ______ ____
ROOT
ATOM      1  N   UNL     1       6.792  -2.468  23.983  0.00  0.00    -0.332 N 
ATOM      2  C   UNL     1       6.402  -3.730  23.452  0.00  0.00    +0.050 A 
ATOM      3  C   UNL     1       5.414  -4.685  23.853  0.00  0.00    +0.026 A 
ATOM      4  C   UNL     1       5.202  -5.834  23.086  0.00  0.00    +0.002 A 
ATOM      5  C   UNL     1       5.986  -6.086  21.969  0.00  0.00    +0.001 A 
ATOM      6  C   UNL     1       6.966  -5.152  21.590  0.00  0.00    +0.010 A 
ATOM      7  C   UNL     1       7.159  -3.942  22.314  0.00  0.00    +0.001 A 
ATOM      8  C   UNL     1       7.954  -2.760  22.155  0.00  0.00    +0.041 A 
ATOM      9  C   UNL     1       7.709  -1.804  23.150  0.00  0.00    +0.106 A 
ENDROOT
BRANCH   9  10
ATOM     10  C   UNL     1       8.207  -0.346  23.018  0.00  0.00    +0.261 C 
ATOM     11  N   UNL     1       8.032   0.538  21.895  0.00  0.00    -0.307 N 
ATOM     12  H   UNL     1       7.430   0.262  21.133  0.00  0.00    +0.149 HD
ATOM     13  O   UNL     1       8.776   0.131  24.008  0.00  0.00    -0.269 OA
BRANCH  11  14
ATOM     14  C   UNL     1       8.623   2.000  21.881  0.00  0.00    +0.076 C 
ATOM     15  C   UNL     1      10.148   2.236  22.135  0.00  0.00    +0.037 C 
ATOM     16  C   UNL     1      10.592   2.791  23.522  0.00  0.00    +0.086 C 
ATOM     17  N   UNL     1       9.776   3.841  24.150  0.00  0.00    -0.300 NA
ATOM     18  C   UNL     1       8.364   3.438  24.066  0.00  0.00    +0.086 C 
ATOM     19  C   UNL     1       7.856   3.113  22.647  0.00  0.00    +0.037 C 
BRANCH  17  20
ATOM     20  C   UNL     1      10.090   5.274  23.870  0.00  0.00    +0.050 C 
ATOM     21  C   UNL     1      11.597   5.600  23.721  0.00  0.00    +0.024 C 
ATOM     22  C   UNL     1       9.601   6.232  24.992  0.00  0.00    +0.024 C 
ENDBRANCH  17  20
ENDBRANCH  11  14
ENDBRANCH   9  10
BRANCH   1  23
ATOM     23  C   UNL     1       6.293  -2.061  25.304  0.00  0.00    +0.157 C 
BRANCH  23  28
ATOM     24  C   UNL     1       5.661  -4.761  27.860  0.00  0.00    +0.120 A 
ATOM     25  C   UNL     1       6.828  -5.497  27.670  0.00  0.00    +0.045 A 
ATOM     26  C   UNL     1       7.924  -4.939  27.008  0.00  0.00    +0.004 A 
ATOM     27  C   UNL     1       7.806  -3.691  26.403  0.00  0.00    +0.005 A 
ATOM     28  C   UNL     1       6.582  -3.010  26.448  0.00  0.00    -0.024 A 
ATOM     29  C   UNL     1       5.576  -3.480  27.313  0.00  0.00    +0.051 A 
BRANCH  24  31
ATOM     30  C   UNL     1       4.790  -6.824  28.721  0.00  0.00    +0.277 C 
ATOM     31  O   UNL     1       4.663  -5.418  28.524  0.00  0.00    -0.495 OA
ENDBRANCH  24  31
ENDBRANCH  23  28
ENDBRANCH   1  23
TORSDOF 6
ENDMDL
MODEL 8
REMARK VINA RESULT:      -6.6      1.797      2.604
REMARK  Name = 
REMARK  9 active torsions:
REMARK  status: ('A' for Active; 'I' for Inactive)
REMARK    1  A    between atoms: C_1  and  O_2
REMARK    2  A    between atoms: O_2  and  C_3
REMARK    3  A    between atoms: C_5  and  C_6
REMARK    4  A    between atoms: C_6  and  N_7
REMARK    5  A    between atoms: C_8  and  C_16
REMARK    6  A    between atoms: N_18  and  C_19
REMARK    7  A    between atoms: N_22  and  C_25
REMARK    8  A    between atoms: C_25  and  C_26
REMARK    9  A    between atoms: C_25  and  C_27
REMARK                            x       y       z     vdW  Elec       q    Type
REMARK                         _______ _______ _______ _____ _____    ______ ____
ROOT
ATOM      1  N   UNL     1       8.928   0.766  24.863  0.00  0.00    -0.332 N 
ATOM      2  C   UNL     1       9.464   2.016  24.443  0.00  0.00    +0.050 A 
ATOM      3  C   UNL     1      10.699   2.379  23.817  0.00  0.00    +0.026 A 
ATOM      4  C   UNL     1      10.934   3.707  23.452  0.00  0.00    +0.002 A 
ATOM      5  C   UNL     1       9.999   4.691  23.745  0.00  0.00    +0.001 A 
ATOM      6  C   UNL     1       8.794   4.330  24.374  0.00  0.00    +0.010 A 
ATOM      7  C   UNL     1       8.501   2.976  24.699  0.00  0.00    +0.001 A 
ATOM      8  C   UNL     1       7.374   2.260  25.219  0.00  0.00    +0.041 A 
ATOM      9  C   UNL     1       7.592   0.878  25.285  0.00  0.00    +0.106 A 
ENDROOT
BRANCH   9  10
ATOM     10  C   UNL     1       6.432  -0.119  25.514  0.00  0.00    +0.261 C 
ATOM     11  N   UNL     1       6.523  -1.459  26.035  0.00  0.00    -0.307 N 
ATOM     12  H   UNL     1       7.400  -1.789  26.409  0.00  0.00    +0.149 HD
ATOM     13  O   UNL     1       5.293   0.299  25.271  0.00  0.00    -0.269 OA
BRANCH  11  14
ATOM     14  C   UNL     1       5.254  -2.383  26.188  0.00  0.00    +0.076 C 
ATOM     15  C   UNL     1       5.138  -3.369  27.397  0.00  0.00    +0.037 C 
ATOM     16  C   UNL     1       5.382  -4.886  27.142  0.00  0.00    +0.086 C 
ATOM     17  N   UNL     1       4.846  -5.485  25.911  0.00  0.00    -0.300 NA
ATOM     18  C   UNL     1       5.188  -4.604  24.784  0.00  0.00    +0.086 C 
ATOM     19  C   UNL     1       4.735  -3.138  24.934  0.00  0.00    +0.037 C 
BRANCH  17  20
ATOM     20  C   UNL     1       3.471  -6.068  25.922  0.00  0.00    +0.050 C 
ATOM     21  C   UNL     1       2.866  -6.299  27.329  0.00  0.00    +0.024 C 
ATOM     22  C   UNL     1       3.398  -7.463  25.241  0.00  0.00    +0.024 C 
ENDBRANCH  17  20
ENDBRANCH  11  14
ENDBRANCH   9  10
BRANCH   1  23
ATOM     23  C   UNL     1       9.802  -0.415  24.892  0.00  0.00    +0.157 C 
BRANCH  23  28
ATOM     24  C   UNL     1       8.708  -3.825  23.712  0.00  0.00    +0.120 A 
ATOM     25  C   UNL     1       7.812  -3.420  22.725  0.00  0.00    +0.045 A 
ATOM     26  C   UNL     1       7.842  -2.116  22.226  0.00  0.00    +0.004 A 
ATOM     27  C   UNL     1       8.672  -1.166  22.817  0.00  0.00    +0.005 A 
ATOM     28  C   UNL     1       9.460  -1.523  23.919  0.00  0.00    -0.024 A 
ATOM     29  C   UNL     1       9.589  -2.885  24.249  0.00  0.00    +0.051 A 
BRANCH  24  31
ATOM     30  C   UNL     1       8.797  -5.437  25.486  0.00  0.00    +0.277 C 
ATOM     31  O   UNL     1       8.580  -5.125  24.112  0.00  0.00    -0.495 OA
ENDBRANCH  24  31
ENDBRANCH  23  28
ENDBRANCH   1  23
TORSDOF 6
ENDMDL
MODEL 9
REMARK VINA RESULT:      -6.3      1.960      4.613
REMARK  Name = 
REMARK  9 active torsions:
REMARK  status: ('A' for Active; 'I' for Inactive)
REMARK    1  A    between atoms: C_1  and  O_2
REMARK    2  A    between atoms: O_2  and  C_3
REMARK    3  A    between atoms: C_5  and  C_6
REMARK    4  A    between atoms: C_6  and  N_7
REMARK    5  A    between atoms: C_8  and  C_16
REMARK    6  A    between atoms: N_18  and  C_19
REMARK    7  A    between atoms: N_22  and  C_25
REMARK    8  A    between atoms: C_25  and  C_26
REMARK    9  A    between atoms: C_25  and  C_27
REMARK                            x       y       z     vdW  Elec       q    Type
REMARK                         _______ _______ _______ _____ _____    ______ ____
ROOT
ATOM      1  N   UNL     1       9.001   3.062  24.026  0.00  0.00    -0.332 N 
ATOM      2  C   UNL     1       9.898   4.167  24.023  0.00  0.00    +0.050 A 
ATOM      3  C   UNL     1       9.815   5.484  24.578  0.00  0.00    +0.026 A 
ATOM      4  C   UNL     1      10.901   6.357  24.472  0.00  0.00    +0.002 A 
ATOM      5  C   UNL     1      12.041   5.976  23.779  0.00  0.00    +0.001 A 
ATOM      6  C   UNL     1      12.111   4.687  23.222  0.00  0.00    +0.010 A 
ATOM      7  C   UNL     1      11.046   3.755  23.370  0.00  0.00    +0.001 A 
ATOM      8  C   UNL     1      10.829   2.376  23.045  0.00  0.00    +0.041 A 
ATOM      9  C   UNL     1       9.586   1.904  23.486  0.00  0.00    +0.106 A 
ENDROOT
BRANCH   9  10
ATOM     10  C   UNL     1       9.257   0.393  23.529  0.00  0.00    +0.261 C 
ATOM     11  N   UNL     1       7.957  -0.220  23.450  0.00  0.00    -0.307 N 
ATOM     12  H   UNL     1       7.151   0.347  23.231  0.00  0.00    +0.149 HD
ATOM     13  O   UNL     1      10.225  -0.377  23.585  0.00  0.00    -0.269 OA
BRANCH  11  14
ATOM     14  C   UNL     1       7.763  -1.783  23.538  0.00  0.00    +0.076 C 
ATOM     15  C   UNL     1       7.601  -2.631  22.234  0.00  0.00    +0.037 C 
ATOM     16  C   UNL     1       6.180  -3.151  21.859  0.00  0.00    +0.086 C 
ATOM     17  N   UNL     1       5.310  -3.651  22.935  0.00  0.00    -0.300 NA
ATOM     18  C   UNL     1       5.345  -2.683  24.041  0.00  0.00    +0.086 C 
ATOM     19  C   UNL     1       6.751  -2.343  24.575  0.00  0.00    +0.037 C 
BRANCH  17  20
ATOM     20  C   UNL     1       5.359  -5.098  23.298  0.00  0.00    +0.050 C 
ATOM     21  C   UNL     1       6.144  -5.998  22.312  0.00  0.00    +0.024 C 
ATOM     22  C   UNL     1       3.952  -5.753  23.374  0.00  0.00    +0.024 C 
ENDBRANCH  17  20
ENDBRANCH  11  14
ENDBRANCH   9  10
BRANCH   1  23
ATOM     23  C   UNL     1       7.618   3.263  24.483  0.00  0.00    +0.157 C 
BRANCH  23  28
ATOM     24  C   UNL     1       4.423   3.648  22.517  0.00  0.00    +0.120 A 
ATOM     25  C   UNL     1       4.294   5.032  22.610  0.00  0.00    +0.045 A 
ATOM     26  C   UNL     1       5.382   5.827  22.977  0.00  0.00    +0.004 A 
ATOM     27  C   UNL     1       6.567   5.229  23.397  0.00  0.00    +0.005 A 
ATOM     28  C   UNL     1       6.655   3.832  23.464  0.00  0.00    -0.024 A 
ATOM     29  C   UNL     1       5.639   3.059  22.869  0.00  0.00    +0.051 A 
BRANCH  24  31
ATOM     30  C   UNL     1       2.227   3.730  21.556  0.00  0.00    +0.277 C 
ATOM     31  O   UNL     1       3.288   2.983  22.145  0.00  0.00    -0.495 OA
ENDBRANCH  24  31
ENDBRANCH  23  28
ENDBRANCH   1  23
TORSDOF 6
ENDMDL
