MODEL 1
REMARK VINA RESULT:      -4.6      0.000      0.000
REMARK  Name = 
REMARK  12 active torsions:
REMARK  status: ('A' for Active; 'I' for Inactive)
REMARK    1  A    between atoms: C_1  and  C_2
REMARK    2  A    between atoms: C_2  and  O_3
REMARK    3  A    between atoms: C_2  and  C_4
REMARK    4  A    between atoms: C_2  and  C_6
REMARK    5  A    between atoms: C_6  and  C_7
REMARK    6  A    between atoms: C_7  and  O_8
REMARK    7  A    between atoms: O_8  and  P_9
REMARK    8  A    between atoms: P_9  and  O_10
REMARK    9  A    between atoms: P_9  and  O_12
REMARK   10  A    between atoms: O_12  and  P_13
REMARK   11  A    between atoms: P_13  and  O_14
REMARK   12  A    between atoms: P_13  and  O_15
REMARK                            x       y       z     vdW  Elec       q    Type
REMARK                         _______ _______ _______ _____ _____    ______ ____
ROOT
ATOM      1  P   UNL     1       8.810  -2.740  24.864  0.00  0.00    +0.483 P 
ATOM      2  O   UNL     1       9.840  -3.660  24.201  0.00  0.00    -0.227 OA
ENDROOT
BRANCH   1   3
ATOM      3  O   UNL     1       9.786  -1.396  24.382  0.00  0.00    -0.302 OA
ATOM      4  H   UNL     1       9.856  -0.847  25.188  0.00  0.00    +0.222 HD
ENDBRANCH   1   3
BRANCH   1   5
ATOM      5  O   UNL     1       7.686  -2.310  23.738  0.00  0.00    -0.286 OA
BRANCH   5   6
ATOM      6  C   UNL     1       7.791  -2.903  22.456  0.00  0.00    +0.175 C 
BRANCH   6   7
ATOM      7  C   UNL     1       6.464  -3.537  22.045  0.00  0.00    +0.064 C 
BRANCH   7   9
ATOM      8  C   UNL     1       6.244  -5.768  20.913  0.00  0.00    +0.042 C 
ATOM      9  C   UNL     1       6.430  -5.070  22.268  0.00  0.00    +0.075 C 
BRANCH   9  10
ATOM     10  O   UNL     1       7.720  -5.455  22.760  0.00  0.00    -0.388 OA
ATOM     11  H   UNL     1       7.950  -6.334  22.413  0.00  0.00    +0.210 HD
ENDBRANCH   9  10
BRANCH   9  12
ATOM     12  C   UNL     1       5.311  -5.444  23.260  0.00  0.00    +0.114 C 
ATOM     13 BR   UNL     1       4.410  -3.892  24.024  0.00  0.00    -0.089 Br
ENDBRANCH   9  12
ENDBRANCH   7   9
ENDBRANCH   6   7
ENDBRANCH   5   6
ENDBRANCH   1   5
BRANCH   1  14
ATOM     14  O   UNL     1       7.833  -4.084  25.346  0.00  0.00    -0.186 OA
BRANCH  14  15
ATOM     15  P   UNL     1       8.415  -5.233  26.252  0.00  0.00    +0.481 P 
ATOM     16  O   UNL     1       7.451  -5.965  27.119  0.00  0.00    -0.227 OA
BRANCH  15  17
ATOM     17  O   UNL     1       9.555  -4.495  27.094  0.00  0.00    -0.302 OA
ATOM     18  H   UNL     1      10.379  -4.397  26.582  0.00  0.00    +0.222 HD
ENDBRANCH  15  17
BRANCH  15  19
ATOM     19  O   UNL     1       9.340  -6.105  25.287  0.00  0.00    -0.302 OA
ATOM     20  H   UNL     1       9.010  -6.072  24.370  0.00  0.00    +0.222 HD
ENDBRANCH  15  19
ENDBRANCH  14  15
ENDBRANCH   1  14
TORSDOF 11
ENDMDL
MODEL 2
REMARK VINA RESULT:      -4.5      3.445      5.644
REMARK  Name = 
REMARK  12 active torsions:
REMARK  status: ('A' for Active; 'I' for Inactive)
REMARK    1  A    between atoms: C_1  and  C_2
REMARK    2  A    between atoms: C_2  and  O_3
REMARK    3  A    between atoms: C_2  and  C_4
REMARK    4  A    between atoms: C_2  and  C_6
REMARK    5  A    between atoms: C_6  and  C_7
REMARK    6  A    between atoms: C_7  and  O_8
REMARK    7  A    between atoms: O_8  and  P_9
REMARK    8  A    between atoms: P_9  and  O_10
REMARK    9  A    between atoms: P_9  and  O_12
REMARK   10  A    between atoms: O_12  and  P_13
REMARK   11  A    between atoms: P_13  and  O_14
REMARK   12  A    between atoms: P_13  and  O_15
REMARK                            x       y       z     vdW  Elec       q    Type
REMARK                         _______ _______ _______ _____ _____    ______ ____
ROOT
ATOM      1  P   UNL     1       9.261  -0.319  22.044  0.00  0.00    +0.483 P 
ATOM      2  O   UNL     1      10.366  -0.261  23.102  0.00  0.00    -0.227 OA
ENDROOT
BRANCH   1   3
ATOM      3  O   UNL     1      10.049  -1.709  21.381  0.00  0.00    -0.302 OA
ATOM      4  H   UNL     1      10.740  -1.929  22.037  0.00  0.00    +0.222 HD
ENDBRANCH   1   3
BRANCH   1   5
ATOM      5  O   UNL     1       8.050  -1.288  22.601  0.00  0.00    -0.286 OA
BRANCH   5   6
ATOM      6  C   UNL     1       8.170  -2.679  22.362  0.00  0.00    +0.175 C 
BRANCH   6   7
ATOM      7  C   UNL     1       7.806  -3.474  23.615  0.00  0.00    +0.064 C 
BRANCH   7   9
ATOM      8  C   UNL     1       9.155  -4.986  25.098  0.00  0.00    +0.042 C 
ATOM      9  C   UNL     1       8.957  -3.531  24.651  0.00  0.00    +0.075 C 
BRANCH   9  10
ATOM     10  O   UNL     1      10.157  -3.137  23.973  0.00  0.00    -0.388 OA
ATOM     11  H   UNL     1      10.560  -3.914  23.549  0.00  0.00    +0.210 HD
ENDBRANCH   9  10
BRANCH   9  12
ATOM     12  C   UNL     1       8.651  -2.606  25.845  0.00  0.00    +0.114 C 
ATOM     13 BR   UNL     1       6.761  -2.570  26.327  0.00  0.00    -0.089 Br
ENDBRANCH   9  12
ENDBRANCH   7   9
ENDBRANCH   6   7
ENDBRANCH   5   6
ENDBRANCH   1   5
BRANCH   1  14
ATOM     14  O   UNL     1       8.472   1.071  22.706  0.00  0.00    -0.186 OA
BRANCH  14  15
ATOM     15  P   UNL     1       9.212   2.456  22.813  0.00  0.00    +0.481 P 
ATOM     16  O   UNL     1       9.596   2.915  24.177  0.00  0.00    -0.227 OA
BRANCH  15  17
ATOM     17  O   UNL     1       8.207   3.467  22.090  0.00  0.00    -0.302 OA
ATOM     18  H   UNL     1       8.682   4.143  21.572  0.00  0.00    +0.222 HD
ENDBRANCH  15  17
BRANCH  15  19
ATOM     19  O   UNL     1      10.361   2.410  21.706  0.00  0.00    -0.302 OA
ATOM     20  H   UNL     1      10.387   1.537  21.273  0.00  0.00    +0.222 HD
ENDBRANCH  15  19
ENDBRANCH  14  15
ENDBRANCH   1  14
TORSDOF 11
ENDMDL
MODEL 3
REMARK VINA RESULT:      -4.5      2.724      4.305
REMARK  Name = 
REMARK  12 active torsions:
REMARK  status: ('A' for Active; 'I' for Inactive)
REMARK    1  A    between atoms: C_1  and  C_2
REMARK    2  A    between atoms: C_2  and  O_3
REMARK    3  A    between atoms: C_2  and  C_4
REMARK    4  A    between atoms: C_2  and  C_6
REMARK    5  A    between atoms: C_6  and  C_7
REMARK    6  A    between atoms: C_7  and  O_8
REMARK    7  A    between atoms: O_8  and  P_9
REMARK    8  A    between atoms: P_9  and  O_10
REMARK    9  A    between atoms: P_9  and  O_12
REMARK   10  A    between atoms: O_12  and  P_13
REMARK   11  A    between atoms: P_13  and  O_14
REMARK   12  A    between atoms: P_13  and  O_15
REMARK                            x       y       z     vdW  Elec       q    Type
REMARK                         _______ _______ _______ _____ _____    ______ ____
ROOT
ATOM      1  P   UNL     1       7.148  -5.204  23.252  0.00  0.00    +0.483 P 
ATOM      2  O   UNL     1       5.698  -4.745  23.068  0.00  0.00    -0.227 OA
ENDROOT
BRANCH   1   3
ATOM      3  O   UNL     1       7.162  -5.638  21.578  0.00  0.00    -0.302 OA
ATOM      4  H   UNL     1       7.202  -4.782  21.108  0.00  0.00    +0.222 HD
ENDBRANCH   1   3
BRANCH   1   5
ATOM      5  O   UNL     1       8.147  -3.937  22.919  0.00  0.00    -0.286 OA
BRANCH   5   6
ATOM      6  C   UNL     1       7.543  -2.679  22.680  0.00  0.00    +0.175 C 
BRANCH   6   7
ATOM      7  C   UNL     1       8.049  -1.639  23.679  0.00  0.00    +0.064 C 
BRANCH   7   9
ATOM      8  C   UNL     1       9.975  -0.300  24.576  0.00  0.00    +0.042 C 
ATOM      9  C   UNL     1       9.558  -1.326  23.513  0.00  0.00    +0.075 C 
BRANCH   9  10
ATOM     10  O   UNL     1      10.275  -2.534  23.797  0.00  0.00    -0.388 OA
ATOM     11  H   UNL     1       9.646  -3.269  23.894  0.00  0.00    +0.210 HD
ENDBRANCH   9  10
BRANCH   9  12
ATOM     12  C   UNL     1       9.847  -0.818  22.087  0.00  0.00    +0.114 C 
ATOM     13 BR   UNL     1       9.772   1.125  21.932  0.00  0.00    -0.089 Br
ENDBRANCH   9  12
ENDBRANCH   7   9
ENDBRANCH   6   7
ENDBRANCH   5   6
ENDBRANCH   1   5
BRANCH   1  14
ATOM     14  O   UNL     1       7.134  -4.771  24.927  0.00  0.00    -0.186 OA
BRANCH  14  15
ATOM     15  P   UNL     1       8.439  -4.852  25.803  0.00  0.00    +0.481 P 
ATOM     16  O   UNL     1       8.945  -3.579  26.385  0.00  0.00    -0.227 OA
BRANCH  15  17
ATOM     17  O   UNL     1       9.498  -5.537  24.821  0.00  0.00    -0.302 OA
ATOM     18  H   UNL     1       9.166  -5.587  23.905  0.00  0.00    +0.222 HD
ENDBRANCH  15  17
BRANCH  15  19
ATOM     19  O   UNL     1       8.201  -6.072  26.805  0.00  0.00    -0.302 OA
ATOM     20  H   UNL     1       7.833  -5.756  27.650  0.00  0.00    +0.222 HD
ENDBRANCH  15  19
ENDBRANCH  14  15
ENDBRANCH   1  14
TORSDOF 11
ENDMDL
MODEL 4
REMARK VINA RESULT:      -4.5      3.356      4.661
REMARK  Name = 
REMARK  12 active torsions:
REMARK  status: ('A' for Active; 'I' for Inactive)
REMARK    1  A    between atoms: C_1  and  C_2
REMARK    2  A    between atoms: C_2  and  O_3
REMARK    3  A    between atoms: C_2  and  C_4
REMARK    4  A    between atoms: C_2  and  C_6
REMARK    5  A    between atoms: C_6  and  C_7
REMARK    6  A    between atoms: C_7  and  O_8
REMARK    7  A    between atoms: O_8  and  P_9
REMARK    8  A    between atoms: P_9  and  O_10
REMARK    9  A    between atoms: P_9  and  O_12
REMARK   10  A    between atoms: O_12  and  P_13
REMARK   11  A    between atoms: P_13  and  O_14
REMARK   12  A    between atoms: P_13  and  O_15
REMARK                            x       y       z     vdW  Elec       q    Type
REMARK                         _______ _______ _______ _____ _____    ______ ____
ROOT
ATOM      1  P   UNL     1       8.454  -5.203  25.533  0.00  0.00    +0.483 P 
ATOM      2  O   UNL     1       9.960  -4.964  25.674  0.00  0.00    -0.227 OA
ENDROOT
BRANCH   1   3
ATOM      3  O   UNL     1       8.361  -5.267  27.259  0.00  0.00    -0.302 OA
ATOM      4  H   UNL     1       8.167  -4.347  27.524  0.00  0.00    +0.222 HD
ENDBRANCH   1   3
BRANCH   1   5
ATOM      5  O   UNL     1       7.685  -3.746  25.559  0.00  0.00    -0.286 OA
BRANCH   5   6
ATOM      6  C   UNL     1       8.413  -2.636  26.052  0.00  0.00    +0.175 C 
BRANCH   6   7
ATOM      7  C   UNL     1       8.091  -1.379  25.246  0.00  0.00    +0.064 C 
BRANCH   7   9
ATOM      8  C   UNL     1      10.241  -0.220  24.662  0.00  0.00    +0.042 C 
ATOM      9  C   UNL     1       9.114  -1.107  24.114  0.00  0.00    +0.075 C 
BRANCH   9  10
ATOM     10  O   UNL     1       9.707  -2.365  23.767  0.00  0.00    -0.388 OA
ATOM     11  H   UNL     1       9.008  -3.031  23.650  0.00  0.00    +0.210 HD
ENDBRANCH   9  10
BRANCH   9  12
ATOM     12  C   UNL     1       8.416  -0.457  22.903  0.00  0.00    +0.114 C 
ATOM     13 BR   UNL     1       9.607   0.659  21.835  0.00  0.00    -0.089 Br
ENDBRANCH   9  12
ENDBRANCH   7   9
ENDBRANCH   6   7
ENDBRANCH   5   6
ENDBRANCH   1   5
BRANCH   1  14
ATOM     14  O   UNL     1       8.546  -5.140  23.806  0.00  0.00    -0.186 OA
BRANCH  14  15
ATOM     15  P   UNL     1       7.247  -5.139  22.918  0.00  0.00    +0.481 P 
ATOM     16  O   UNL     1       7.291  -5.922  21.653  0.00  0.00    -0.227 OA
BRANCH  15  17
ATOM     17  O   UNL     1       6.975  -3.585  22.665  0.00  0.00    -0.302 OA
ATOM     18  H   UNL     1       7.512  -3.238  21.928  0.00  0.00    +0.222 HD
ENDBRANCH  15  17
BRANCH  15  19
ATOM     19  O   UNL     1       6.046  -5.442  23.925  0.00  0.00    -0.302 OA
ATOM     20  H   UNL     1       6.330  -5.318  24.849  0.00  0.00    +0.222 HD
ENDBRANCH  15  19
ENDBRANCH  14  15
ENDBRANCH   1  14
TORSDOF 11
ENDMDL
MODEL 5
REMARK VINA RESULT:      -4.5      3.136      4.168
REMARK  Name = 
REMARK  12 active torsions:
REMARK  status: ('A' for Active; 'I' for Inactive)
REMARK    1  A    between atoms: C_1  and  C_2
REMARK    2  A    between atoms: C_2  and  O_3
REMARK    3  A    between atoms: C_2  and  C_4
REMARK    4  A    between atoms: C_2  and  C_6
REMARK    5  A    between atoms: C_6  and  C_7
REMARK    6  A    between atoms: C_7  and  O_8
REMARK    7  A    between atoms: O_8  and  P_9
REMARK    8  A    between atoms: P_9  and  O_10
REMARK    9  A    between atoms: P_9  and  O_12
REMARK   10  A    between atoms: O_12  and  P_13
REMARK   11  A    between atoms: P_13  and  O_14
REMARK   12  A    between atoms: P_13  and  O_15
REMARK                            x       y       z     vdW  Elec       q    Type
REMARK                         _______ _______ _______ _____ _____    ______ ____
ROOT
ATOM      1  P   UNL     1       8.709  -4.302  24.775  0.00  0.00    +0.483 P 
ATOM      2  O   UNL     1       9.065  -5.703  24.266  0.00  0.00    -0.227 OA
ENDROOT
BRANCH   1   3
ATOM      3  O   UNL     1      10.298  -3.796  24.315  0.00  0.00    -0.302 OA
ATOM      4  H   UNL     1      10.190  -2.856  24.071  0.00  0.00    +0.222 HD
ENDBRANCH   1   3
BRANCH   1   5
ATOM      5  O   UNL     1       8.084  -3.432  23.522  0.00  0.00    -0.286 OA
BRANCH   5   6
ATOM      6  C   UNL     1       7.709  -2.092  23.785  0.00  0.00    +0.175 C 
BRANCH   6   7
ATOM      7  C   UNL     1       7.980  -1.207  22.570  0.00  0.00    +0.064 C 
BRANCH   7   9
ATOM      8  C   UNL     1       9.959  -0.428  23.905  0.00  0.00    +0.042 C 
ATOM      9  C   UNL     1       9.451  -0.727  22.487  0.00  0.00    +0.075 C 
BRANCH   9  10
ATOM     10  O   UNL     1      10.228  -1.824  21.989  0.00  0.00    -0.388 OA
ATOM     11  H   UNL     1      10.917  -1.487  21.391  0.00  0.00    +0.210 HD
ENDBRANCH   9  10
BRANCH   9  12
ATOM     12  C   UNL     1       9.562   0.508  21.571  0.00  0.00    +0.114 C 
ATOM     13 BR   UNL     1      10.061   2.133  22.526  0.00  0.00    -0.089 Br
ENDBRANCH   9  12
ENDBRANCH   7   9
ENDBRANCH   6   7
ENDBRANCH   5   6
ENDBRANCH   1   5
BRANCH   1  14
ATOM     14  O   UNL     1       7.120  -4.809  25.234  0.00  0.00    -0.186 OA
BRANCH  14  15
ATOM     15  P   UNL     1       6.778  -5.172  26.726  0.00  0.00    +0.481 P 
ATOM     16  O   UNL     1       6.256  -4.076  27.588  0.00  0.00    -0.227 OA
BRANCH  15  17
ATOM     17  O   UNL     1       8.148  -5.782  27.279  0.00  0.00    -0.302 OA
ATOM     18  H   UNL     1       8.703  -6.140  26.561  0.00  0.00    +0.222 HD
ENDBRANCH  15  17
BRANCH  15  19
ATOM     19  O   UNL     1       5.919  -6.515  26.649  0.00  0.00    -0.302 OA
ATOM     20  H   UNL     1       5.366  -6.525  25.847  0.00  0.00    +0.222 HD
ENDBRANCH  15  19
ENDBRANCH  14  15
ENDBRANCH   1  14
TORSDOF 11
ENDMDL
MODEL 6
REMARK VINA RESULT:      -4.4      4.308      5.809
REMARK  Name = 
REMARK  12 active torsions:
REMARK  status: ('A' for Active; 'I' for Inactive)
REMARK    1  A    between atoms: C_1  and  C_2
REMARK    2  A    between atoms: C_2  and  O_3
REMARK    3  A    between atoms: C_2  and  C_4
REMARK    4  A    between atoms: C_2  and  C_6
REMARK    5  A    between atoms: C_6  and  C_7
REMARK    6  A    between atoms: C_7  and  O_8
REMARK    7  A    between atoms: O_8  and  P_9
REMARK    8  A    between atoms: P_9  and  O_10
REMARK    9  A    between atoms: P_9  and  O_12
REMARK   10  A    between atoms: O_12  and  P_13
REMARK   11  A    between atoms: P_13  and  O_14
REMARK   12  A    between atoms: P_13  and  O_15
REMARK                            x       y       z     vdW  Elec       q    Type
REMARK                         _______ _______ _______ _____ _____    ______ ____
ROOT
ATOM      1  P   UNL     1       9.536  -1.783  23.024  0.00  0.00    +0.483 P 
ATOM      2  O   UNL     1       8.420  -2.545  22.302  0.00  0.00    -0.227 OA
ENDROOT
BRANCH   1   3
ATOM      3  O   UNL     1      10.275  -1.521  21.482  0.00  0.00    -0.302 OA
ATOM      4  H   UNL     1      10.183  -2.378  21.023  0.00  0.00    +0.222 HD
ENDBRANCH   1   3
BRANCH   1   5
ATOM      5  O   UNL     1       9.128  -0.187  23.084  0.00  0.00    -0.286 OA
BRANCH   5   6
ATOM      6  C   UNL     1       9.440   0.519  24.271  0.00  0.00    +0.175 C 
BRANCH   6   7
ATOM      7  C   UNL     1      10.622   1.460  24.043  0.00  0.00    +0.064 C 
BRANCH   7   9
ATOM      8  C   UNL     1      11.369   3.742  23.307  0.00  0.00    +0.042 C 
ATOM      9  C   UNL     1      10.257   2.692  23.176  0.00  0.00    +0.075 C 
BRANCH   9  10
ATOM     10  O   UNL     1      10.249   2.261  21.809  0.00  0.00    -0.388 OA
ATOM     11  H   UNL     1      10.947   2.729  21.318  0.00  0.00    +0.210 HD
ENDBRANCH   9  10
BRANCH   9  12
ATOM     12  C   UNL     1       8.887   3.258  23.599  0.00  0.00    +0.114 C 
ATOM     13 BR   UNL     1       7.533   3.124  22.201  0.00  0.00    -0.089 Br
ENDBRANCH   9  12
ENDBRANCH   7   9
ENDBRANCH   6   7
ENDBRANCH   5   6
ENDBRANCH   1   5
BRANCH   1  14
ATOM     14  O   UNL     1       8.796  -2.045  24.566  0.00  0.00    -0.186 OA
BRANCH  14  15
ATOM     15  P   UNL     1       8.657  -3.491  25.170  0.00  0.00    +0.481 P 
ATOM     16  O   UNL     1       8.703  -3.614  26.653  0.00  0.00    -0.227 OA
BRANCH  15  17
ATOM     17  O   UNL     1       9.832  -4.303  24.454  0.00  0.00    -0.302 OA
ATOM     18  H   UNL     1      10.683  -3.830  24.503  0.00  0.00    +0.222 HD
ENDBRANCH  15  17
BRANCH  15  19
ATOM     19  O   UNL     1       7.408  -4.145  24.420  0.00  0.00    -0.302 OA
ATOM     20  H   UNL     1       7.687  -4.918  23.897  0.00  0.00    +0.222 HD
ENDBRANCH  15  19
ENDBRANCH  14  15
ENDBRANCH   1  14
TORSDOF 11
ENDMDL
MODEL 7
REMARK VINA RESULT:      -4.4      5.879      7.753
REMARK  Name = 
REMARK  12 active torsions:
REMARK  status: ('A' for Active; 'I' for Inactive)
REMARK    1  A    between atoms: C_1  and  C_2
REMARK    2  A    between atoms: C_2  and  O_3
REMARK    3  A    between atoms: C_2  and  C_4
REMARK    4  A    between atoms: C_2  and  C_6
REMARK    5  A    between atoms: C_6  and  C_7
REMARK    6  A    between atoms: C_7  and  O_8
REMARK    7  A    between atoms: O_8  and  P_9
REMARK    8  A    between atoms: P_9  and  O_10
REMARK    9  A    between atoms: P_9  and  O_12
REMARK   10  A    between atoms: O_12  and  P_13
REMARK   11  A    between atoms: P_13  and  O_14
REMARK   12  A    between atoms: P_13  and  O_15
REMARK                            x       y       z     vdW  Elec       q    Type
REMARK                         _______ _______ _______ _____ _____    ______ ____
ROOT
ATOM      1  P   UNL     1       9.778   1.059  22.454  0.00  0.00    +0.483 P 
ATOM      2  O   UNL     1       9.062   0.557  21.196  0.00  0.00    -0.227 OA
ENDROOT
BRANCH   1   3
ATOM      3  O   UNL     1      10.355   2.396  21.520  0.00  0.00    -0.302 OA
ATOM      4  H   UNL     1      11.020   2.003  20.921  0.00  0.00    +0.222 HD
ENDBRANCH   1   3
BRANCH   1   5
ATOM      5  O   UNL     1       8.767   2.078  23.263  0.00  0.00    -0.286 OA
BRANCH   5   6
ATOM      6  C   UNL     1       9.275   2.716  24.420  0.00  0.00    +0.175 C 
BRANCH   6   7
ATOM      7  C   UNL     1       8.586   4.061  24.642  0.00  0.00    +0.064 C 
BRANCH   7   9
ATOM      8  C   UNL     1       9.895   6.166  25.043  0.00  0.00    +0.042 C 
ATOM      9  C   UNL     1       9.325   5.240  23.960  0.00  0.00    +0.075 C 
BRANCH   9  10
ATOM     10  O   UNL     1      10.444   4.687  23.255  0.00  0.00    -0.388 OA
ATOM     11  H   UNL     1      11.072   4.303  23.892  0.00  0.00    +0.210 HD
ENDBRANCH   9  10
BRANCH   9  12
ATOM     12  C   UNL     1       8.374   5.993  23.010  0.00  0.00    +0.114 C 
ATOM     13 BR   UNL     1       6.722   5.021  22.646  0.00  0.00    -0.089 Br
ENDBRANCH   9  12
ENDBRANCH   7   9
ENDBRANCH   6   7
ENDBRANCH   5   6
ENDBRANCH   1   5
BRANCH   1  14
ATOM     14  O   UNL     1       9.201  -0.278  23.387  0.00  0.00    -0.186 OA
BRANCH  14  15
ATOM     15  P   UNL     1       9.486  -1.763  22.951  0.00  0.00    +0.481 P 
ATOM     16  O   UNL     1       9.918  -2.711  24.014  0.00  0.00    -0.227 OA
BRANCH  15  17
ATOM     17  O   UNL     1      10.580  -1.603  21.796  0.00  0.00    -0.302 OA
ATOM     18  H   UNL     1      11.431  -1.277  22.144  0.00  0.00    +0.222 HD
ENDBRANCH  15  17
BRANCH  15  19
ATOM     19  O   UNL     1       8.236  -2.189  22.054  0.00  0.00    -0.302 OA
ATOM     20  H   UNL     1       8.435  -2.997  21.548  0.00  0.00    +0.222 HD
ENDBRANCH  15  19
ENDBRANCH  14  15
ENDBRANCH   1  14
TORSDOF 11
ENDMDL
MODEL 8
REMARK VINA RESULT:      -4.4      3.417      4.868
REMARK  Name = 
REMARK  12 active torsions:
REMARK  status: ('A' for Active; 'I' for Inactive)
REMARK    1  A    between atoms: C_1  and  C_2
REMARK    2  A    between atoms: C_2  and  O_3
REMARK    3  A    between atoms: C_2  and  C_4
REMARK    4  A    between atoms: C_2  and  C_6
REMARK    5  A    between atoms: C_6  and  C_7
REMARK    6  A    between atoms: C_7  and  O_8
REMARK    7  A    between atoms: O_8  and  P_9
REMARK    8  A    between atoms: P_9  and  O_10
REMARK    9  A    between atoms: P_9  and  O_12
REMARK   10  A    between atoms: O_12  and  P_13
REMARK   11  A    between atoms: P_13  and  O_14
REMARK   12  A    between atoms: P_13  and  O_15
REMARK                            x       y       z     vdW  Elec       q    Type
REMARK                         _______ _______ _______ _____ _____    ______ ____
ROOT
ATOM      1  P   UNL     1       6.090  -5.556  22.218  0.00  0.00    +0.483 P 
ATOM      2  O   UNL     1       4.832  -4.681  22.211  0.00  0.00    -0.227 OA
ENDROOT
BRANCH   1   3
ATOM      3  O   UNL     1       5.982  -5.623  20.493  0.00  0.00    -0.302 OA
ATOM      4  H   UNL     1       6.747  -5.100  20.184  0.00  0.00    +0.222 HD
ENDBRANCH   1   3
BRANCH   1   5
ATOM      5  O   UNL     1       7.410  -4.579  22.084  0.00  0.00    -0.286 OA
BRANCH   5   6
ATOM      6  C   UNL     1       7.531  -3.518  23.015  0.00  0.00    +0.175 C 
BRANCH   6   7
ATOM      7  C   UNL     1       7.931  -2.224  22.308  0.00  0.00    +0.064 C 
BRANCH   7   9
ATOM      8  C   UNL     1       9.853  -2.591  23.883  0.00  0.00    +0.042 C 
ATOM      9  C   UNL     1       9.306  -1.681  22.774  0.00  0.00    +0.075 C 
BRANCH   9  10
ATOM     10  O   UNL     1      10.204  -1.792  21.663  0.00  0.00    -0.388 OA
ATOM     11  H   UNL     1      10.955  -2.361  21.908  0.00  0.00    +0.210 HD
ENDBRANCH   9  10
BRANCH   9  12
ATOM     12  C   UNL     1       9.173  -0.221  23.251  0.00  0.00    +0.114 C 
ATOM     13 BR   UNL     1       9.125   1.066  21.785  0.00  0.00    -0.089 Br
ENDBRANCH   9  12
ENDBRANCH   7   9
ENDBRANCH   6   7
ENDBRANCH   5   6
ENDBRANCH   1   5
BRANCH   1  14
ATOM     14  O   UNL     1       6.198  -5.489  23.944  0.00  0.00    -0.186 OA
BRANCH  14  15
ATOM     15  P   UNL     1       5.103  -6.155  24.857  0.00  0.00    +0.481 P 
ATOM     16  O   UNL     1       5.544  -6.660  26.186  0.00  0.00    -0.227 OA
BRANCH  15  17
ATOM     17  O   UNL     1       4.506  -7.313  23.931  0.00  0.00    -0.302 OA
ATOM     18  H   UNL     1       3.896  -7.894  24.423  0.00  0.00    +0.222 HD
ENDBRANCH  15  17
BRANCH  15  19
ATOM     19  O   UNL     1       3.862  -5.150  24.831  0.00  0.00    -0.302 OA
ATOM     20  H   UNL     1       3.068  -5.592  24.479  0.00  0.00    +0.222 HD
ENDBRANCH  15  19
ENDBRANCH  14  15
ENDBRANCH   1  14
TORSDOF 11
ENDMDL
MODEL 9
REMARK VINA RESULT:      -4.3      3.431      4.733
REMARK  Name = 
REMARK  12 active torsions:
REMARK  status: ('A' for Active; 'I' for Inactive)
REMARK    1  A    between atoms: C_1  and  C_2
REMARK    2  A    between atoms: C_2  and  O_3
REMARK    3  A    between atoms: C_2  and  C_4
REMARK    4  A    between atoms: C_2  and  C_6
REMARK    5  A    between atoms: C_6  and  C_7
REMARK    6  A    between atoms: C_7  and  O_8
REMARK    7  A    between atoms: O_8  and  P_9
REMARK    8  A    between atoms: P_9  and  O_10
REMARK    9  A    between atoms: P_9  and  O_12
REMARK   10  A    between atoms: O_12  and  P_13
REMARK   11  A    between atoms: P_13  and  O_14
REMARK   12  A    between atoms: P_13  and  O_15
REMARK                            x       y       z     vdW  Elec       q    Type
REMARK                         _______ _______ _______ _____ _____    ______ ____
ROOT
ATOM      1  P   UNL     1       7.690  -2.674  23.333  0.00  0.00    +0.483 P 
ATOM      2  O   UNL     1       7.994  -1.677  24.456  0.00  0.00    -0.227 OA
ENDROOT
BRANCH   1   3
ATOM      3  O   UNL     1       6.455  -1.593  22.787  0.00  0.00    -0.302 OA
ATOM      4  H   UNL     1       6.683  -1.420  21.852  0.00  0.00    +0.222 HD
ENDBRANCH   1   3
BRANCH   1   5
ATOM      5  O   UNL     1       8.600  -2.278  22.018  0.00  0.00    -0.286 OA
BRANCH   5   6
ATOM      6  C   UNL     1       9.702  -1.413  22.226  0.00  0.00    +0.175 C 
BRANCH   6   7
ATOM      7  C   UNL     1       9.499  -0.092  21.485  0.00  0.00    +0.064 C 
BRANCH   7   9
ATOM      8  C   UNL     1      10.567   0.816  23.569  0.00  0.00    +0.042 C 
ATOM      9  C   UNL     1       9.615   1.145  22.411  0.00  0.00    +0.075 C 
BRANCH   9  10
ATOM     10  O   UNL     1      10.233   2.189  21.647  0.00  0.00    -0.388 OA
ATOM     11  H   UNL     1      10.067   3.046  22.077  0.00  0.00    +0.210 HD
ENDBRANCH   9  10
BRANCH   9  12
ATOM     12  C   UNL     1       8.222   1.566  22.922  0.00  0.00    +0.114 C 
ATOM     13 BR   UNL     1       8.200   2.003  24.823  0.00  0.00    -0.089 Br
ENDBRANCH   9  12
ENDBRANCH   7   9
ENDBRANCH   6   7
ENDBRANCH   5   6
ENDBRANCH   1   5
BRANCH   1  14
ATOM     14  O   UNL     1       8.925  -3.755  23.880  0.00  0.00    -0.186 OA
BRANCH  14  15
ATOM     15  P   UNL     1       8.691  -4.707  25.111  0.00  0.00    +0.481 P 
ATOM     16  O   UNL     1       7.379  -5.405  25.188  0.00  0.00    -0.227 OA
BRANCH  15  17
ATOM     17  O   UNL     1       8.949  -3.752  26.367  0.00  0.00    -0.302 OA
ATOM     18  H   UNL     1       9.017  -2.816  26.104  0.00  0.00    +0.222 HD
ENDBRANCH  15  17
BRANCH  15  19
ATOM     19  O   UNL     1      10.006  -5.607  25.207  0.00  0.00    -0.302 OA
ATOM     20  H   UNL     1       9.788  -6.549  25.090  0.00  0.00    +0.222 HD
ENDBRANCH  15  19
ENDBRANCH  14  15
ENDBRANCH   1  14
TORSDOF 11
ENDMDL
