MODEL 1
REMARK VINA RESULT:      -6.9      0.000      0.000
REMARK  Name = 
REMARK  5 active torsions:
REMARK  status: ('A' for Active; 'I' for Inactive)
REMARK    1  A    between atoms: C_1  and  C_2
REMARK    2  A    between atoms: C_7  and  O_8
REMARK    3  A    between atoms: O_8  and  C_9
REMARK    4  A    between atoms: C_11  and  C_17
REMARK    5  A    between atoms: C_13  and  C_15
REMARK                            x       y       z     vdW  Elec       q    Type
REMARK                         _______ _______ _______ _____ _____    ______ ____
ROOT
ATOM      1  C   UNL     1       8.320  -0.305  26.739  0.00  0.00    +0.068 C 
ATOM      2  C   UNL     1       8.266   0.587  25.556  0.00  0.00    +0.071 A 
ATOM      3  C   UNL     1       8.806   0.366  24.252  0.00  0.00    +0.067 A 
ATOM      4  C   UNL     1       9.509  -0.675  23.596  0.00  0.00    +0.174 A 
ATOM      5  C   UNL     1       9.861  -0.460  22.253  0.00  0.00    +0.166 A 
ATOM      6  C   UNL     1       9.535   0.719  21.581  0.00  0.00    +0.044 A 
ATOM      7  C   UNL     1       8.820   1.737  22.213  0.00  0.00    +0.031 A 
ATOM      8  F   UNL     1      10.513  -1.405  21.559  0.00  0.00    -0.202 F 
ATOM      9  C   UNL     1       8.485   1.529  23.552  0.00  0.00    +0.070 A 
ATOM     10  N   UNL     1       7.809   2.321  24.441  0.00  0.00    -0.277 N 
ATOM     11  H   UNL     1       7.426   3.246  24.280  0.00  0.00    +0.189 HD
ATOM     12  N   UNL     1       7.664   1.779  25.657  0.00  0.00    -0.178 NA
ENDROOT
BRANCH   4  13
ATOM     13  O   UNL     1       9.651  -1.873  24.261  0.00  0.00    -0.452 OA
BRANCH  13  14
ATOM     14  C   UNL     1       8.693  -2.857  24.233  0.00  0.00    +0.131 A 
ATOM     15  C   UNL     1       8.502  -3.534  25.445  0.00  0.00    +0.065 A 
ATOM     16  C   UNL     1       7.646  -4.640  25.523  0.00  0.00    +0.056 A 
ATOM     17  C   UNL     1       6.987  -5.083  24.372  0.00  0.00    +0.038 A 
ATOM     18  C   UNL     1       7.180  -4.414  23.156  0.00  0.00    +0.056 A 
ATOM     19  C   UNL     1       8.030  -3.299  23.088  0.00  0.00    +0.065 A 
BRANCH  16  20
ATOM     20  C   UNL     1       7.449  -5.323  26.772  0.00  0.00    +0.099 C 
ATOM     21  N   UNL     1       7.287  -5.876  27.784  0.00  0.00    -0.191 NA
ENDBRANCH  16  20
BRANCH  18  22
ATOM     22  C   UNL     1       6.535  -4.888  21.966  0.00  0.00    +0.099 C 
ATOM     23  N   UNL     1       6.027  -5.263  20.993  0.00  0.00    -0.191 NA
ENDBRANCH  18  22
ENDBRANCH  13  14
ENDBRANCH   4  13
TORSDOF 4
ENDMDL
MODEL 2
REMARK VINA RESULT:      -6.7      0.349      2.779
REMARK  Name = 
REMARK  5 active torsions:
REMARK  status: ('A' for Active; 'I' for Inactive)
REMARK    1  A    between atoms: C_1  and  C_2
REMARK    2  A    between atoms: C_7  and  O_8
REMARK    3  A    between atoms: O_8  and  C_9
REMARK    4  A    between atoms: C_11  and  C_17
REMARK    5  A    between atoms: C_13  and  C_15
REMARK                            x       y       z     vdW  Elec       q    Type
REMARK                         _______ _______ _______ _____ _____    ______ ____
ROOT
ATOM      1  C   UNL     1       8.124  -0.105  26.692  0.00  0.00    +0.068 C 
ATOM      2  C   UNL     1       8.008   0.618  25.402  0.00  0.00    +0.071 A 
ATOM      3  C   UNL     1       8.636   0.316  24.156  0.00  0.00    +0.067 A 
ATOM      4  C   UNL     1       9.507  -0.689  23.663  0.00  0.00    +0.174 A 
ATOM      5  C   UNL     1       9.892  -0.595  22.316  0.00  0.00    +0.166 A 
ATOM      6  C   UNL     1       9.443   0.434  21.486  0.00  0.00    +0.044 A 
ATOM      7  C   UNL     1       8.565   1.411  21.957  0.00  0.00    +0.031 A 
ATOM      8  F   UNL     1      10.700  -1.517  21.770  0.00  0.00    -0.202 F 
ATOM      9  C   UNL     1       8.195   1.325  23.301  0.00  0.00    +0.070 A 
ATOM     10  N   UNL     1       7.375   2.118  24.058  0.00  0.00    -0.277 N 
ATOM     11  H   UNL     1       6.878   2.952  23.766  0.00  0.00    +0.189 HD
ATOM     12  N   UNL     1       7.245   1.716  25.328  0.00  0.00    -0.178 NA
ENDROOT
BRANCH   4  13
ATOM     13  O   UNL     1       9.777  -1.763  24.482  0.00  0.00    -0.452 OA
BRANCH  13  14
ATOM     14  C   UNL     1       8.967  -2.872  24.547  0.00  0.00    +0.131 A 
ATOM     15  C   UNL     1       8.278  -3.173  23.364  0.00  0.00    +0.065 A 
ATOM     16  C   UNL     1       7.326  -4.200  23.330  0.00  0.00    +0.056 A 
ATOM     17  C   UNL     1       7.050  -4.922  24.495  0.00  0.00    +0.038 A 
ATOM     18  C   UNL     1       7.731  -4.620  25.682  0.00  0.00    +0.056 A 
ATOM     19  C   UNL     1       8.692  -3.598  25.706  0.00  0.00    +0.065 A 
BRANCH  16  20
ATOM     20  C   UNL     1       6.631  -4.509  22.111  0.00  0.00    +0.099 C 
ATOM     21  N   UNL     1       6.068  -4.761  21.123  0.00  0.00    -0.191 NA
ENDBRANCH  16  20
BRANCH  18  22
ATOM     22  C   UNL     1       7.425  -5.334  26.887  0.00  0.00    +0.099 C 
ATOM     23  N   UNL     1       7.193  -5.921  27.860  0.00  0.00    -0.191 NA
ENDBRANCH  18  22
ENDBRANCH  13  14
ENDBRANCH   4  13
TORSDOF 4
ENDMDL
MODEL 3
REMARK VINA RESULT:      -6.7      1.886      2.857
REMARK  Name = 
REMARK  5 active torsions:
REMARK  status: ('A' for Active; 'I' for Inactive)
REMARK    1  A    between atoms: C_1  and  C_2
REMARK    2  A    between atoms: C_7  and  O_8
REMARK    3  A    between atoms: O_8  and  C_9
REMARK    4  A    between atoms: C_11  and  C_17
REMARK    5  A    between atoms: C_13  and  C_15
REMARK                            x       y       z     vdW  Elec       q    Type
REMARK                         _______ _______ _______ _____ _____    ______ ____
ROOT
ATOM      1  C   UNL     1       6.012   0.342  25.434  0.00  0.00    +0.068 C 
ATOM      2  C   UNL     1       7.178   1.192  25.089  0.00  0.00    +0.071 A 
ATOM      3  C   UNL     1       8.031   1.106  23.948  0.00  0.00    +0.067 A 
ATOM      4  C   UNL     1       8.111   0.299  22.785  0.00  0.00    +0.174 A 
ATOM      5  C   UNL     1       9.158   0.573  21.889  0.00  0.00    +0.166 A 
ATOM      6  C   UNL     1      10.083   1.593  22.118  0.00  0.00    +0.044 A 
ATOM      7  C   UNL     1       9.994   2.408  23.248  0.00  0.00    +0.031 A 
ATOM      8  F   UNL     1       9.291  -0.135  20.757  0.00  0.00    -0.202 F 
ATOM      9  C   UNL     1       8.963   2.125  24.145  0.00  0.00    +0.070 A 
ATOM     10  N   UNL     1       8.616   2.717  25.329  0.00  0.00    -0.277 N 
ATOM     11  H   UNL     1       9.075   3.495  25.791  0.00  0.00    +0.189 HD
ATOM     12  N   UNL     1       7.545   2.174  25.921  0.00  0.00    -0.178 NA
ENDROOT
BRANCH   4  13
ATOM     13  O   UNL     1       7.076  -0.574  22.536  0.00  0.00    -0.452 OA
BRANCH  13  14
ATOM     14  C   UNL     1       7.109  -1.895  22.912  0.00  0.00    +0.131 A 
ATOM     15  C   UNL     1       5.895  -2.582  22.776  0.00  0.00    +0.065 A 
ATOM     16  C   UNL     1       5.758  -3.896  23.239  0.00  0.00    +0.056 A 
ATOM     17  C   UNL     1       6.843  -4.525  23.859  0.00  0.00    +0.038 A 
ATOM     18  C   UNL     1       8.057  -3.840  24.005  0.00  0.00    +0.056 A 
ATOM     19  C   UNL     1       8.190  -2.527  23.527  0.00  0.00    +0.065 A 
BRANCH  16  20
ATOM     20  C   UNL     1       4.512  -4.597  23.086  0.00  0.00    +0.099 C 
ATOM     21  N   UNL     1       3.504  -5.165  22.961  0.00  0.00    -0.191 NA
ENDBRANCH  16  20
BRANCH  18  22
ATOM     22  C   UNL     1       9.159  -4.467  24.673  0.00  0.00    +0.099 C 
ATOM     23  N   UNL     1      10.049  -4.990  25.202  0.00  0.00    -0.191 NA
ENDBRANCH  18  22
ENDBRANCH  13  14
ENDBRANCH   4  13
TORSDOF 4
ENDMDL
MODEL 4
REMARK VINA RESULT:      -6.6      1.608      1.851
REMARK  Name = 
REMARK  5 active torsions:
REMARK  status: ('A' for Active; 'I' for Inactive)
REMARK    1  A    between atoms: C_1  and  C_2
REMARK    2  A    between atoms: C_7  and  O_8
REMARK    3  A    between atoms: O_8  and  C_9
REMARK    4  A    between atoms: C_11  and  C_17
REMARK    5  A    between atoms: C_13  and  C_15
REMARK                            x       y       z     vdW  Elec       q    Type
REMARK                         _______ _______ _______ _____ _____    ______ ____
ROOT
ATOM      1  C   UNL     1       5.700   1.105  24.591  0.00  0.00    +0.068 C 
ATOM      2  C   UNL     1       6.670   1.166  23.471  0.00  0.00    +0.071 A 
ATOM      3  C   UNL     1       7.821   0.351  23.248  0.00  0.00    +0.067 A 
ATOM      4  C   UNL     1       8.443  -0.745  23.897  0.00  0.00    +0.174 A 
ATOM      5  C   UNL     1       9.610  -1.259  23.307  0.00  0.00    +0.166 A 
ATOM      6  C   UNL     1      10.143  -0.725  22.132  0.00  0.00    +0.044 A 
ATOM      7  C   UNL     1       9.521   0.337  21.474  0.00  0.00    +0.031 A 
ATOM      8  F   UNL     1      10.247  -2.306  23.852  0.00  0.00    -0.202 F 
ATOM      9  C   UNL     1       8.370   0.856  22.070  0.00  0.00    +0.070 A 
ATOM     10  N   UNL     1       7.549   1.883  21.691  0.00  0.00    -0.277 N 
ATOM     11  H   UNL     1       7.642   2.484  20.879  0.00  0.00    +0.189 HD
ATOM     12  N   UNL     1       6.517   2.093  22.517  0.00  0.00    -0.178 NA
ENDROOT
BRANCH   4  13
ATOM     13  O   UNL     1       7.777  -1.329  24.953  0.00  0.00    -0.452 OA
BRANCH  13  14
ATOM     14  C   UNL     1       7.219  -2.582  24.879  0.00  0.00    +0.131 A 
ATOM     15  C   UNL     1       7.283  -3.331  26.061  0.00  0.00    +0.065 A 
ATOM     16  C   UNL     1       6.864  -4.667  26.088  0.00  0.00    +0.056 A 
ATOM     17  C   UNL     1       6.390  -5.265  24.916  0.00  0.00    +0.038 A 
ATOM     18  C   UNL     1       6.331  -4.522  23.729  0.00  0.00    +0.056 A 
ATOM     19  C   UNL     1       6.741  -3.180  23.712  0.00  0.00    +0.065 A 
BRANCH  16  20
ATOM     20  C   UNL     1       6.925  -5.426  27.308  0.00  0.00    +0.099 C 
ATOM     21  N   UNL     1       6.976  -6.040  28.296  0.00  0.00    -0.191 NA
ENDBRANCH  16  20
BRANCH  18  22
ATOM     22  C   UNL     1       5.881  -5.141  22.517  0.00  0.00    +0.099 C 
ATOM     23  N   UNL     1       5.533  -5.638  21.528  0.00  0.00    -0.191 NA
ENDBRANCH  18  22
ENDBRANCH  13  14
ENDBRANCH   4  13
TORSDOF 4
ENDMDL
MODEL 5
REMARK VINA RESULT:      -6.5      1.702      2.650
REMARK  Name = 
REMARK  5 active torsions:
REMARK  status: ('A' for Active; 'I' for Inactive)
REMARK    1  A    between atoms: C_1  and  C_2
REMARK    2  A    between atoms: C_7  and  O_8
REMARK    3  A    between atoms: O_8  and  C_9
REMARK    4  A    between atoms: C_11  and  C_17
REMARK    5  A    between atoms: C_13  and  C_15
REMARK                            x       y       z     vdW  Elec       q    Type
REMARK                         _______ _______ _______ _____ _____    ______ ____
ROOT
ATOM      1  C   UNL     1       9.809  -0.887  21.487  0.00  0.00    +0.068 C 
ATOM      2  C   UNL     1       9.374   0.373  22.138  0.00  0.00    +0.071 A 
ATOM      3  C   UNL     1       8.901   0.565  23.472  0.00  0.00    +0.067 A 
ATOM      4  C   UNL     1       8.694  -0.249  24.613  0.00  0.00    +0.174 A 
ATOM      5  C   UNL     1       8.191   0.381  25.764  0.00  0.00    +0.166 A 
ATOM      6  C   UNL     1       7.906   1.747  25.796  0.00  0.00    +0.044 A 
ATOM      7  C   UNL     1       8.132   2.559  24.683  0.00  0.00    +0.031 A 
ATOM      8  F   UNL     1       7.984  -0.318  26.890  0.00  0.00    -0.202 F 
ATOM      9  C   UNL     1       8.618   1.929  23.537  0.00  0.00    +0.070 A 
ATOM     10  N   UNL     1       8.927   2.429  22.301  0.00  0.00    -0.277 N 
ATOM     11  H   UNL     1       8.844   3.388  21.981  0.00  0.00    +0.189 HD
ATOM     12  N   UNL     1       9.385   1.513  21.437  0.00  0.00    -0.178 NA
ENDROOT
BRANCH   4  13
ATOM     13  O   UNL     1       9.151  -1.548  24.569  0.00  0.00    -0.452 OA
BRANCH  13  14
ATOM     14  C   UNL     1       8.309  -2.631  24.495  0.00  0.00    +0.131 A 
ATOM     15  C   UNL     1       8.176  -3.361  25.683  0.00  0.00    +0.065 A 
ATOM     16  C   UNL     1       7.448  -4.558  25.712  0.00  0.00    +0.056 A 
ATOM     17  C   UNL     1       6.860  -5.036  24.537  0.00  0.00    +0.038 A 
ATOM     18  C   UNL     1       6.996  -4.312  23.344  0.00  0.00    +0.056 A 
ATOM     19  C   UNL     1       7.717  -3.109  23.325  0.00  0.00    +0.065 A 
BRANCH  16  20
ATOM     20  C   UNL     1       7.309  -5.296  26.938  0.00  0.00    +0.099 C 
ATOM     21  N   UNL     1       7.193  -5.894  27.930  0.00  0.00    -0.191 NA
ENDBRANCH  16  20
BRANCH  18  22
ATOM     22  C   UNL     1       6.427  -4.818  22.130  0.00  0.00    +0.099 C 
ATOM     23  N   UNL     1       5.950  -5.216  21.150  0.00  0.00    -0.191 NA
ENDBRANCH  18  22
ENDBRANCH  13  14
ENDBRANCH   4  13
TORSDOF 4
ENDMDL
MODEL 6
REMARK VINA RESULT:      -6.4      1.665      3.828
REMARK  Name = 
REMARK  5 active torsions:
REMARK  status: ('A' for Active; 'I' for Inactive)
REMARK    1  A    between atoms: C_1  and  C_2
REMARK    2  A    between atoms: C_7  and  O_8
REMARK    3  A    between atoms: O_8  and  C_9
REMARK    4  A    between atoms: C_11  and  C_17
REMARK    5  A    between atoms: C_13  and  C_15
REMARK                            x       y       z     vdW  Elec       q    Type
REMARK                         _______ _______ _______ _____ _____    ______ ____
ROOT
ATOM      1  C   UNL     1       9.605  -0.612  21.485  0.00  0.00    +0.068 C 
ATOM      2  C   UNL     1       9.019   0.550  22.197  0.00  0.00    +0.071 A 
ATOM      3  C   UNL     1       8.608   0.638  23.562  0.00  0.00    +0.067 A 
ATOM      4  C   UNL     1       8.606  -0.219  24.690  0.00  0.00    +0.174 A 
ATOM      5  C   UNL     1       8.084   0.301  25.886  0.00  0.00    +0.166 A 
ATOM      6  C   UNL     1       7.589   1.603  25.975  0.00  0.00    +0.044 A 
ATOM      7  C   UNL     1       7.612   2.461  24.875  0.00  0.00    +0.031 A 
ATOM      8  F   UNL     1       8.063  -0.443  27.003  0.00  0.00    -0.202 F 
ATOM      9  C   UNL     1       8.117   1.938  23.683  0.00  0.00    +0.070 A 
ATOM     10  N   UNL     1       8.264   2.505  22.446  0.00  0.00    -0.277 N 
ATOM     11  H   UNL     1       8.009   3.444  22.160  0.00  0.00    +0.189 HD
ATOM     12  N   UNL     1       8.804   1.690  21.530  0.00  0.00    -0.178 NA
ENDROOT
BRANCH   4  13
ATOM     13  O   UNL     1       9.259  -1.427  24.581  0.00  0.00    -0.452 OA
BRANCH  13  14
ATOM     14  C   UNL     1       8.604  -2.634  24.628  0.00  0.00    +0.131 A 
ATOM     15  C   UNL     1       7.956  -3.004  23.441  0.00  0.00    +0.065 A 
ATOM     16  C   UNL     1       7.150  -4.148  23.391  0.00  0.00    +0.056 A 
ATOM     17  C   UNL     1       6.977  -4.921  24.544  0.00  0.00    +0.038 A 
ATOM     18  C   UNL     1       7.617  -4.551  25.734  0.00  0.00    +0.056 A 
ATOM     19  C   UNL     1       8.433  -3.410  25.774  0.00  0.00    +0.065 A 
BRANCH  16  20
ATOM     20  C   UNL     1       6.496  -4.526  22.167  0.00  0.00    +0.099 C 
ATOM     21  N   UNL     1       5.968  -4.833  21.176  0.00  0.00    -0.191 NA
ENDBRANCH  16  20
BRANCH  18  22
ATOM     22  C   UNL     1       7.412  -5.320  26.927  0.00  0.00    +0.099 C 
ATOM     23  N   UNL     1       7.255  -5.927  27.902  0.00  0.00    -0.191 NA
ENDBRANCH  18  22
ENDBRANCH  13  14
ENDBRANCH   4  13
TORSDOF 4
ENDMDL
MODEL 7
REMARK VINA RESULT:      -6.2      2.507      3.291
REMARK  Name = 
REMARK  5 active torsions:
REMARK  status: ('A' for Active; 'I' for Inactive)
REMARK    1  A    between atoms: C_1  and  C_2
REMARK    2  A    between atoms: C_7  and  O_8
REMARK    3  A    between atoms: O_8  and  C_9
REMARK    4  A    between atoms: C_11  and  C_17
REMARK    5  A    between atoms: C_13  and  C_15
REMARK                            x       y       z     vdW  Elec       q    Type
REMARK                         _______ _______ _______ _____ _____    ______ ____
ROOT
ATOM      1  C   UNL     1       8.361   2.697  25.207  0.00  0.00    +0.068 C 
ATOM      2  C   UNL     1       8.596   2.178  23.838  0.00  0.00    +0.071 A 
ATOM      3  C   UNL     1       9.075   0.891  23.447  0.00  0.00    +0.067 A 
ATOM      4  C   UNL     1       9.457  -0.304  24.106  0.00  0.00    +0.174 A 
ATOM      5  C   UNL     1       9.885  -1.370  23.297  0.00  0.00    +0.166 A 
ATOM      6  C   UNL     1       9.933  -1.272  21.905  0.00  0.00    +0.044 A 
ATOM      7  C   UNL     1       9.534  -0.107  21.249  0.00  0.00    +0.031 A 
ATOM      8  F   UNL     1      10.246  -2.541  23.844  0.00  0.00    -0.202 F 
ATOM      9  C   UNL     1       9.124   0.957  22.055  0.00  0.00    +0.070 A 
ATOM     10  N   UNL     1       8.691   2.214  21.730  0.00  0.00    -0.277 N 
ATOM     11  H   UNL     1       8.599   2.618  20.804  0.00  0.00    +0.189 HD
ATOM     12  N   UNL     1       8.368   2.972  22.785  0.00  0.00    -0.178 NA
ENDROOT
BRANCH   4  13
ATOM     13  O   UNL     1       9.228  -0.393  25.461  0.00  0.00    -0.452 OA
BRANCH  13  14
ATOM     14  C   UNL     1       8.123  -1.018  25.989  0.00  0.00    +0.131 A 
ATOM     15  C   UNL     1       8.301  -2.372  26.303  0.00  0.00    +0.065 A 
ATOM     16  C   UNL     1       7.223  -3.157  26.730  0.00  0.00    +0.056 A 
ATOM     17  C   UNL     1       5.951  -2.585  26.830  0.00  0.00    +0.038 A 
ATOM     18  C   UNL     1       5.767  -1.233  26.511  0.00  0.00    +0.056 A 
ATOM     19  C   UNL     1       6.854  -0.450  26.095  0.00  0.00    +0.065 A 
BRANCH  16  20
ATOM     20  C   UNL     1       7.416  -4.544  27.059  0.00  0.00    +0.099 C 
ATOM     21  N   UNL     1       7.571  -5.667  27.323  0.00  0.00    -0.191 NA
ENDBRANCH  16  20
BRANCH  18  22
ATOM     22  C   UNL     1       4.458  -0.653  26.577  0.00  0.00    +0.099 C 
ATOM     23  N   UNL     1       3.403  -0.175  26.647  0.00  0.00    -0.191 NA
ENDBRANCH  18  22
ENDBRANCH  13  14
ENDBRANCH   4  13
TORSDOF 4
ENDMDL
MODEL 8
REMARK VINA RESULT:      -6.2      1.725      3.464
REMARK  Name = 
REMARK  5 active torsions:
REMARK  status: ('A' for Active; 'I' for Inactive)
REMARK    1  A    between atoms: C_1  and  C_2
REMARK    2  A    between atoms: C_7  and  O_8
REMARK    3  A    between atoms: O_8  and  C_9
REMARK    4  A    between atoms: C_11  and  C_17
REMARK    5  A    between atoms: C_13  and  C_15
REMARK                            x       y       z     vdW  Elec       q    Type
REMARK                         _______ _______ _______ _____ _____    ______ ____
ROOT
ATOM      1  C   UNL     1       5.453   2.044  24.175  0.00  0.00    +0.068 C 
ATOM      2  C   UNL     1       6.687   2.307  23.395  0.00  0.00    +0.071 A 
ATOM      3  C   UNL     1       7.943   1.632  23.466  0.00  0.00    +0.067 A 
ATOM      4  C   UNL     1       8.481   0.543  24.195  0.00  0.00    +0.174 A 
ATOM      5  C   UNL     1       9.821   0.204  23.940  0.00  0.00    +0.166 A 
ATOM      6  C   UNL     1      10.598   0.899  23.012  0.00  0.00    +0.044 A 
ATOM      7  C   UNL     1      10.066   1.956  22.272  0.00  0.00    +0.031 A 
ATOM      8  F   UNL     1      10.398  -0.827  24.577  0.00  0.00    -0.202 F 
ATOM      9  C   UNL     1       8.739   2.301  22.537  0.00  0.00    +0.070 A 
ATOM     10  N   UNL     1       7.942   3.277  22.003  0.00  0.00    -0.277 N 
ATOM     11  H   UNL     1       8.189   3.962  21.296  0.00  0.00    +0.189 HD
ATOM     12  N   UNL     1       6.700   3.305  22.502  0.00  0.00    -0.178 NA
ENDROOT
BRANCH   4  13
ATOM     13  O   UNL     1       7.619  -0.203  24.968  0.00  0.00    -0.452 OA
BRANCH  13  14
ATOM     14  C   UNL     1       7.459  -1.559  24.808  0.00  0.00    +0.131 A 
ATOM     15  C   UNL     1       6.949  -1.953  23.564  0.00  0.00    +0.065 A 
ATOM     16  C   UNL     1       6.621  -3.292  23.315  0.00  0.00    +0.056 A 
ATOM     17  C   UNL     1       6.791  -4.243  24.327  0.00  0.00    +0.038 A 
ATOM     18  C   UNL     1       7.294  -3.852  25.575  0.00  0.00    +0.056 A 
ATOM     19  C   UNL     1       7.632  -2.511  25.813  0.00  0.00    +0.065 A 
BRANCH  16  20
ATOM     20  C   UNL     1       6.106  -3.690  22.033  0.00  0.00    +0.099 C 
ATOM     21  N   UNL     1       5.692  -4.013  20.994  0.00  0.00    -0.191 NA
ENDBRANCH  16  20
BRANCH  18  22
ATOM     22  C   UNL     1       7.435  -4.817  26.626  0.00  0.00    +0.099 C 
ATOM     23  N   UNL     1       7.567  -5.593  27.477  0.00  0.00    -0.191 NA
ENDBRANCH  18  22
ENDBRANCH  13  14
ENDBRANCH   4  13
TORSDOF 4
ENDMDL
MODEL 9
REMARK VINA RESULT:      -6.2      1.915      2.125
REMARK  Name = 
REMARK  5 active torsions:
REMARK  status: ('A' for Active; 'I' for Inactive)
REMARK    1  A    between atoms: C_1  and  C_2
REMARK    2  A    between atoms: C_7  and  O_8
REMARK    3  A    between atoms: O_8  and  C_9
REMARK    4  A    between atoms: C_11  and  C_17
REMARK    5  A    between atoms: C_13  and  C_15
REMARK                            x       y       z     vdW  Elec       q    Type
REMARK                         _______ _______ _______ _____ _____    ______ ____
ROOT
ATOM      1  C   UNL     1       5.822   0.662  25.462  0.00  0.00    +0.068 C 
ATOM      2  C   UNL     1       7.102   1.302  25.072  0.00  0.00    +0.071 A 
ATOM      3  C   UNL     1       7.959   0.978  23.977  0.00  0.00    +0.067 A 
ATOM      4  C   UNL     1       7.950   0.046  22.909  0.00  0.00    +0.174 A 
ATOM      5  C   UNL     1       9.043   0.076  22.026  0.00  0.00    +0.166 A 
ATOM      6  C   UNL     1      10.096   0.980  22.181  0.00  0.00    +0.044 A 
ATOM      7  C   UNL     1      10.098   1.916  23.215  0.00  0.00    +0.031 A 
ATOM      8  F   UNL     1       9.099  -0.762  20.980  0.00  0.00    -0.202 F 
ATOM      9  C   UNL     1       9.019   1.875  24.100  0.00  0.00    +0.070 A 
ATOM     10  N   UNL     1       8.734   2.634  25.203  0.00  0.00    -0.277 N 
ATOM     11  H   UNL     1       9.287   3.387  25.597  0.00  0.00    +0.189 HD
ATOM     12  N   UNL     1       7.585   2.310  25.809  0.00  0.00    -0.178 NA
ENDROOT
BRANCH   4  13
ATOM     13  O   UNL     1       6.808  -0.699  22.715  0.00  0.00    -0.452 OA
BRANCH  13  14
ATOM     14  C   UNL     1       6.680  -1.994  23.157  0.00  0.00    +0.131 A 
ATOM     15  C   UNL     1       7.845  -2.553  23.699  0.00  0.00    +0.065 A 
ATOM     16  C   UNL     1       7.888  -3.903  24.071  0.00  0.00    +0.056 A 
ATOM     17  C   UNL     1       6.757  -4.705  23.885  0.00  0.00    +0.038 A 
ATOM     18  C   UNL     1       5.592  -4.152  23.337  0.00  0.00    +0.056 A 
ATOM     19  C   UNL     1       5.553  -2.796  22.977  0.00  0.00    +0.065 A 
BRANCH  16  20
ATOM     20  C   UNL     1       9.084  -4.466  24.635  0.00  0.00    +0.099 C 
ATOM     21  N   UNL     1      10.053  -4.924  25.089  0.00  0.00    -0.191 NA
ENDBRANCH  16  20
BRANCH  18  22
ATOM     22  C   UNL     1       4.444  -4.979  23.110  0.00  0.00    +0.099 C 
ATOM     23  N   UNL     1       3.524  -5.664  22.934  0.00  0.00    -0.191 NA
ENDBRANCH  18  22
ENDBRANCH  13  14
ENDBRANCH   4  13
TORSDOF 4
ENDMDL
