MODEL 1
REMARK VINA RESULT:      -7.0      0.000      0.000
REMARK  Name = 
REMARK  14 active torsions:
REMARK  status: ('A' for Active; 'I' for Inactive)
REMARK    1  A    between atoms: C_5  and  C_6
REMARK    2  A    between atoms: C_6  and  S_7
REMARK    3  A    between atoms: S_7  and  C_8
REMARK    4  A    between atoms: N_12  and  C_13
REMARK    5  A    between atoms: C_14  and  C_35
REMARK    6  A    between atoms: C_18  and  N_19
REMARK    7  A    between atoms: C_18  and  O_33
REMARK    8  A    between atoms: C_20  and  C_22
REMARK    9  A    between atoms: C_22  and  C_23
REMARK   10  A    between atoms: C_22  and  C_26
REMARK   11  A    between atoms: C_23  and  O_24
REMARK   12  A    between atoms: C_29  and  O_30
REMARK   13  A    between atoms: O_33  and  C_34
REMARK   14  A    between atoms: C_35  and  O_36
REMARK                            x       y       z     vdW  Elec       q    Type
REMARK                         _______ _______ _______ _____ _____    ______ ____
ROOT
ATOM      1  C   UNL     1       6.944   2.271  21.978  0.00  0.00    +0.273 C 
ATOM      2  C   UNL     1       6.232   3.328  22.943  0.00  0.00    +0.258 C 
ATOM      3  C   UNL     1       5.613   1.976  23.586  0.00  0.00    +0.277 C 
ATOM      4  O   UNL     1       4.864   1.619  24.461  0.00  0.00    -0.270 OA
ATOM      5  N   UNL     1       6.390   1.216  22.793  0.00  0.00    -0.230 N 
ATOM      6  C   UNL     1       6.948  -0.034  22.826  0.00  0.00    +0.125 C 
ATOM      7  C   UNL     1       8.076  -0.247  22.092  0.00  0.00    -0.006 C 
ATOM      8  C   UNL     1       8.810   0.917  21.421  0.00  0.00    +0.196 C 
ATOM      9  O   UNL     1       8.376   2.196  21.914  0.00  0.00    -0.349 OA
ENDROOT
BRANCH   2  10
ATOM     10  N   UNL     1       7.200   4.068  23.815  0.00  0.00    -0.276 N 
ATOM     11  H   UNL     1       7.334   3.738  24.767  0.00  0.00    +0.152 HD
ATOM     12  C   UNL     1       7.786   5.242  23.407  0.00  0.00    +0.234 C 
ATOM     13  O   UNL     1       7.577   5.729  22.293  0.00  0.00    -0.274 OA
BRANCH  12  14
ATOM     14  C   UNL     1       8.691   5.946  24.402  0.00  0.00    +0.213 C 
BRANCH  14  15
ATOM     15  C   UNL     1      10.164   5.641  24.151  0.00  0.00    -0.025 A 
ATOM     16  C   UNL     1      10.587   4.454  23.527  0.00  0.00    +0.008 A 
ATOM     17  C   UNL     1      11.936   4.245  23.237  0.00  0.00    +0.046 A 
ATOM     18  C   UNL     1      12.874   5.204  23.593  0.00  0.00    +0.117 A 
ATOM     19  C   UNL     1      12.492   6.354  24.273  0.00  0.00    +0.046 A 
ATOM     20  C   UNL     1      11.141   6.569  24.554  0.00  0.00    +0.008 A 
BRANCH  18  21
ATOM     21  O   UNL     1      14.172   4.978  23.247  0.00  0.00    -0.507 OA
ATOM     22  H   UNL     1      14.280   4.035  23.040  0.00  0.00    +0.292 HD
ENDBRANCH  18  21
ENDBRANCH  14  15
BRANCH  14  23
ATOM     23  C   UNL     1       8.303   5.701  25.855  0.00  0.00    +0.321 C 
ATOM     24  O   UNL     1       7.948   6.610  26.599  0.00  0.00    -0.250 OA
BRANCH  23  25
ATOM     25  O   UNL     1       8.383   4.429  26.308  0.00  0.00    -0.480 OA
ATOM     26  H   UNL     1       9.210   4.220  26.807  0.00  0.00    +0.295 HD
ENDBRANCH  23  25
ENDBRANCH  14  23
ENDBRANCH  12  14
ENDBRANCH   2  10
BRANCH   2  27
ATOM     27  O   UNL     1       5.271   4.184  22.266  0.00  0.00    -0.348 OA
ATOM     28  C   UNL     1       4.220   4.725  23.060  0.00  0.00    +0.197 C 
ENDBRANCH   2  27
BRANCH   6  29
ATOM     29  C   UNL     1       6.366  -1.126  23.697  0.00  0.00    +0.351 C 
ATOM     30  O   UNL     1       5.932  -2.180  23.259  0.00  0.00    -0.244 OA
BRANCH  29  31
ATOM     31  O   UNL     1       6.309  -0.874  25.018  0.00  0.00    -0.476 OA
ATOM     32  H   UNL     1       7.161  -0.684  25.467  0.00  0.00    +0.295 HD
ENDBRANCH  29  31
ENDBRANCH   6  29
BRANCH   7  33
ATOM     33  C   UNL     1       8.831  -1.559  21.939  0.00  0.00    +0.112 C 
BRANCH  33  34
ATOM     34  S   UNL     1      10.266  -1.770  23.034  0.00  0.00    -0.080 S 
BRANCH  34  35
ATOM     35  C   UNL     1       9.628  -1.542  24.608  0.00  0.00    +0.209 A 
ATOM     36  N   UNL     1       9.661  -0.351  25.274  0.00  0.00    -0.223 N 
ATOM     37  C   UNL     1      10.234   0.913  24.890  0.00  0.00    +0.177 C 
ATOM     38  N   UNL     1       9.049  -0.487  26.463  0.00  0.00    -0.043 NA
ATOM     39  N   UNL     1       8.666  -1.760  26.513  0.00  0.00    -0.022 NA
ATOM     40  N   UNL     1       9.023  -2.423  25.366  0.00  0.00    -0.102 NA
ENDBRANCH  34  35
ENDBRANCH  33  34
ENDBRANCH   7  33
TORSDOF 12
ENDMDL
MODEL 2
REMARK VINA RESULT:      -7.0      4.562      7.058
REMARK  Name = 
REMARK  14 active torsions:
REMARK  status: ('A' for Active; 'I' for Inactive)
REMARK    1  A    between atoms: C_5  and  C_6
REMARK    2  A    between atoms: C_6  and  S_7
REMARK    3  A    between atoms: S_7  and  C_8
REMARK    4  A    between atoms: N_12  and  C_13
REMARK    5  A    between atoms: C_14  and  C_35
REMARK    6  A    between atoms: C_18  and  N_19
REMARK    7  A    between atoms: C_18  and  O_33
REMARK    8  A    between atoms: C_20  and  C_22
REMARK    9  A    between atoms: C_22  and  C_23
REMARK   10  A    between atoms: C_22  and  C_26
REMARK   11  A    between atoms: C_23  and  O_24
REMARK   12  A    between atoms: C_29  and  O_30
REMARK   13  A    between atoms: O_33  and  C_34
REMARK   14  A    between atoms: C_35  and  O_36
REMARK                            x       y       z     vdW  Elec       q    Type
REMARK                         _______ _______ _______ _____ _____    ______ ____
ROOT
ATOM      1  C   UNL     1       6.878  -4.260  25.398  0.00  0.00    +0.273 C 
ATOM      2  C   UNL     1       7.661  -3.917  24.048  0.00  0.00    +0.258 C 
ATOM      3  C   UNL     1       6.807  -5.182  23.504  0.00  0.00    +0.277 C 
ATOM      4  O   UNL     1       6.644  -5.835  22.503  0.00  0.00    -0.270 OA
ATOM      5  N   UNL     1       6.129  -5.252  24.665  0.00  0.00    -0.230 N 
ATOM      6  C   UNL     1       4.905  -5.689  25.092  0.00  0.00    +0.125 C 
ATOM      7  C   UNL     1       4.387  -5.127  26.220  0.00  0.00    -0.006 C 
ATOM      8  C   UNL     1       5.051  -3.909  26.869  0.00  0.00    +0.196 C 
ATOM      9  O   UNL     1       6.016  -3.286  26.005  0.00  0.00    -0.349 OA
ENDROOT
BRANCH   2  10
ATOM     10  N   UNL     1       7.276  -2.589  23.470  0.00  0.00    -0.276 N 
ATOM     11  H   UNL     1       6.654  -2.579  22.666  0.00  0.00    +0.152 HD
ATOM     12  C   UNL     1       7.851  -1.420  23.907  0.00  0.00    +0.234 C 
ATOM     13  O   UNL     1       8.682  -1.396  24.817  0.00  0.00    -0.274 OA
BRANCH  12  14
ATOM     14  C   UNL     1       7.442  -0.141  23.197  0.00  0.00    +0.213 C 
BRANCH  14  15
ATOM     15  C   UNL     1       8.563   0.893  23.191  0.00  0.00    -0.025 A 
ATOM     16  C   UNL     1       9.500   0.976  22.145  0.00  0.00    +0.008 A 
ATOM     17  C   UNL     1      10.461   1.987  22.129  0.00  0.00    +0.046 A 
ATOM     18  C   UNL     1      10.512   2.905  23.169  0.00  0.00    +0.117 A 
ATOM     19  C   UNL     1       9.644   2.805  24.249  0.00  0.00    +0.046 A 
ATOM     20  C   UNL     1       8.675   1.799  24.261  0.00  0.00    +0.008 A 
BRANCH  18  21
ATOM     21  O   UNL     1      11.436   3.903  23.086  0.00  0.00    -0.507 OA
ATOM     22  H   UNL     1      12.317   3.525  23.235  0.00  0.00    +0.292 HD
ENDBRANCH  18  21
ENDBRANCH  14  15
BRANCH  14  23
ATOM     23  C   UNL     1       6.134   0.448  23.711  0.00  0.00    +0.321 C 
ATOM     24  O   UNL     1       5.543  -0.018  24.680  0.00  0.00    -0.250 OA
BRANCH  23  25
ATOM     25  O   UNL     1       5.631   1.509  23.040  0.00  0.00    -0.480 OA
ATOM     26  H   UNL     1       5.721   2.374  23.510  0.00  0.00    +0.295 HD
ENDBRANCH  23  25
ENDBRANCH  14  23
ENDBRANCH  12  14
ENDBRANCH   2  10
BRANCH   2  27
ATOM     27  O   UNL     1       9.096  -4.133  24.131  0.00  0.00    -0.348 OA
ATOM     28  C   UNL     1       9.572  -4.867  25.255  0.00  0.00    +0.197 C 
ENDBRANCH   2  27
BRANCH   6  29
ATOM     29  C   UNL     1       4.124  -6.718  24.305  0.00  0.00    +0.351 C 
ATOM     30  O   UNL     1       3.967  -7.873  24.670  0.00  0.00    -0.244 OA
BRANCH  29  31
ATOM     31  O   UNL     1       3.615  -6.313  23.125  0.00  0.00    -0.476 OA
ATOM     32  H   UNL     1       2.796  -6.761  22.822  0.00  0.00    +0.295 HD
ENDBRANCH  29  31
ENDBRANCH   6  29
BRANCH   7  33
ATOM     33  C   UNL     1       3.076  -5.490  26.903  0.00  0.00    +0.112 C 
BRANCH  33  34
ATOM     34  S   UNL     1       3.154  -6.897  28.050  0.00  0.00    -0.080 S 
BRANCH  34  35
ATOM     35  C   UNL     1       4.684  -6.737  28.805  0.00  0.00    +0.209 A 
ATOM     36  N   UNL     1       4.948  -5.842  29.802  0.00  0.00    -0.223 N 
ATOM     37  C   UNL     1       4.102  -4.844  30.401  0.00  0.00    +0.177 C 
ATOM     38  N   UNL     1       6.220  -5.988  30.208  0.00  0.00    -0.043 NA
ATOM     39  N   UNL     1       6.720  -6.957  29.445  0.00  0.00    -0.022 NA
ATOM     40  N   UNL     1       5.773  -7.426  28.570  0.00  0.00    -0.102 NA
ENDBRANCH  34  35
ENDBRANCH  33  34
ENDBRANCH   7  33
TORSDOF 12
ENDMDL
MODEL 3
REMARK VINA RESULT:      -6.9      3.546      6.267
REMARK  Name = 
REMARK  14 active torsions:
REMARK  status: ('A' for Active; 'I' for Inactive)
REMARK    1  A    between atoms: C_5  and  C_6
REMARK    2  A    between atoms: C_6  and  S_7
REMARK    3  A    between atoms: S_7  and  C_8
REMARK    4  A    between atoms: N_12  and  C_13
REMARK    5  A    between atoms: C_14  and  C_35
REMARK    6  A    between atoms: C_18  and  N_19
REMARK    7  A    between atoms: C_18  and  O_33
REMARK    8  A    between atoms: C_20  and  C_22
REMARK    9  A    between atoms: C_22  and  C_23
REMARK   10  A    between atoms: C_22  and  C_26
REMARK   11  A    between atoms: C_23  and  O_24
REMARK   12  A    between atoms: C_29  and  O_30
REMARK   13  A    between atoms: O_33  and  C_34
REMARK   14  A    between atoms: C_35  and  O_36
REMARK                            x       y       z     vdW  Elec       q    Type
REMARK                         _______ _______ _______ _____ _____    ______ ____
ROOT
ATOM      1  C   UNL     1       6.163  -1.637  26.412  0.00  0.00    +0.273 C 
ATOM      2  C   UNL     1       7.627  -1.002  26.321  0.00  0.00    +0.258 C 
ATOM      3  C   UNL     1       8.059  -2.553  26.499  0.00  0.00    +0.277 C 
ATOM      4  O   UNL     1       9.046  -3.242  26.578  0.00  0.00    -0.270 OA
ATOM      5  N   UNL     1       6.774  -2.945  26.416  0.00  0.00    -0.230 N 
ATOM      6  C   UNL     1       6.083  -4.062  26.032  0.00  0.00    +0.125 C 
ATOM      7  C   UNL     1       4.801  -3.900  25.603  0.00  0.00    -0.006 C 
ATOM      8  C   UNL     1       4.221  -2.504  25.362  0.00  0.00    +0.196 C 
ATOM      9  O   UNL     1       5.237  -1.488  25.325  0.00  0.00    -0.349 OA
ENDROOT
BRANCH   2  10
ATOM     10  N   UNL     1       7.923  -0.405  24.979  0.00  0.00    -0.276 N 
ATOM     11  H   UNL     1       7.167  -0.354  24.301  0.00  0.00    +0.152 HD
ATOM     12  C   UNL     1       9.201  -0.066  24.607  0.00  0.00    +0.234 C 
ATOM     13  O   UNL     1      10.164  -0.200  25.366  0.00  0.00    -0.274 OA
BRANCH  12  14
ATOM     14  C   UNL     1       9.395   0.460  23.196  0.00  0.00    +0.213 C 
BRANCH  14  15
ATOM     15  C   UNL     1       8.565   1.712  22.933  0.00  0.00    -0.025 A 
ATOM     16  C   UNL     1       8.964   2.984  23.383  0.00  0.00    +0.008 A 
ATOM     17  C   UNL     1       8.224   4.119  23.053  0.00  0.00    +0.046 A 
ATOM     18  C   UNL     1       7.068   3.993  22.295  0.00  0.00    +0.117 A 
ATOM     19  C   UNL     1       6.613   2.742  21.896  0.00  0.00    +0.046 A 
ATOM     20  C   UNL     1       7.359   1.604  22.218  0.00  0.00    +0.008 A 
BRANCH  18  21
ATOM     21  O   UNL     1       6.406   5.134  21.957  0.00  0.00    -0.507 OA
ATOM     22  H   UNL     1       5.541   5.135  22.399  0.00  0.00    +0.292 HD
ENDBRANCH  18  21
ENDBRANCH  14  15
BRANCH  14  23
ATOM     23  C   UNL     1       9.180  -0.596  22.119  0.00  0.00    +0.321 C 
ATOM     24  O   UNL     1       8.741  -1.713  22.376  0.00  0.00    -0.250 OA
BRANCH  23  25
ATOM     25  O   UNL     1       9.511  -0.259  20.852  0.00  0.00    -0.480 OA
ATOM     26  H   UNL     1       8.769   0.111  20.316  0.00  0.00    +0.295 HD
ENDBRANCH  23  25
ENDBRANCH  14  23
ENDBRANCH  12  14
ENDBRANCH   2  10
BRANCH   2  27
ATOM     27  O   UNL     1       7.961  -0.137  27.441  0.00  0.00    -0.348 OA
ATOM     28  C   UNL     1       6.949   0.761  27.884  0.00  0.00    +0.197 C 
ENDBRANCH   2  27
BRANCH   6  29
ATOM     29  C   UNL     1       6.742  -5.424  26.027  0.00  0.00    +0.351 C 
ATOM     30  O   UNL     1       6.479  -6.306  26.830  0.00  0.00    -0.244 OA
BRANCH  29  31
ATOM     31  O   UNL     1       7.689  -5.630  25.092  0.00  0.00    -0.476 OA
ATOM     32  H   UNL     1       7.543  -6.379  24.475  0.00  0.00    +0.295 HD
ENDBRANCH  29  31
ENDBRANCH   6  29
BRANCH   7  33
ATOM     33  C   UNL     1       3.834  -4.998  25.180  0.00  0.00    +0.112 C 
BRANCH  33  34
ATOM     34  S   UNL     1       3.583  -5.173  23.389  0.00  0.00    -0.080 S 
BRANCH  34  35
ATOM     35  C   UNL     1       5.164  -5.387  22.764  0.00  0.00    +0.209 A 
ATOM     36  N   UNL     1       5.920  -4.373  22.250  0.00  0.00    -0.223 N 
ATOM     37  C   UNL     1       5.603  -2.981  22.065  0.00  0.00    +0.177 C 
ATOM     38  N   UNL     1       7.119  -4.853  21.881  0.00  0.00    -0.043 NA
ATOM     39  N   UNL     1       7.074  -6.153  22.158  0.00  0.00    -0.022 NA
ATOM     40  N   UNL     1       5.863  -6.493  22.706  0.00  0.00    -0.102 NA
ENDBRANCH  34  35
ENDBRANCH  33  34
ENDBRANCH   7  33
TORSDOF 12
ENDMDL
MODEL 4
REMARK VINA RESULT:      -6.8      4.787      7.711
REMARK  Name = 
REMARK  14 active torsions:
REMARK  status: ('A' for Active; 'I' for Inactive)
REMARK    1  A    between atoms: C_5  and  C_6
REMARK    2  A    between atoms: C_6  and  S_7
REMARK    3  A    between atoms: S_7  and  C_8
REMARK    4  A    between atoms: N_12  and  C_13
REMARK    5  A    between atoms: C_14  and  C_35
REMARK    6  A    between atoms: C_18  and  N_19
REMARK    7  A    between atoms: C_18  and  O_33
REMARK    8  A    between atoms: C_20  and  C_22
REMARK    9  A    between atoms: C_22  and  C_23
REMARK   10  A    between atoms: C_22  and  C_26
REMARK   11  A    between atoms: C_23  and  O_24
REMARK   12  A    between atoms: C_29  and  O_30
REMARK   13  A    between atoms: O_33  and  C_34
REMARK   14  A    between atoms: C_35  and  O_36
REMARK                            x       y       z     vdW  Elec       q    Type
REMARK                         _______ _______ _______ _____ _____    ______ ____
ROOT
ATOM      1  C   UNL     1       6.685  -5.373  25.771  0.00  0.00    +0.273 C 
ATOM      2  C   UNL     1       7.219  -4.627  24.462  0.00  0.00    +0.258 C 
ATOM      3  C   UNL     1       6.068  -5.526  23.762  0.00  0.00    +0.277 C 
ATOM      4  O   UNL     1       5.592  -5.749  22.676  0.00  0.00    -0.270 OA
ATOM      5  N   UNL     1       5.642  -5.958  24.963  0.00  0.00    -0.230 N 
ATOM      6  C   UNL     1       4.476  -6.414  25.515  0.00  0.00    +0.125 C 
ATOM      7  C   UNL     1       4.306  -6.263  26.859  0.00  0.00    -0.006 C 
ATOM      8  C   UNL     1       5.288  -5.431  27.687  0.00  0.00    +0.196 C 
ATOM      9  O   UNL     1       6.147  -4.619  26.868  0.00  0.00    -0.349 OA
ENDROOT
BRANCH   2  10
ATOM     10  N   UNL     1       6.957  -3.152  24.482  0.00  0.00    -0.276 N 
ATOM     11  H   UNL     1       6.734  -2.718  25.373  0.00  0.00    +0.152 HD
ATOM     12  C   UNL     1       6.873  -2.420  23.322  0.00  0.00    +0.234 C 
ATOM     13  O   UNL     1       7.044  -2.927  22.211  0.00  0.00    -0.274 OA
BRANCH  12  14
ATOM     14  C   UNL     1       6.528  -0.948  23.457  0.00  0.00    +0.213 C 
BRANCH  14  15
ATOM     15  C   UNL     1       7.621  -0.049  22.888  0.00  0.00    -0.025 A 
ATOM     16  C   UNL     1       7.336   1.200  22.306  0.00  0.00    +0.008 A 
ATOM     17  C   UNL     1       8.367   2.034  21.872  0.00  0.00    +0.046 A 
ATOM     18  C   UNL     1       9.686   1.617  21.990  0.00  0.00    +0.117 A 
ATOM     19  C   UNL     1       9.992   0.360  22.497  0.00  0.00    +0.046 A 
ATOM     20  C   UNL     1       8.961  -0.472  22.941  0.00  0.00    +0.008 A 
BRANCH  18  21
ATOM     21  O   UNL     1      10.661   2.485  21.598  0.00  0.00    -0.507 OA
ATOM     22  H   UNL     1      10.349   2.972  20.818  0.00  0.00    +0.292 HD
ENDBRANCH  18  21
ENDBRANCH  14  15
BRANCH  14  23
ATOM     23  C   UNL     1       6.143  -0.541  24.874  0.00  0.00    +0.321 C 
ATOM     24  O   UNL     1       6.940  -0.008  25.640  0.00  0.00    -0.250 OA
BRANCH  23  25
ATOM     25  O   UNL     1       4.877  -0.807  25.269  0.00  0.00    -0.480 OA
ATOM     26  H   UNL     1       4.674  -1.767  25.382  0.00  0.00    +0.295 HD
ENDBRANCH  23  25
ENDBRANCH  14  23
ENDBRANCH  12  14
ENDBRANCH   2  10
BRANCH   2  27
ATOM     27  O   UNL     1       8.582  -4.982  24.101  0.00  0.00    -0.348 OA
ATOM     28  C   UNL     1       9.508  -5.150  25.170  0.00  0.00    +0.197 C 
ENDBRANCH   2  27
BRANCH   6  29
ATOM     29  C   UNL     1       3.385  -7.011  24.654  0.00  0.00    +0.351 C 
ATOM     30  O   UNL     1       3.182  -8.212  24.554  0.00  0.00    -0.244 OA
BRANCH  29  31
ATOM     31  O   UNL     1       2.635  -6.144  23.946  0.00  0.00    -0.476 OA
ATOM     32  H   UNL     1       2.534  -5.242  24.321  0.00  0.00    +0.295 HD
ENDBRANCH  29  31
ENDBRANCH   6  29
BRANCH   7  33
ATOM     33  C   UNL     1       3.122  -6.738  27.689  0.00  0.00    +0.112 C 
BRANCH  33  34
ATOM     34  S   UNL     1       2.031  -5.428  28.318  0.00  0.00    -0.080 S 
BRANCH  34  35
ATOM     35  C   UNL     1       1.955  -4.295  27.034  0.00  0.00    +0.209 A 
ATOM     36  N   UNL     1       2.559  -3.071  27.067  0.00  0.00    -0.223 N 
ATOM     37  C   UNL     1       3.315  -2.436  28.114  0.00  0.00    +0.177 C 
ATOM     38  N   UNL     1       2.347  -2.437  25.901  0.00  0.00    -0.043 NA
ATOM     39  N   UNL     1       1.605  -3.273  25.180  0.00  0.00    -0.022 NA
ATOM     40  N   UNL     1       1.355  -4.429  25.878  0.00  0.00    -0.102 NA
ENDBRANCH  34  35
ENDBRANCH  33  34
ENDBRANCH   7  33
TORSDOF 12
ENDMDL
MODEL 5
REMARK VINA RESULT:      -6.8      5.029      8.158
REMARK  Name = 
REMARK  14 active torsions:
REMARK  status: ('A' for Active; 'I' for Inactive)
REMARK    1  A    between atoms: C_5  and  C_6
REMARK    2  A    between atoms: C_6  and  S_7
REMARK    3  A    between atoms: S_7  and  C_8
REMARK    4  A    between atoms: N_12  and  C_13
REMARK    5  A    between atoms: C_14  and  C_35
REMARK    6  A    between atoms: C_18  and  N_19
REMARK    7  A    between atoms: C_18  and  O_33
REMARK    8  A    between atoms: C_20  and  C_22
REMARK    9  A    between atoms: C_22  and  C_23
REMARK   10  A    between atoms: C_22  and  C_26
REMARK   11  A    between atoms: C_23  and  O_24
REMARK   12  A    between atoms: C_29  and  O_30
REMARK   13  A    between atoms: O_33  and  C_34
REMARK   14  A    between atoms: C_35  and  O_36
REMARK                            x       y       z     vdW  Elec       q    Type
REMARK                         _______ _______ _______ _____ _____    ______ ____
ROOT
ATOM      1  C   UNL     1       4.040  -3.115  26.739  0.00  0.00    +0.273 C 
ATOM      2  C   UNL     1       5.549  -2.617  26.571  0.00  0.00    +0.258 C 
ATOM      3  C   UNL     1       5.847  -3.972  27.407  0.00  0.00    +0.277 C 
ATOM      4  O   UNL     1       6.768  -4.598  27.871  0.00  0.00    -0.270 OA
ATOM      5  N   UNL     1       4.550  -4.325  27.340  0.00  0.00    -0.230 N 
ATOM      6  C   UNL     1       3.817  -5.481  27.361  0.00  0.00    +0.125 C 
ATOM      7  C   UNL     1       2.596  -5.471  26.757  0.00  0.00    -0.006 C 
ATOM      8  C   UNL     1       2.147  -4.277  25.909  0.00  0.00    +0.196 C 
ATOM      9  O   UNL     1       3.234  -3.395  25.585  0.00  0.00    -0.349 OA
ENDROOT
BRANCH   2  10
ATOM     10  N   UNL     1       6.013  -2.628  25.147  0.00  0.00    -0.276 N 
ATOM     11  H   UNL     1       5.313  -2.718  24.416  0.00  0.00    +0.152 HD
ATOM     12  C   UNL     1       7.349  -2.664  24.824  0.00  0.00    +0.234 C 
ATOM     13  O   UNL     1       8.233  -2.653  25.683  0.00  0.00    -0.274 OA
BRANCH  12  14
ATOM     14  C   UNL     1       7.702  -2.751  23.350  0.00  0.00    +0.213 C 
BRANCH  14  15
ATOM     15  C   UNL     1       8.122  -1.399  22.782  0.00  0.00    -0.025 A 
ATOM     16  C   UNL     1       7.490  -0.200  23.158  0.00  0.00    +0.008 A 
ATOM     17  C   UNL     1       7.954   1.028  22.683  0.00  0.00    +0.046 A 
ATOM     18  C   UNL     1       9.032   1.066  21.810  0.00  0.00    +0.117 A 
ATOM     19  C   UNL     1       9.630  -0.107  21.368  0.00  0.00    +0.046 A 
ATOM     20  C   UNL     1       9.173  -1.336  21.850  0.00  0.00    +0.008 A 
BRANCH  18  21
ATOM     21  O   UNL     1       9.480   2.289  21.412  0.00  0.00    -0.507 OA
ATOM     22  H   UNL     1      10.053   2.174  20.637  0.00  0.00    +0.292 HD
ENDBRANCH  18  21
ENDBRANCH  14  15
BRANCH  14  23
ATOM     23  C   UNL     1       6.619  -3.407  22.502  0.00  0.00    +0.321 C 
ATOM     24  O   UNL     1       5.572  -2.833  22.221  0.00  0.00    -0.250 OA
BRANCH  23  25
ATOM     25  O   UNL     1       6.850  -4.670  22.078  0.00  0.00    -0.480 OA
ATOM     26  H   UNL     1       6.798  -5.358  22.785  0.00  0.00    +0.295 HD
ENDBRANCH  23  25
ENDBRANCH  14  23
ENDBRANCH  12  14
ENDBRANCH   2  10
BRANCH   2  27
ATOM     27  O   UNL     1       5.840  -1.380  27.279  0.00  0.00    -0.348 OA
ATOM     28  C   UNL     1       5.251  -0.190  26.764  0.00  0.00    +0.197 C 
ENDBRANCH   2  27
BRANCH   6  29
ATOM     29  C   UNL     1       4.370  -6.746  27.980  0.00  0.00    +0.351 C 
ATOM     30  O   UNL     1       4.040  -7.160  29.081  0.00  0.00    -0.244 OA
BRANCH  29  31
ATOM     31  O   UNL     1       5.299  -7.408  27.265  0.00  0.00    -0.476 OA
ATOM     32  H   UNL     1       5.610  -6.977  26.440  0.00  0.00    +0.295 HD
ENDBRANCH  29  31
ENDBRANCH   6  29
BRANCH   7  33
ATOM     33  C   UNL     1       1.594  -6.616  26.702  0.00  0.00    +0.112 C 
BRANCH  33  34
ATOM     34  S   UNL     1       1.922  -7.883  25.443  0.00  0.00    -0.080 S 
BRANCH  34  35
ATOM     35  C   UNL     1       3.069  -7.151  24.400  0.00  0.00    +0.209 A 
ATOM     36  N   UNL     1       2.733  -6.343  23.352  0.00  0.00    -0.223 N 
ATOM     37  C   UNL     1       1.439  -5.960  22.852  0.00  0.00    +0.177 C 
ATOM     38  N   UNL     1       3.852  -5.897  22.756  0.00  0.00    -0.043 NA
ATOM     39  N   UNL     1       4.852  -6.450  23.436  0.00  0.00    -0.022 NA
ATOM     40  N   UNL     1       4.374  -7.232  24.458  0.00  0.00    -0.102 NA
ENDBRANCH  34  35
ENDBRANCH  33  34
ENDBRANCH   7  33
TORSDOF 12
ENDMDL
MODEL 6
REMARK VINA RESULT:      -6.7      4.220      7.361
REMARK  Name = 
REMARK  14 active torsions:
REMARK  status: ('A' for Active; 'I' for Inactive)
REMARK    1  A    between atoms: C_5  and  C_6
REMARK    2  A    between atoms: C_6  and  S_7
REMARK    3  A    between atoms: S_7  and  C_8
REMARK    4  A    between atoms: N_12  and  C_13
REMARK    5  A    between atoms: C_14  and  C_35
REMARK    6  A    between atoms: C_18  and  N_19
REMARK    7  A    between atoms: C_18  and  O_33
REMARK    8  A    between atoms: C_20  and  C_22
REMARK    9  A    between atoms: C_22  and  C_23
REMARK   10  A    between atoms: C_22  and  C_26
REMARK   11  A    between atoms: C_23  and  O_24
REMARK   12  A    between atoms: C_29  and  O_30
REMARK   13  A    between atoms: O_33  and  C_34
REMARK   14  A    between atoms: C_35  and  O_36
REMARK                            x       y       z     vdW  Elec       q    Type
REMARK                         _______ _______ _______ _____ _____    ______ ____
ROOT
ATOM      1  C   UNL     1       7.602  -4.072  25.297  0.00  0.00    +0.273 C 
ATOM      2  C   UNL     1       8.671  -3.940  24.117  0.00  0.00    +0.258 C 
ATOM      3  C   UNL     1       7.685  -5.016  23.414  0.00  0.00    +0.277 C 
ATOM      4  O   UNL     1       7.573  -5.650  22.394  0.00  0.00    -0.270 OA
ATOM      5  N   UNL     1       6.807  -4.908  24.429  0.00  0.00    -0.230 N 
ATOM      6  C   UNL     1       5.461  -5.068  24.619  0.00  0.00    +0.125 C 
ATOM      7  C   UNL     1       4.876  -4.377  25.637  0.00  0.00    -0.006 C 
ATOM      8  C   UNL     1       5.651  -3.305  26.408  0.00  0.00    +0.196 C 
ATOM      9  O   UNL     1       6.867  -2.922  25.743  0.00  0.00    -0.349 OA
ENDROOT
BRANCH   2  10
ATOM     10  N   UNL     1       8.686  -2.579  23.490  0.00  0.00    -0.276 N 
ATOM     11  H   UNL     1       8.294  -2.478  22.558  0.00  0.00    +0.152 HD
ATOM     12  C   UNL     1       9.335  -1.521  24.080  0.00  0.00    +0.234 C 
ATOM     13  O   UNL     1       9.907  -1.624  25.167  0.00  0.00    -0.274 OA
BRANCH  12  14
ATOM     14  C   UNL     1       9.351  -0.208  23.318  0.00  0.00    +0.213 C 
BRANCH  14  15
ATOM     15  C   UNL     1       8.196   0.703  23.724  0.00  0.00    -0.025 A 
ATOM     16  C   UNL     1       6.870   0.240  23.802  0.00  0.00    +0.008 A 
ATOM     17  C   UNL     1       5.851   1.077  24.257  0.00  0.00    +0.046 A 
ATOM     18  C   UNL     1       6.141   2.388  24.611  0.00  0.00    +0.117 A 
ATOM     19  C   UNL     1       7.430   2.891  24.478  0.00  0.00    +0.046 A 
ATOM     20  C   UNL     1       8.453   2.050  24.032  0.00  0.00    +0.008 A 
BRANCH  18  21
ATOM     21  O   UNL     1       5.124   3.152  25.096  0.00  0.00    -0.507 OA
ATOM     22  H   UNL     1       4.642   2.641  25.766  0.00  0.00    +0.292 HD
ENDBRANCH  18  21
ENDBRANCH  14  15
BRANCH  14  23
ATOM     23  C   UNL     1       9.427  -0.382  21.806  0.00  0.00    +0.321 C 
ATOM     24  O   UNL     1       8.899   0.407  21.030  0.00  0.00    -0.250 OA
BRANCH  23  25
ATOM     25  O   UNL     1      10.093  -1.465  21.344  0.00  0.00    -0.480 OA
ATOM     26  H   UNL     1      10.681  -1.288  20.570  0.00  0.00    +0.295 HD
ENDBRANCH  23  25
ENDBRANCH  14  23
ENDBRANCH  12  14
ENDBRANCH   2  10
BRANCH   2  27
ATOM     27  O   UNL     1       9.990  -4.447  24.463  0.00  0.00    -0.348 OA
ATOM     28  C   UNL     1      10.102  -5.168  25.686  0.00  0.00    +0.197 C 
ENDBRANCH   2  27
BRANCH   6  29
ATOM     29  C   UNL     1       4.639  -5.935  23.691  0.00  0.00    +0.351 C 
ATOM     30  O   UNL     1       3.998  -5.499  22.747  0.00  0.00    -0.244 OA
BRANCH  29  31
ATOM     31  O   UNL     1       4.608  -7.253  23.971  0.00  0.00    -0.476 OA
ATOM     32  H   UNL     1       3.723  -7.650  24.121  0.00  0.00    +0.295 HD
ENDBRANCH  29  31
ENDBRANCH   6  29
BRANCH   7  33
ATOM     33  C   UNL     1       3.416  -4.439  26.063  0.00  0.00    +0.112 C 
BRANCH  33  34
ATOM     34  S   UNL     1       2.975  -5.830  27.146  0.00  0.00    -0.080 S 
BRANCH  34  35
ATOM     35  C   UNL     1       4.421  -6.169  28.001  0.00  0.00    +0.209 A 
ATOM     36  N   UNL     1       4.839  -5.463  29.092  0.00  0.00    -0.223 N 
ATOM     37  C   UNL     1       4.257  -4.313  29.734  0.00  0.00    +0.177 C 
ATOM     38  N   UNL     1       5.982  -5.996  29.558  0.00  0.00    -0.043 NA
ATOM     39  N   UNL     1       6.254  -7.006  28.737  0.00  0.00    -0.022 NA
ATOM     40  N   UNL     1       5.290  -7.120  27.767  0.00  0.00    -0.102 NA
ENDBRANCH  34  35
ENDBRANCH  33  34
ENDBRANCH   7  33
TORSDOF 12
ENDMDL
MODEL 7
REMARK VINA RESULT:      -6.7      2.912      5.066
REMARK  Name = 
REMARK  14 active torsions:
REMARK  status: ('A' for Active; 'I' for Inactive)
REMARK    1  A    between atoms: C_5  and  C_6
REMARK    2  A    between atoms: C_6  and  S_7
REMARK    3  A    between atoms: S_7  and  C_8
REMARK    4  A    between atoms: N_12  and  C_13
REMARK    5  A    between atoms: C_14  and  C_35
REMARK    6  A    between atoms: C_18  and  N_19
REMARK    7  A    between atoms: C_18  and  O_33
REMARK    8  A    between atoms: C_20  and  C_22
REMARK    9  A    between atoms: C_22  and  C_23
REMARK   10  A    between atoms: C_22  and  C_26
REMARK   11  A    between atoms: C_23  and  O_24
REMARK   12  A    between atoms: C_29  and  O_30
REMARK   13  A    between atoms: O_33  and  C_34
REMARK   14  A    between atoms: C_35  and  O_36
REMARK                            x       y       z     vdW  Elec       q    Type
REMARK                         _______ _______ _______ _____ _____    ______ ____
ROOT
ATOM      1  C   UNL     1       8.160  -1.395  24.599  0.00  0.00    +0.273 C 
ATOM      2  C   UNL     1       9.042  -0.407  23.705  0.00  0.00    +0.258 C 
ATOM      3  C   UNL     1       8.672  -1.488  22.556  0.00  0.00    +0.277 C 
ATOM      4  O   UNL     1       8.868  -1.708  21.387  0.00  0.00    -0.270 OA
ATOM      5  N   UNL     1       7.848  -2.136  23.400  0.00  0.00    -0.230 N 
ATOM      6  C   UNL     1       6.733  -2.925  23.313  0.00  0.00    +0.125 C 
ATOM      7  C   UNL     1       5.895  -2.962  24.387  0.00  0.00    -0.006 C 
ATOM      8  C   UNL     1       6.080  -2.002  25.564  0.00  0.00    +0.196 C 
ATOM      9  O   UNL     1       6.974  -0.920  25.253  0.00  0.00    -0.349 OA
ENDROOT
BRANCH   2  10
ATOM     10  N   UNL     1       8.418   0.945  23.538  0.00  0.00    -0.276 N 
ATOM     11  H   UNL     1       7.586   1.158  24.082  0.00  0.00    +0.152 HD
ATOM     12  C   UNL     1       8.854   1.827  22.579  0.00  0.00    +0.234 C 
ATOM     13  O   UNL     1       9.801   1.570  21.831  0.00  0.00    -0.274 OA
BRANCH  12  14
ATOM     14  C   UNL     1       8.098   3.137  22.448  0.00  0.00    +0.213 C 
BRANCH  14  15
ATOM     15  C   UNL     1       8.385   4.081  23.612  0.00  0.00    -0.025 A 
ATOM     16  C   UNL     1       7.638   4.048  24.803  0.00  0.00    +0.008 A 
ATOM     17  C   UNL     1       7.979   4.868  25.879  0.00  0.00    +0.046 A 
ATOM     18  C   UNL     1       9.049   5.745  25.765  0.00  0.00    +0.117 A 
ATOM     19  C   UNL     1       9.761   5.847  24.576  0.00  0.00    +0.046 A 
ATOM     20  C   UNL     1       9.426   5.020  23.501  0.00  0.00    +0.008 A 
BRANCH  18  21
ATOM     21  O   UNL     1       9.376   6.490  26.858  0.00  0.00    -0.507 OA
ATOM     22  H   UNL     1       8.797   7.269  26.888  0.00  0.00    +0.292 HD
ENDBRANCH  18  21
ENDBRANCH  14  15
BRANCH  14  23
ATOM     23  C   UNL     1       6.602   2.957  22.224  0.00  0.00    +0.321 C 
ATOM     24  O   UNL     1       6.036   1.886  22.422  0.00  0.00    -0.250 OA
BRANCH  23  25
ATOM     25  O   UNL     1       5.913   4.030  21.775  0.00  0.00    -0.480 OA
ATOM     26  H   UNL     1       5.644   4.671  22.477  0.00  0.00    +0.295 HD
ENDBRANCH  23  25
ENDBRANCH  14  23
ENDBRANCH  12  14
ENDBRANCH   2  10
BRANCH   2  27
ATOM     27  O   UNL     1      10.445  -0.368  24.084  0.00  0.00    -0.348 OA
ATOM     28  C   UNL     1      10.809   0.546  25.115  0.00  0.00    +0.197 C 
ENDBRANCH   2  27
BRANCH   6  29
ATOM     29  C   UNL     1       6.410  -3.683  22.044  0.00  0.00    +0.351 C 
ATOM     30  O   UNL     1       5.557  -3.330  21.243  0.00  0.00    -0.244 OA
BRANCH  29  31
ATOM     31  O   UNL     1       7.096  -4.822  21.834  0.00  0.00    -0.476 OA
ATOM     32  H   UNL     1       6.567  -5.625  21.634  0.00  0.00    +0.295 HD
ENDBRANCH  29  31
ENDBRANCH   6  29
BRANCH   7  33
ATOM     33  C   UNL     1       4.634  -3.803  24.532  0.00  0.00    +0.112 C 
BRANCH  33  34
ATOM     34  S   UNL     1       4.903  -5.560  24.908  0.00  0.00    -0.080 S 
BRANCH  34  35
ATOM     35  C   UNL     1       5.929  -5.542  26.280  0.00  0.00    +0.209 A 
ATOM     36  N   UNL     1       5.496  -5.279  27.548  0.00  0.00    -0.223 N 
ATOM     37  C   UNL     1       4.184  -4.930  28.027  0.00  0.00    +0.177 C 
ATOM     38  N   UNL     1       6.528  -5.379  28.403  0.00  0.00    -0.043 NA
ATOM     39  N   UNL     1       7.578  -5.683  27.646  0.00  0.00    -0.022 NA
ATOM     40  N   UNL     1       7.216  -5.784  26.326  0.00  0.00    -0.102 NA
ENDBRANCH  34  35
ENDBRANCH  33  34
ENDBRANCH   7  33
TORSDOF 12
ENDMDL
MODEL 8
REMARK VINA RESULT:      -6.6      3.937      9.006
REMARK  Name = 
REMARK  14 active torsions:
REMARK  status: ('A' for Active; 'I' for Inactive)
REMARK    1  A    between atoms: C_5  and  C_6
REMARK    2  A    between atoms: C_6  and  S_7
REMARK    3  A    between atoms: S_7  and  C_8
REMARK    4  A    between atoms: N_12  and  C_13
REMARK    5  A    between atoms: C_14  and  C_35
REMARK    6  A    between atoms: C_18  and  N_19
REMARK    7  A    between atoms: C_18  and  O_33
REMARK    8  A    between atoms: C_20  and  C_22
REMARK    9  A    between atoms: C_22  and  C_23
REMARK   10  A    between atoms: C_22  and  C_26
REMARK   11  A    between atoms: C_23  and  O_24
REMARK   12  A    between atoms: C_29  and  O_30
REMARK   13  A    between atoms: O_33  and  C_34
REMARK   14  A    between atoms: C_35  and  O_36
REMARK                            x       y       z     vdW  Elec       q    Type
REMARK                         _______ _______ _______ _____ _____    ______ ____
ROOT
ATOM      1  C   UNL     1       6.967  -1.296  23.037  0.00  0.00    +0.273 C 
ATOM      2  C   UNL     1       7.392  -2.830  22.905  0.00  0.00    +0.258 C 
ATOM      3  C   UNL     1       8.875  -2.191  23.033  0.00  0.00    +0.277 C 
ATOM      4  O   UNL     1      10.035  -2.523  23.042  0.00  0.00    -0.270 OA
ATOM      5  N   UNL     1       8.354  -0.974  23.273  0.00  0.00    -0.230 N 
ATOM      6  C   UNL     1       8.725   0.171  23.926  0.00  0.00    +0.125 C 
ATOM      7  C   UNL     1       7.738   0.988  24.388  0.00  0.00    -0.006 C 
ATOM      8  C   UNL     1       6.273   0.546  24.362  0.00  0.00    +0.196 C 
ATOM      9  O   UNL     1       6.130  -0.865  24.122  0.00  0.00    -0.349 OA
ENDROOT
BRANCH   2  10
ATOM     10  N   UNL     1       6.950  -3.662  24.070  0.00  0.00    -0.276 N 
ATOM     11  H   UNL     1       6.306  -3.247  24.737  0.00  0.00    +0.152 HD
ATOM     12  C   UNL     1       7.499  -4.897  24.323  0.00  0.00    +0.234 C 
ATOM     13  O   UNL     1       8.354  -5.399  23.590  0.00  0.00    -0.274 OA
BRANCH  12  14
ATOM     14  C   UNL     1       7.031  -5.618  25.574  0.00  0.00    +0.213 C 
BRANCH  14  15
ATOM     15  C   UNL     1       5.510  -5.633  25.691  0.00  0.00    -0.025 A 
ATOM     16  C   UNL     1       4.814  -4.730  26.515  0.00  0.00    +0.008 A 
ATOM     17  C   UNL     1       3.419  -4.716  26.534  0.00  0.00    +0.046 A 
ATOM     18  C   UNL     1       2.709  -5.619  25.755  0.00  0.00    +0.117 A 
ATOM     19  C   UNL     1       3.372  -6.568  24.985  0.00  0.00    +0.046 A 
ATOM     20  C   UNL     1       4.769  -6.576  24.957  0.00  0.00    +0.008 A 
BRANCH  18  21
ATOM     21  O   UNL     1       1.350  -5.536  25.769  0.00  0.00    -0.507 OA
ATOM     22  H   UNL     1       1.017  -6.010  26.549  0.00  0.00    +0.292 HD
ENDBRANCH  18  21
ENDBRANCH  14  15
BRANCH  14  23
ATOM     23  C   UNL     1       7.690  -5.111  26.851  0.00  0.00    +0.321 C 
ATOM     24  O   UNL     1       8.218  -4.006  26.920  0.00  0.00    -0.250 OA
BRANCH  23  25
ATOM     25  O   UNL     1       7.686  -5.943  27.918  0.00  0.00    -0.480 OA
ATOM     26  H   UNL     1       6.812  -6.028  28.371  0.00  0.00    +0.295 HD
ENDBRANCH  23  25
ENDBRANCH  14  23
ENDBRANCH  12  14
ENDBRANCH   2  10
BRANCH   2  27
ATOM     27  O   UNL     1       7.083  -3.414  21.609  0.00  0.00    -0.348 OA
ATOM     28  C   UNL     1       5.726  -3.778  21.374  0.00  0.00    +0.197 C 
ENDBRANCH   2  27
BRANCH   6  29
ATOM     29  C   UNL     1      10.183   0.487  24.180  0.00  0.00    +0.351 C 
ATOM     30  O   UNL     1      10.757   0.237  25.229  0.00  0.00    -0.244 OA
BRANCH  29  31
ATOM     31  O   UNL     1      10.845   1.108  23.185  0.00  0.00    -0.476 OA
ATOM     32  H   UNL     1      10.536   2.008  22.944  0.00  0.00    +0.295 HD
ENDBRANCH  29  31
ENDBRANCH   6  29
BRANCH   7  33
ATOM     33  C   UNL     1       7.915   2.327  25.090  0.00  0.00    +0.112 C 
BRANCH  33  34
ATOM     34  S   UNL     1       7.599   3.796  24.069  0.00  0.00    -0.080 S 
BRANCH  34  35
ATOM     35  C   UNL     1       9.152   4.476  23.821  0.00  0.00    +0.209 A 
ATOM     36  N   UNL     1       9.390   5.818  23.753  0.00  0.00    -0.223 N 
ATOM     37  C   UNL     1       8.476   6.928  23.816  0.00  0.00    +0.177 C 
ATOM     38  N   UNL     1      10.707   6.031  23.592  0.00  0.00    -0.043 NA
ATOM     39  N   UNL     1      11.252   4.818  23.546  0.00  0.00    -0.022 NA
ATOM     40  N   UNL     1      10.293   3.846  23.687  0.00  0.00    -0.102 NA
ENDBRANCH  34  35
ENDBRANCH  33  34
ENDBRANCH   7  33
TORSDOF 12
ENDMDL
MODEL 9
REMARK VINA RESULT:      -6.5      4.672      7.517
REMARK  Name = 
REMARK  14 active torsions:
REMARK  status: ('A' for Active; 'I' for Inactive)
REMARK    1  A    between atoms: C_5  and  C_6
REMARK    2  A    between atoms: C_6  and  S_7
REMARK    3  A    between atoms: S_7  and  C_8
REMARK    4  A    between atoms: N_12  and  C_13
REMARK    5  A    between atoms: C_14  and  C_35
REMARK    6  A    between atoms: C_18  and  N_19
REMARK    7  A    between atoms: C_18  and  O_33
REMARK    8  A    between atoms: C_20  and  C_22
REMARK    9  A    between atoms: C_22  and  C_23
REMARK   10  A    between atoms: C_22  and  C_26
REMARK   11  A    between atoms: C_23  and  O_24
REMARK   12  A    between atoms: C_29  and  O_30
REMARK   13  A    between atoms: O_33  and  C_34
REMARK   14  A    between atoms: C_35  and  O_36
REMARK                            x       y       z     vdW  Elec       q    Type
REMARK                         _______ _______ _______ _____ _____    ______ ____
ROOT
ATOM      1  C   UNL     1       7.049  -3.520  25.222  0.00  0.00    +0.273 C 
ATOM      2  C   UNL     1       8.552  -3.556  24.681  0.00  0.00    +0.258 C 
ATOM      3  C   UNL     1       7.986  -4.840  23.872  0.00  0.00    +0.277 C 
ATOM      4  O   UNL     1       8.352  -5.688  23.096  0.00  0.00    -0.270 OA
ATOM      5  N   UNL     1       6.736  -4.591  24.306  0.00  0.00    -0.230 N 
ATOM      6  C   UNL     1       5.456  -4.821  23.880  0.00  0.00    +0.125 C 
ATOM      7  C   UNL     1       4.479  -3.979  24.317  0.00  0.00    -0.006 C 
ATOM      8  C   UNL     1       4.826  -2.703  25.088  0.00  0.00    +0.196 C 
ATOM      9  O   UNL     1       6.221  -2.369  24.995  0.00  0.00    -0.349 OA
ENDROOT
BRANCH   2  10
ATOM     10  N   UNL     1       8.897  -2.367  23.837  0.00  0.00    -0.276 N 
ATOM     11  H   UNL     1       8.919  -2.488  22.828  0.00  0.00    +0.152 HD
ATOM     12  C   UNL     1       9.317  -1.184  24.395  0.00  0.00    +0.234 C 
ATOM     13  O   UNL     1       9.397  -1.025  25.615  0.00  0.00    -0.274 OA
BRANCH  12  14
ATOM     14  C   UNL     1       9.714  -0.072  23.442  0.00  0.00    +0.213 C 
BRANCH  14  15
ATOM     15  C   UNL     1       8.852   1.174  23.623  0.00  0.00    -0.025 A 
ATOM     16  C   UNL     1       7.447   1.113  23.661  0.00  0.00    +0.008 A 
ATOM     17  C   UNL     1       6.692   2.259  23.912  0.00  0.00    +0.046 A 
ATOM     18  C   UNL     1       7.330   3.477  24.101  0.00  0.00    +0.117 A 
ATOM     19  C   UNL     1       8.713   3.578  24.001  0.00  0.00    +0.046 A 
ATOM     20  C   UNL     1       9.470   2.429  23.759  0.00  0.00    +0.008 A 
BRANCH  18  21
ATOM     21  O   UNL     1       6.555   4.558  24.392  0.00  0.00    -0.507 OA
ATOM     22  H   UNL     1       6.963   5.045  25.127  0.00  0.00    +0.292 HD
ENDBRANCH  18  21
ENDBRANCH  14  15
BRANCH  14  23
ATOM     23  C   UNL     1       9.769  -0.511  21.983  0.00  0.00    +0.321 C 
ATOM     24  O   UNL     1       9.162   0.083  21.098  0.00  0.00    -0.250 OA
BRANCH  23  25
ATOM     25  O   UNL     1      10.509  -1.607  21.698  0.00  0.00    -0.480 OA
ATOM     26  H   UNL     1      10.489  -1.882  20.749  0.00  0.00    +0.295 HD
ENDBRANCH  23  25
ENDBRANCH  14  23
ENDBRANCH  12  14
ENDBRANCH   2  10
BRANCH   2  27
ATOM     27  O   UNL     1       9.537  -3.860  25.707  0.00  0.00    -0.348 OA
ATOM     28  C   UNL     1       9.285  -5.000  26.523  0.00  0.00    +0.197 C 
ENDBRANCH   2  27
BRANCH   6  29
ATOM     29  C   UNL     1       5.146  -5.938  22.906  0.00  0.00    +0.351 C 
ATOM     30  O   UNL     1       5.024  -5.771  21.702  0.00  0.00    -0.244 OA
BRANCH  29  31
ATOM     31  O   UNL     1       4.970  -7.164  23.434  0.00  0.00    -0.476 OA
ATOM     32  H   UNL     1       5.436  -7.351  24.278  0.00  0.00    +0.295 HD
ENDBRANCH  29  31
ENDBRANCH   6  29
BRANCH   7  33
ATOM     33  C   UNL     1       2.989  -4.074  24.017  0.00  0.00    +0.112 C 
BRANCH  33  34
ATOM     34  S   UNL     1       1.992  -4.937  25.265  0.00  0.00    -0.080 S 
BRANCH  34  35
ATOM     35  C   UNL     1       2.199  -6.597  24.892  0.00  0.00    +0.209 A 
ATOM     36  N   UNL     1       1.681  -7.194  23.778  0.00  0.00    -0.223 N 
ATOM     37  C   UNL     1       0.854  -6.651  22.733  0.00  0.00    +0.177 C 
ATOM     38  N   UNL     1       2.050  -8.486  23.752  0.00  0.00    -0.043 NA
ATOM     39  N   UNL     1       2.771  -8.664  24.855  0.00  0.00    -0.022 NA
ATOM     40  N   UNL     1       2.867  -7.497  25.570  0.00  0.00    -0.102 NA
ENDBRANCH  34  35
ENDBRANCH  33  34
ENDBRANCH   7  33
TORSDOF 12
ENDMDL
