MODEL 1
REMARK VINA RESULT:      -7.0      0.000      0.000
REMARK  Name = 
REMARK  15 active torsions:
REMARK  status: ('A' for Active; 'I' for Inactive)
REMARK    1  A    between atoms: N_1  and  C_2
REMARK    2  A    between atoms: C_2  and  C_4
REMARK    3  A    between atoms: C_2  and  C_37
REMARK    4  A    between atoms: C_4  and  C_5
REMARK    5  A    between atoms: C_5  and  C_6
REMARK    6  A    between atoms: N_8  and  C_9
REMARK    7  A    between atoms: C_9  and  C_11
REMARK    8  A    between atoms: C_9  and  C_30
REMARK    9  A    between atoms: C_11  and  S_12
REMARK   10  A    between atoms: S_12  and  C_13
REMARK   11  A    between atoms: C_15  and  O_17
REMARK   12  A    between atoms: N_32  and  CA_33
REMARK   13  A    between atoms: CA_33  and  C_34
REMARK   14  A    between atoms: C_34  and  O_35
REMARK   15  A    between atoms: C_37  and  O_38
REMARK                            x       y       z     vdW  Elec       q    Type
REMARK                         _______ _______ _______ _____ _____    ______ ____
ROOT
ATOM      1  C   UNK A   1       8.040  -3.029  22.959  0.00  0.00    +0.169 C 
ENDROOT
BRANCH   1   3
ATOM      2  C   UNK A   1       9.174  -3.928  25.045  0.00  0.00    +0.214 C 
ATOM      3  N   UNK A   1       8.157  -3.267  24.407  0.00  0.00    -0.303 N 
ATOM      4  H   UNK A   1       7.281  -3.181  24.911  0.00  0.00    +0.149 HD
ATOM      5  O   UNK A   1      10.227  -4.235  24.491  0.00  0.00    -0.276 OA
BRANCH   2   6
ATOM      6  C   UNK A   1       8.917  -4.177  26.519  0.00  0.00    +0.098 C 
BRANCH   6   7
ATOM      7  C   UNK A   1       8.213  -5.521  26.750  0.00  0.00    +0.039 C 
BRANCH   7   8
ATOM      8  C   UNK A   1       6.828  -5.394  27.401  0.00  0.00    +0.161 C 
BRANCH   8   9
ATOM      9  N   UNK A   1       6.686  -6.237  28.625  0.00  0.00    -0.318 NA
ATOM     10  H   UNK A   1       6.652  -7.226  28.365  0.00  0.00    +0.119 HD
ATOM     11  H   UNK A   1       7.563  -6.161  29.153  0.00  0.00    +0.119 HD
ENDBRANCH   8   9
BRANCH   8  12
ATOM     12  C   UNK A   1       5.719  -5.769  26.403  0.00  0.00    +0.322 C 
ATOM     13  O   UNK A   1       4.924  -6.685  26.545  0.00  0.00    -0.249 OA
BRANCH  12  14
ATOM     14  O   UNK A   1       5.696  -4.914  25.346  0.00  0.00    -0.480 OA
ATOM     15  H   UNK A   1       6.273  -5.331  24.657  0.00  0.00    +0.295 HD
ENDBRANCH  12  14
ENDBRANCH   8  12
ENDBRANCH   7   8
ENDBRANCH   6   7
ENDBRANCH   2   6
ENDBRANCH   1   3
BRANCH   1  16
ATOM     16  C   UNK A   1       6.874  -3.755  22.259  0.00  0.00    +0.235 C 
ATOM     17  N   GLY A   2       6.791  -5.120  22.441  0.00  0.00    -0.303 N 
ATOM     18  H   GLY A   2       7.663  -5.589  22.683  0.00  0.00    +0.149 HD
ATOM     19  O   UNK A   1       5.972  -3.125  21.712  0.00  0.00    -0.274 OA
BRANCH  17  20
ATOM     20  CA  GLY A   2       5.723  -5.911  21.844  0.00  0.00    +0.224 C 
BRANCH  20  21
ATOM     21  C   GLY A   2       4.542  -6.133  22.782  0.00  0.00    +0.322 C 
ATOM     22  OXT GLY A   2       3.590  -5.372  22.859  0.00  0.00    -0.249 OA
BRANCH  21  23
ATOM     23  O   GLY A   2       4.635  -7.252  23.543  0.00  0.00    -0.480 OA
ATOM     24  H   GLY A   2       4.091  -7.192  24.356  0.00  0.00    +0.295 HD
ENDBRANCH  21  23
ENDBRANCH  20  21
ENDBRANCH  17  20
ENDBRANCH   1  16
BRANCH   1  25
ATOM     25  C   UNK A   1       8.013  -1.552  22.523  0.00  0.00    +0.101 C 
BRANCH  25  26
ATOM     26  S   UNK A   1       9.701  -0.835  22.409  0.00  0.00    -0.147 S 
BRANCH  26  27
ATOM     27  C   UNK A   1       9.473   0.746  23.384  0.00  0.00    +0.110 C 
ATOM     28  C   UNK A   1       8.834   0.459  24.726  0.00  0.00    -0.024 A 
ATOM     29  C   UNK A   1       7.521   0.881  25.015  0.00  0.00    -0.013 A 
ATOM     30  C   UNK A   1       6.982   0.486  26.257  0.00  0.00    +0.009 A 
ATOM     31  C   UNK A   1       7.707  -0.283  27.174  0.00  0.00    +0.001 A 
ATOM     32  C   UNK A   1       9.010  -0.659  26.887  0.00  0.00    +0.000 A 
ATOM     33  C   UNK A   1       6.771   1.731  24.054  0.00  0.00    -0.012 A 
ATOM     34  C   UNK A   1       7.415   2.272  22.923  0.00  0.00    -0.010 A 
ATOM     35  C   UNK A   1       6.738   3.188  22.087  0.00  0.00    +0.007 A 
ATOM     36  C   UNK A   1       5.407   3.519  22.313  0.00  0.00    +0.000 A 
ATOM     37  C   UNK A   1       4.734   2.932  23.373  0.00  0.00    +0.001 A 
ATOM     38  C   UNK A   1       5.411   2.062  24.234  0.00  0.00    +0.009 A 
ATOM     39  C   UNK A   1       9.573  -0.283  25.675  0.00  0.00    +0.005 A 
ATOM     40  C   UNK A   1       8.819   1.867  22.534  0.00  0.00    +0.162 C 
BRANCH  40  41
ATOM     41  O   UNK A   1       9.645   3.041  22.540  0.00  0.00    -0.386 OA
ATOM     42  H   UNK A   1       9.109   3.766  22.172  0.00  0.00    +0.210 HD
ENDBRANCH  40  41
ENDBRANCH  26  27
ENDBRANCH  25  26
ENDBRANCH   1  25
TORSDOF 15
ENDMDL
MODEL 2
REMARK VINA RESULT:      -6.7      2.736      7.802
REMARK  Name = 
REMARK  15 active torsions:
REMARK  status: ('A' for Active; 'I' for Inactive)
REMARK    1  A    between atoms: N_1  and  C_2
REMARK    2  A    between atoms: C_2  and  C_4
REMARK    3  A    between atoms: C_2  and  C_37
REMARK    4  A    between atoms: C_4  and  C_5
REMARK    5  A    between atoms: C_5  and  C_6
REMARK    6  A    between atoms: N_8  and  C_9
REMARK    7  A    between atoms: C_9  and  C_11
REMARK    8  A    between atoms: C_9  and  C_30
REMARK    9  A    between atoms: C_11  and  S_12
REMARK   10  A    between atoms: S_12  and  C_13
REMARK   11  A    between atoms: C_15  and  O_17
REMARK   12  A    between atoms: N_32  and  CA_33
REMARK   13  A    between atoms: CA_33  and  C_34
REMARK   14  A    between atoms: C_34  and  O_35
REMARK   15  A    between atoms: C_37  and  O_38
REMARK                            x       y       z     vdW  Elec       q    Type
REMARK                         _______ _______ _______ _____ _____    ______ ____
ROOT
ATOM      1  C   UNK A   1       6.030  -1.194  25.170  0.00  0.00    +0.169 C 
ENDROOT
BRANCH   1   3
ATOM      2  C   UNK A   1       6.453   1.308  25.238  0.00  0.00    +0.214 C 
ATOM      3  N   UNK A   1       6.717   0.023  25.634  0.00  0.00    -0.303 N 
ATOM      4  H   UNK A   1       7.625  -0.149  26.052  0.00  0.00    +0.149 HD
ATOM      5  O   UNK A   1       5.461   1.619  24.583  0.00  0.00    -0.276 OA
BRANCH   2   6
ATOM      6  C   UNK A   1       7.453   2.328  25.750  0.00  0.00    +0.098 C 
BRANCH   6   7
ATOM      7  C   UNK A   1       8.299   2.909  24.609  0.00  0.00    +0.039 C 
BRANCH   7   8
ATOM      8  C   UNK A   1       9.222   1.884  23.935  0.00  0.00    +0.161 C 
BRANCH   8   9
ATOM      9  N   UNK A   1       9.849   0.942  24.909  0.00  0.00    -0.318 NA
ATOM     10  H   UNK A   1      10.715   0.563  24.519  0.00  0.00    +0.119 HD
ATOM     11  H   UNK A   1      10.174   1.499  25.707  0.00  0.00    +0.119 HD
ENDBRANCH   8   9
BRANCH   8  12
ATOM     12  C   UNK A   1      10.332   2.590  23.135  0.00  0.00    +0.322 C 
ATOM     13  O   UNK A   1      11.291   3.167  23.622  0.00  0.00    -0.249 OA
BRANCH  12  14
ATOM     14  O   UNK A   1      10.141   2.450  21.797  0.00  0.00    -0.480 OA
ATOM     15  H   UNK A   1       9.675   1.582  21.686  0.00  0.00    +0.295 HD
ENDBRANCH  12  14
ENDBRANCH   8  12
ENDBRANCH   7   8
ENDBRANCH   6   7
ENDBRANCH   2   6
ENDBRANCH   1   3
BRANCH   1  16
ATOM     16  C   UNK A   1       6.454  -1.704  23.777  0.00  0.00    +0.235 C 
ATOM     17  N   GLY A   2       7.759  -1.469  23.398  0.00  0.00    -0.303 N 
ATOM     18  H   GLY A   2       8.221  -0.686  23.859  0.00  0.00    +0.149 HD
ATOM     19  O   UNK A   1       5.715  -2.430  23.116  0.00  0.00    -0.274 OA
BRANCH  17  20
ATOM     20  CA  GLY A   2       8.278  -1.918  22.114  0.00  0.00    +0.224 C 
BRANCH  20  21
ATOM     21  C   GLY A   2       9.471  -1.102  21.628  0.00  0.00    +0.322 C 
ATOM     22  OXT GLY A   2       9.365  -0.038  21.037  0.00  0.00    -0.249 OA
BRANCH  21  23
ATOM     23  O   GLY A   2      10.677  -1.659  21.899  0.00  0.00    -0.480 OA
ATOM     24  H   GLY A   2      10.665  -2.635  21.800  0.00  0.00    +0.295 HD
ENDBRANCH  21  23
ENDBRANCH  20  21
ENDBRANCH  17  20
ENDBRANCH   1  16
BRANCH   1  25
ATOM     25  C   UNK A   1       6.053  -2.388  26.142  0.00  0.00    +0.101 C 
BRANCH  25  26
ATOM     26  S   UNK A   1       7.757  -3.011  26.431  0.00  0.00    -0.147 S 
BRANCH  26  27
ATOM     27  C   UNK A   1       7.464  -4.859  26.372  0.00  0.00    +0.110 C 
ATOM     28  C   UNK A   1       6.972  -5.280  25.004  0.00  0.00    -0.024 A 
ATOM     29  C   UNK A   1       5.654  -5.741  24.813  0.00  0.00    -0.013 A 
ATOM     30  C   UNK A   1       5.262  -6.021  23.487  0.00  0.00    +0.009 A 
ATOM     31  C   UNK A   1       6.132  -5.859  22.402  0.00  0.00    +0.001 A 
ATOM     32  C   UNK A   1       7.435  -5.438  22.615  0.00  0.00    +0.000 A 
ATOM     33  C   UNK A   1       4.749  -5.948  25.973  0.00  0.00    -0.012 A 
ATOM     34  C   UNK A   1       5.241  -5.853  27.290  0.00  0.00    -0.010 A 
ATOM     35  C   UNK A   1       4.413  -6.184  28.386  0.00  0.00    +0.007 A 
ATOM     36  C   UNK A   1       3.080  -6.534  28.199  0.00  0.00    +0.000 A 
ATOM     37  C   UNK A   1       2.557  -6.552  26.916  0.00  0.00    +0.001 A 
ATOM     38  C   UNK A   1       3.384  -6.273  25.822  0.00  0.00    +0.009 A 
ATOM     39  C   UNK A   1       7.855  -5.158  23.907  0.00  0.00    +0.005 A 
ATOM     40  C   UNK A   1       6.638  -5.359  27.586  0.00  0.00    +0.162 C 
BRANCH  40  41
ATOM     41  O   UNK A   1       7.348  -6.399  28.276  0.00  0.00    -0.386 OA
ATOM     42  H   UNK A   1       6.894  -7.235  28.072  0.00  0.00    +0.210 HD
ENDBRANCH  40  41
ENDBRANCH  26  27
ENDBRANCH  25  26
ENDBRANCH   1  25
TORSDOF 15
ENDMDL
MODEL 3
REMARK VINA RESULT:      -6.7      2.331      4.525
REMARK  Name = 
REMARK  15 active torsions:
REMARK  status: ('A' for Active; 'I' for Inactive)
REMARK    1  A    between atoms: N_1  and  C_2
REMARK    2  A    between atoms: C_2  and  C_4
REMARK    3  A    between atoms: C_2  and  C_37
REMARK    4  A    between atoms: C_4  and  C_5
REMARK    5  A    between atoms: C_5  and  C_6
REMARK    6  A    between atoms: N_8  and  C_9
REMARK    7  A    between atoms: C_9  and  C_11
REMARK    8  A    between atoms: C_9  and  C_30
REMARK    9  A    between atoms: C_11  and  S_12
REMARK   10  A    between atoms: S_12  and  C_13
REMARK   11  A    between atoms: C_15  and  O_17
REMARK   12  A    between atoms: N_32  and  CA_33
REMARK   13  A    between atoms: CA_33  and  C_34
REMARK   14  A    between atoms: C_34  and  O_35
REMARK   15  A    between atoms: C_37  and  O_38
REMARK                            x       y       z     vdW  Elec       q    Type
REMARK                         _______ _______ _______ _____ _____    ______ ____
ROOT
ATOM      1  C   UNK A   1       5.206  -2.064  25.115  0.00  0.00    +0.169 C 
ENDROOT
BRANCH   1   3
ATOM      2  C   UNK A   1       6.302  -3.535  23.361  0.00  0.00    +0.214 C 
ATOM      3  N   UNK A   1       6.354  -2.691  24.439  0.00  0.00    -0.303 N 
ATOM      4  H   UNK A   1       7.199  -2.714  24.998  0.00  0.00    +0.149 HD
ATOM      5  O   UNK A   1       5.284  -3.716  22.698  0.00  0.00    -0.276 OA
BRANCH   2   6
ATOM      6  C   UNK A   1       7.637  -4.165  23.008  0.00  0.00    +0.098 C 
BRANCH   6   7
ATOM      7  C   UNK A   1       8.027  -5.256  24.014  0.00  0.00    +0.039 C 
BRANCH   7   8
ATOM      8  C   UNK A   1       8.949  -4.764  25.139  0.00  0.00    +0.161 C 
BRANCH   8   9
ATOM      9  N   UNK A   1      10.202  -5.567  25.252  0.00  0.00    -0.318 NA
ATOM     10  H   UNK A   1      10.706  -5.555  24.362  0.00  0.00    +0.119 HD
ATOM     11  H   UNK A   1      10.833  -5.063  25.887  0.00  0.00    +0.119 HD
ENDBRANCH   8   9
BRANCH   8  12
ATOM     12  C   UNK A   1       8.218  -4.784  26.493  0.00  0.00    +0.322 C 
ATOM     13  O   UNK A   1       7.697  -3.817  27.027  0.00  0.00    -0.249 OA
BRANCH  12  14
ATOM     14  O   UNK A   1       8.177  -6.039  27.013  0.00  0.00    -0.480 OA
ATOM     15  H   UNK A   1       7.385  -6.053  27.608  0.00  0.00    +0.295 HD
ENDBRANCH  12  14
ENDBRANCH   8  12
ENDBRANCH   7   8
ENDBRANCH   6   7
ENDBRANCH   2   6
ENDBRANCH   1   3
BRANCH   1  16
ATOM     16  C   UNK A   1       4.183  -3.042  25.729  0.00  0.00    +0.235 C 
ATOM     17  N   GLY A   2       4.688  -4.067  26.502  0.00  0.00    -0.303 N 
ATOM     18  H   GLY A   2       5.654  -4.331  26.313  0.00  0.00    +0.149 HD
ATOM     19  O   UNK A   1       2.977  -2.816  25.672  0.00  0.00    -0.274 OA
BRANCH  17  20
ATOM     20  CA  GLY A   2       3.819  -5.042  27.146  0.00  0.00    +0.224 C 
BRANCH  20  21
ATOM     21  C   GLY A   2       4.460  -6.418  27.290  0.00  0.00    +0.322 C 
ATOM     22  OXT GLY A   2       5.376  -6.812  26.583  0.00  0.00    -0.249 OA
BRANCH  21  23
ATOM     23  O   GLY A   2       3.924  -7.186  28.269  0.00  0.00    -0.480 OA
ATOM     24  H   GLY A   2       4.602  -7.723  28.731  0.00  0.00    +0.295 HD
ENDBRANCH  21  23
ENDBRANCH  20  21
ENDBRANCH  17  20
ENDBRANCH   1  16
BRANCH   1  25
ATOM     25  C   UNK A   1       5.551  -1.005  26.179  0.00  0.00    +0.101 C 
BRANCH  25  26
ATOM     26  S   UNK A   1       5.269   0.704  25.567  0.00  0.00    -0.147 S 
BRANCH  26  27
ATOM     27  C   UNK A   1       7.033   1.311  25.410  0.00  0.00    +0.110 C 
ATOM     28  C   UNK A   1       7.147   2.344  24.310  0.00  0.00    -0.024 A 
ATOM     29  C   UNK A   1       7.845   2.065  23.117  0.00  0.00    -0.013 A 
ATOM     30  C   UNK A   1       7.816   3.057  22.114  0.00  0.00    +0.009 A 
ATOM     31  C   UNK A   1       7.137   4.269  22.283  0.00  0.00    +0.001 A 
ATOM     32  C   UNK A   1       6.486   4.539  23.477  0.00  0.00    +0.000 A 
ATOM     33  C   UNK A   1       8.596   0.794  22.960  0.00  0.00    -0.012 A 
ATOM     34  C   UNK A   1       8.769  -0.076  24.056  0.00  0.00    -0.010 A 
ATOM     35  C   UNK A   1       9.598  -1.214  23.938  0.00  0.00    +0.007 A 
ATOM     36  C   UNK A   1      10.198  -1.545  22.729  0.00  0.00    +0.000 A 
ATOM     37  C   UNK A   1       9.972  -0.746  21.619  0.00  0.00    +0.001 A 
ATOM     38  C   UNK A   1       9.192   0.410  21.739  0.00  0.00    +0.009 A 
ATOM     39  C   UNK A   1       6.497   3.586  24.486  0.00  0.00    +0.005 A 
ATOM     40  C   UNK A   1       8.051   0.142  25.368  0.00  0.00    +0.162 C 
BRANCH  40  41
ATOM     41  O   UNK A   1       9.037   0.304  26.400  0.00  0.00    -0.386 OA
ATOM     42  H   UNK A   1       8.582   0.692  27.167  0.00  0.00    +0.210 HD
ENDBRANCH  40  41
ENDBRANCH  26  27
ENDBRANCH  25  26
ENDBRANCH   1  25
TORSDOF 15
ENDMDL
MODEL 4
REMARK VINA RESULT:      -6.7      3.007      7.483
REMARK  Name = 
REMARK  15 active torsions:
REMARK  status: ('A' for Active; 'I' for Inactive)
REMARK    1  A    between atoms: N_1  and  C_2
REMARK    2  A    between atoms: C_2  and  C_4
REMARK    3  A    between atoms: C_2  and  C_37
REMARK    4  A    between atoms: C_4  and  C_5
REMARK    5  A    between atoms: C_5  and  C_6
REMARK    6  A    between atoms: N_8  and  C_9
REMARK    7  A    between atoms: C_9  and  C_11
REMARK    8  A    between atoms: C_9  and  C_30
REMARK    9  A    between atoms: C_11  and  S_12
REMARK   10  A    between atoms: S_12  and  C_13
REMARK   11  A    between atoms: C_15  and  O_17
REMARK   12  A    between atoms: N_32  and  CA_33
REMARK   13  A    between atoms: CA_33  and  C_34
REMARK   14  A    between atoms: C_34  and  O_35
REMARK   15  A    between atoms: C_37  and  O_38
REMARK                            x       y       z     vdW  Elec       q    Type
REMARK                         _______ _______ _______ _____ _____    ______ ____
ROOT
ATOM      1  C   UNK A   1       8.814  -0.674  25.849  0.00  0.00    +0.169 C 
ENDROOT
BRANCH   1   3
ATOM      2  C   UNK A   1      10.271   0.313  24.019  0.00  0.00    +0.214 C 
ATOM      3  N   UNK A   1       9.160  -0.362  24.452  0.00  0.00    -0.303 N 
ATOM      4  H   UNK A   1       8.374  -0.406  23.813  0.00  0.00    +0.149 HD
ATOM      5  O   UNK A   1      11.226   0.572  24.748  0.00  0.00    -0.276 OA
BRANCH   2   6
ATOM      6  C   UNK A   1      10.253   0.643  22.538  0.00  0.00    +0.098 C 
BRANCH   6   7
ATOM      7  C   UNK A   1       8.879   0.361  21.915  0.00  0.00    +0.039 C 
BRANCH   7   8
ATOM      8  C   UNK A   1       8.084   1.627  21.564  0.00  0.00    +0.161 C 
BRANCH   8   9
ATOM      9  N   UNK A   1       8.838   2.882  21.857  0.00  0.00    -0.318 NA
ATOM     10  H   UNK A   1       9.521   2.714  22.600  0.00  0.00    +0.119 HD
ATOM     11  H   UNK A   1       9.425   3.085  21.040  0.00  0.00    +0.119 HD
ENDBRANCH   8   9
BRANCH   8  12
ATOM     12  C   UNK A   1       6.744   1.659  22.321  0.00  0.00    +0.322 C 
ATOM     13  O   UNK A   1       5.992   2.619  22.379  0.00  0.00    -0.249 OA
BRANCH  12  14
ATOM     14  O   UNK A   1       6.469   0.456  22.888  0.00  0.00    -0.480 OA
ATOM     15  H   UNK A   1       7.128  -0.176  22.500  0.00  0.00    +0.295 HD
ENDBRANCH  12  14
ENDBRANCH   8  12
ENDBRANCH   7   8
ENDBRANCH   6   7
ENDBRANCH   2   6
ENDBRANCH   1   3
BRANCH   1  16
ATOM     16  C   UNK A   1       7.745   0.236  26.486  0.00  0.00    +0.235 C 
ATOM     17  N   GLY A   2       7.144   1.163  25.660  0.00  0.00    -0.303 N 
ATOM     18  H   GLY A   2       7.680   1.440  24.838  0.00  0.00    +0.149 HD
ATOM     19  O   UNK A   1       7.331   0.027  27.624  0.00  0.00    -0.274 OA
BRANCH  17  20
ATOM     20  CA  GLY A   2       6.109   2.066  26.145  0.00  0.00    +0.224 C 
BRANCH  20  21
ATOM     21  C   GLY A   2       4.695   1.570  25.856  0.00  0.00    +0.322 C 
ATOM     22  OXT GLY A   2       3.970   1.071  26.703  0.00  0.00    -0.249 OA
BRANCH  21  23
ATOM     23  O   GLY A   2       4.302   1.721  24.568  0.00  0.00    -0.480 OA
ATOM     24  H   GLY A   2       4.417   2.641  24.251  0.00  0.00    +0.295 HD
ENDBRANCH  21  23
ENDBRANCH  20  21
ENDBRANCH  17  20
ENDBRANCH   1  16
BRANCH   1  25
ATOM     25  C   UNK A   1       8.426  -2.137  26.132  0.00  0.00    +0.101 C 
BRANCH  25  26
ATOM     26  S   UNK A   1       9.060  -3.282  24.842  0.00  0.00    -0.147 S 
BRANCH  26  27
ATOM     27  C   UNK A   1       8.115  -4.840  25.267  0.00  0.00    +0.110 C 
ATOM     28  C   UNK A   1       7.162  -5.209  24.150  0.00  0.00    -0.024 A 
ATOM     29  C   UNK A   1       5.766  -5.116  24.322  0.00  0.00    -0.013 A 
ATOM     30  C   UNK A   1       4.964  -5.393  23.194  0.00  0.00    +0.009 A 
ATOM     31  C   UNK A   1       5.515  -5.750  21.957  0.00  0.00    +0.001 A 
ATOM     32  C   UNK A   1       6.889  -5.869  21.818  0.00  0.00    +0.000 A 
ATOM     33  C   UNK A   1       5.188  -4.776  25.647  0.00  0.00    -0.012 A 
ATOM     34  C   UNK A   1       6.009  -4.709  26.791  0.00  0.00    -0.010 A 
ATOM     35  C   UNK A   1       5.437  -4.520  28.068  0.00  0.00    +0.007 A 
ATOM     36  C   UNK A   1       4.070  -4.321  28.222  0.00  0.00    +0.000 A 
ATOM     37  C   UNK A   1       3.258  -4.302  27.099  0.00  0.00    +0.001 A 
ATOM     38  C   UNK A   1       3.809  -4.536  25.834  0.00  0.00    +0.009 A 
ATOM     39  C   UNK A   1       7.707  -5.608  22.909  0.00  0.00    +0.005 A 
ATOM     40  C   UNK A   1       7.515  -4.789  26.696  0.00  0.00    +0.162 C 
BRANCH  40  41
ATOM     41  O   UNK A   1       7.955  -5.922  27.461  0.00  0.00    -0.386 OA
ATOM     42  H   UNK A   1       7.157  -6.352  27.815  0.00  0.00    +0.210 HD
ENDBRANCH  40  41
ENDBRANCH  26  27
ENDBRANCH  25  26
ENDBRANCH   1  25
TORSDOF 15
ENDMDL
MODEL 5
REMARK VINA RESULT:      -6.7      2.109      3.733
REMARK  Name = 
REMARK  15 active torsions:
REMARK  status: ('A' for Active; 'I' for Inactive)
REMARK    1  A    between atoms: N_1  and  C_2
REMARK    2  A    between atoms: C_2  and  C_4
REMARK    3  A    between atoms: C_2  and  C_37
REMARK    4  A    between atoms: C_4  and  C_5
REMARK    5  A    between atoms: C_5  and  C_6
REMARK    6  A    between atoms: N_8  and  C_9
REMARK    7  A    between atoms: C_9  and  C_11
REMARK    8  A    between atoms: C_9  and  C_30
REMARK    9  A    between atoms: C_11  and  S_12
REMARK   10  A    between atoms: S_12  and  C_13
REMARK   11  A    between atoms: C_15  and  O_17
REMARK   12  A    between atoms: N_32  and  CA_33
REMARK   13  A    between atoms: CA_33  and  C_34
REMARK   14  A    between atoms: C_34  and  O_35
REMARK   15  A    between atoms: C_37  and  O_38
REMARK                            x       y       z     vdW  Elec       q    Type
REMARK                         _______ _______ _______ _____ _____    ______ ____
ROOT
ATOM      1  C   UNK A   1       7.710  -4.605  25.427  0.00  0.00    +0.169 C 
ENDROOT
BRANCH   1   3
ATOM      2  C   UNK A   1       6.238  -5.897  27.042  0.00  0.00    +0.214 C 
ATOM      3  N   UNK A   1       6.435  -5.171  25.897  0.00  0.00    -0.303 N 
ATOM      4  H   UNK A   1       5.732  -5.264  25.171  0.00  0.00    +0.149 HD
ATOM      5  O   UNK A   1       7.084  -5.994  27.928  0.00  0.00    -0.276 OA
BRANCH   2   6
ATOM      6  C   UNK A   1       4.852  -6.503  27.157  0.00  0.00    +0.098 C 
BRANCH   6   7
ATOM      7  C   UNK A   1       3.839  -5.762  26.275  0.00  0.00    +0.039 C 
BRANCH   7   8
ATOM      8  C   UNK A   1       3.158  -6.653  25.227  0.00  0.00    +0.161 C 
BRANCH   8   9
ATOM      9  N   UNK A   1       3.222  -8.105  25.574  0.00  0.00    -0.318 NA
ATOM     10  H   UNK A   1       4.190  -8.432  25.526  0.00  0.00    +0.119 HD
ATOM     11  H   UNK A   1       2.993  -8.192  26.570  0.00  0.00    +0.119 HD
ENDBRANCH   8   9
BRANCH   8  12
ATOM     12  C   UNK A   1       3.786  -6.442  23.838  0.00  0.00    +0.322 C 
ATOM     13  O   UNK A   1       3.354  -5.691  22.977  0.00  0.00    -0.249 OA
BRANCH  12  14
ATOM     14  O   UNK A   1       4.926  -7.168  23.697  0.00  0.00    -0.480 OA
ATOM     15  H   UNK A   1       5.656  -6.501  23.623  0.00  0.00    +0.295 HD
ENDBRANCH  12  14
ENDBRANCH   8  12
ENDBRANCH   7   8
ENDBRANCH   6   7
ENDBRANCH   2   6
ENDBRANCH   1   3
BRANCH   1  16
ATOM     16  C   UNK A   1       7.870  -4.512  23.896  0.00  0.00    +0.235 C 
ATOM     17  N   GLY A   2       7.397  -5.575  23.154  0.00  0.00    -0.303 N 
ATOM     18  H   GLY A   2       7.332  -6.466  23.646  0.00  0.00    +0.149 HD
ATOM     19  O   UNK A   1       8.243  -3.472  23.359  0.00  0.00    -0.274 OA
BRANCH  17  20
ATOM     20  CA  GLY A   2       7.477  -5.593  21.700  0.00  0.00    +0.224 C 
BRANCH  20  21
ATOM     21  C   GLY A   2       6.147  -5.285  21.020  0.00  0.00    +0.322 C 
ATOM     22  OXT GLY A   2       5.788  -4.156  20.722  0.00  0.00    -0.249 OA
BRANCH  21  23
ATOM     23  O   GLY A   2       5.377  -6.374  20.777  0.00  0.00    -0.480 OA
ATOM     24  H   GLY A   2       5.708  -7.172  21.242  0.00  0.00    +0.295 HD
ENDBRANCH  21  23
ENDBRANCH  20  21
ENDBRANCH  17  20
ENDBRANCH   1  16
BRANCH   1  25
ATOM     25  C   UNK A   1       8.103  -3.245  26.031  0.00  0.00    +0.101 C 
BRANCH  25  26
ATOM     26  S   UNK A   1       6.642  -2.163  26.302  0.00  0.00    -0.147 S 
BRANCH  26  27
ATOM     27  C   UNK A   1       7.433  -0.472  26.163  0.00  0.00    +0.110 C 
ATOM     28  C   UNK A   1       6.404   0.571  25.783  0.00  0.00    -0.024 A 
ATOM     29  C   UNK A   1       6.428   1.194  24.519  0.00  0.00    -0.013 A 
ATOM     30  C   UNK A   1       5.373   2.084  24.225  0.00  0.00    +0.009 A 
ATOM     31  C   UNK A   1       4.347   2.350  25.139  0.00  0.00    +0.001 A 
ATOM     32  C   UNK A   1       4.359   1.753  26.390  0.00  0.00    +0.000 A 
ATOM     33  C   UNK A   1       7.542   0.937  23.571  0.00  0.00    -0.012 A 
ATOM     34  C   UNK A   1       8.677   0.207  23.979  0.00  0.00    -0.010 A 
ATOM     35  C   UNK A   1       9.791   0.082  23.120  0.00  0.00    +0.007 A 
ATOM     36  C   UNK A   1       9.769   0.606  21.833  0.00  0.00    +0.000 A 
ATOM     37  C   UNK A   1       8.630   1.256  21.386  0.00  0.00    +0.001 A 
ATOM     38  C   UNK A   1       7.540   1.427  22.247  0.00  0.00    +0.009 A 
ATOM     39  C   UNK A   1       5.385   0.876  26.713  0.00  0.00    +0.005 A 
ATOM     40  C   UNK A   1       8.731  -0.502  25.313  0.00  0.00    +0.162 C 
BRANCH  40  41
ATOM     41  O   UNK A   1       9.830   0.036  26.065  0.00  0.00    -0.386 OA
ATOM     42  H   UNK A   1       9.604   0.958  26.276  0.00  0.00    +0.210 HD
ENDBRANCH  40  41
ENDBRANCH  26  27
ENDBRANCH  25  26
ENDBRANCH   1  25
TORSDOF 15
ENDMDL
MODEL 6
REMARK VINA RESULT:      -6.7      2.166      3.217
REMARK  Name = 
REMARK  15 active torsions:
REMARK  status: ('A' for Active; 'I' for Inactive)
REMARK    1  A    between atoms: N_1  and  C_2
REMARK    2  A    between atoms: C_2  and  C_4
REMARK    3  A    between atoms: C_2  and  C_37
REMARK    4  A    between atoms: C_4  and  C_5
REMARK    5  A    between atoms: C_5  and  C_6
REMARK    6  A    between atoms: N_8  and  C_9
REMARK    7  A    between atoms: C_9  and  C_11
REMARK    8  A    between atoms: C_9  and  C_30
REMARK    9  A    between atoms: C_11  and  S_12
REMARK   10  A    between atoms: S_12  and  C_13
REMARK   11  A    between atoms: C_15  and  O_17
REMARK   12  A    between atoms: N_32  and  CA_33
REMARK   13  A    between atoms: CA_33  and  C_34
REMARK   14  A    between atoms: C_34  and  O_35
REMARK   15  A    between atoms: C_37  and  O_38
REMARK                            x       y       z     vdW  Elec       q    Type
REMARK                         _______ _______ _______ _____ _____    ______ ____
ROOT
ATOM      1  C   UNK A   1       9.202  -1.648  24.219  0.00  0.00    +0.169 C 
ENDROOT
BRANCH   1   3
ATOM      2  C   UNK A   1       9.137  -3.904  25.381  0.00  0.00    +0.214 C 
ATOM      3  N   UNK A   1       8.999  -2.541  25.372  0.00  0.00    -0.303 N 
ATOM      4  H   UNK A   1       8.446  -2.132  26.118  0.00  0.00    +0.149 HD
ATOM      5  O   UNK A   1       9.647  -4.533  24.457  0.00  0.00    -0.276 OA
BRANCH   2   6
ATOM      6  C   UNK A   1       8.677  -4.561  26.669  0.00  0.00    +0.098 C 
BRANCH   6   7
ATOM      7  C   UNK A   1       7.157  -4.454  26.844  0.00  0.00    +0.039 C 
BRANCH   7   8
ATOM      8  C   UNK A   1       6.354  -5.273  25.823  0.00  0.00    +0.161 C 
BRANCH   8   9
ATOM      9  N   UNK A   1       5.441  -4.430  24.996  0.00  0.00    -0.318 NA
ATOM     10  H   UNK A   1       5.723  -4.471  24.013  0.00  0.00    +0.119 HD
ATOM     11  H   UNK A   1       4.521  -4.884  24.996  0.00  0.00    +0.119 HD
ENDBRANCH   8   9
BRANCH   8  12
ATOM     12  C   UNK A   1       5.527  -6.365  26.526  0.00  0.00    +0.322 C 
ATOM     13  O   UNK A   1       4.577  -6.953  26.036  0.00  0.00    -0.249 OA
BRANCH  12  14
ATOM     14  O   UNK A   1       6.019  -6.635  27.764  0.00  0.00    -0.480 OA
ATOM     15  H   UNK A   1       5.295  -6.393  28.395  0.00  0.00    +0.295 HD
ENDBRANCH  12  14
ENDBRANCH   8  12
ENDBRANCH   7   8
ENDBRANCH   6   7
ENDBRANCH   2   6
ENDBRANCH   1   3
BRANCH   1  16
ATOM     16  C   UNK A   1       8.473  -2.060  22.925  0.00  0.00    +0.235 C 
ATOM     17  N   GLY A   2       7.266  -2.712  23.070  0.00  0.00    -0.303 N 
ATOM     18  H   GLY A   2       7.127  -3.197  23.956  0.00  0.00    +0.149 HD
ATOM     19  O   UNK A   1       8.866  -1.676  21.826  0.00  0.00    -0.274 OA
BRANCH  17  20
ATOM     20  CA  GLY A   2       6.478  -3.135  21.920  0.00  0.00    +0.224 C 
BRANCH  20  21
ATOM     21  C   GLY A   2       6.542  -4.638  21.668  0.00  0.00    +0.322 C 
ATOM     22  OXT GLY A   2       7.089  -5.426  22.425  0.00  0.00    -0.249 OA
BRANCH  21  23
ATOM     23  O   GLY A   2       5.945  -5.038  20.519  0.00  0.00    -0.480 OA
ATOM     24  H   GLY A   2       5.463  -4.307  20.078  0.00  0.00    +0.295 HD
ENDBRANCH  21  23
ENDBRANCH  20  21
ENDBRANCH  17  20
ENDBRANCH   1  16
BRANCH   1  25
ATOM     25  C   UNK A   1       8.920  -0.155  24.470  0.00  0.00    +0.101 C 
BRANCH  25  26
ATOM     26  S   UNK A   1      10.440   0.868  24.333  0.00  0.00    -0.147 S 
BRANCH  26  27
ATOM     27  C   UNK A   1       9.983   1.977  22.897  0.00  0.00    +0.110 C 
ATOM     28  C   UNK A   1      10.307   3.421  23.212  0.00  0.00    -0.024 A 
ATOM     29  C   UNK A   1       9.285   4.374  23.403  0.00  0.00    -0.013 A 
ATOM     30  C   UNK A   1       9.685   5.672  23.785  0.00  0.00    +0.009 A 
ATOM     31  C   UNK A   1      11.030   6.015  23.963  0.00  0.00    +0.001 A 
ATOM     32  C   UNK A   1      12.022   5.074  23.736  0.00  0.00    +0.000 A 
ATOM     33  C   UNK A   1       7.862   4.012  23.174  0.00  0.00    -0.012 A 
ATOM     34  C   UNK A   1       7.523   2.771  22.598  0.00  0.00    -0.010 A 
ATOM     35  C   UNK A   1       6.181   2.487  22.256  0.00  0.00    +0.007 A 
ATOM     36  C   UNK A   1       5.160   3.385  22.545  0.00  0.00    +0.000 A 
ATOM     37  C   UNK A   1       5.466   4.576  23.186  0.00  0.00    +0.001 A 
ATOM     38  C   UNK A   1       6.798   4.886  23.484  0.00  0.00    +0.009 A 
ATOM     39  C   UNK A   1      11.664   3.789  23.356  0.00  0.00    +0.005 A 
ATOM     40  C   UNK A   1       8.553   1.690  22.368  0.00  0.00    +0.162 C 
BRANCH  40  41
ATOM     41  O   UNK A   1       8.592   1.396  20.963  0.00  0.00    -0.386 OA
ATOM     42  H   UNK A   1       8.793   0.448  20.878  0.00  0.00    +0.210 HD
ENDBRANCH  40  41
ENDBRANCH  26  27
ENDBRANCH  25  26
ENDBRANCH   1  25
TORSDOF 15
ENDMDL
MODEL 7
REMARK VINA RESULT:      -6.7      2.166      4.958
REMARK  Name = 
REMARK  15 active torsions:
REMARK  status: ('A' for Active; 'I' for Inactive)
REMARK    1  A    between atoms: N_1  and  C_2
REMARK    2  A    between atoms: C_2  and  C_4
REMARK    3  A    between atoms: C_2  and  C_37
REMARK    4  A    between atoms: C_4  and  C_5
REMARK    5  A    between atoms: C_5  and  C_6
REMARK    6  A    between atoms: N_8  and  C_9
REMARK    7  A    between atoms: C_9  and  C_11
REMARK    8  A    between atoms: C_9  and  C_30
REMARK    9  A    between atoms: C_11  and  S_12
REMARK   10  A    between atoms: S_12  and  C_13
REMARK   11  A    between atoms: C_15  and  O_17
REMARK   12  A    between atoms: N_32  and  CA_33
REMARK   13  A    between atoms: CA_33  and  C_34
REMARK   14  A    between atoms: C_34  and  O_35
REMARK   15  A    between atoms: C_37  and  O_38
REMARK                            x       y       z     vdW  Elec       q    Type
REMARK                         _______ _______ _______ _____ _____    ______ ____
ROOT
ATOM      1  C   UNK A   1       5.181  -2.532  25.689  0.00  0.00    +0.169 C 
ENDROOT
BRANCH   1   3
ATOM      2  C   UNK A   1       6.929  -3.782  24.337  0.00  0.00    +0.214 C 
ATOM      3  N   UNK A   1       5.769  -3.061  24.447  0.00  0.00    -0.303 N 
ATOM      4  H   UNK A   1       5.431  -2.607  23.605  0.00  0.00    +0.149 HD
ATOM      5  O   UNK A   1       7.524  -4.248  25.306  0.00  0.00    -0.276 OA
BRANCH   2   6
ATOM      6  C   UNK A   1       7.370  -4.023  22.906  0.00  0.00    +0.098 C 
BRANCH   6   7
ATOM      7  C   UNK A   1       7.443  -5.522  22.585  0.00  0.00    +0.039 C 
BRANCH   7   8
ATOM      8  C   UNK A   1       6.227  -6.052  21.812  0.00  0.00    +0.161 C 
BRANCH   8   9
ATOM      9  N   UNK A   1       5.958  -5.284  20.560  0.00  0.00    -0.318 NA
ATOM     10  H   UNK A   1       6.379  -5.764  19.760  0.00  0.00    +0.119 HD
ATOM     11  H   UNK A   1       4.952  -5.350  20.370  0.00  0.00    +0.119 HD
ENDBRANCH   8   9
BRANCH   8  12
ATOM     12  C   UNK A   1       4.966  -6.027  22.694  0.00  0.00    +0.322 C 
ATOM     13  O   UNK A   1       4.119  -5.146  22.688  0.00  0.00    -0.249 OA
BRANCH  12  14
ATOM     14  O   UNK A   1       4.878  -7.145  23.461  0.00  0.00    -0.480 OA
ATOM     15  H   UNK A   1       5.393  -6.942  24.284  0.00  0.00    +0.295 HD
ENDBRANCH  12  14
ENDBRANCH   8  12
ENDBRANCH   7   8
ENDBRANCH   6   7
ENDBRANCH   2   6
ENDBRANCH   1   3
BRANCH   1  16
ATOM     16  C   UNK A   1       4.773  -3.590  26.733  0.00  0.00    +0.235 C 
ATOM     17  N   GLY A   2       5.754  -4.014  27.607  0.00  0.00    -0.303 N 
ATOM     18  H   GLY A   2       6.714  -3.904  27.283  0.00  0.00    +0.149 HD
ATOM     19  O   UNK A   1       3.597  -3.909  26.887  0.00  0.00    -0.274 OA
BRANCH  17  20
ATOM     20  CA  GLY A   2       5.483  -4.997  28.646  0.00  0.00    +0.224 C 
BRANCH  20  21
ATOM     21  C   GLY A   2       6.398  -6.216  28.574  0.00  0.00    +0.322 C 
ATOM     22  OXT GLY A   2       6.157  -7.273  29.137  0.00  0.00    -0.249 OA
BRANCH  21  23
ATOM     23  O   GLY A   2       7.519  -6.031  27.835  0.00  0.00    -0.480 OA
ATOM     24  H   GLY A   2       8.316  -6.392  28.276  0.00  0.00    +0.295 HD
ENDBRANCH  21  23
ENDBRANCH  20  21
ENDBRANCH  17  20
ENDBRANCH   1  16
BRANCH   1  25
ATOM     25  C   UNK A   1       6.000  -1.444  26.408  0.00  0.00    +0.101 C 
BRANCH  25  26
ATOM     26  S   UNK A   1       5.527   0.247  25.865  0.00  0.00    -0.147 S 
BRANCH  26  27
ATOM     27  C   UNK A   1       7.212   0.981  25.510  0.00  0.00    +0.110 C 
ATOM     28  C   UNK A   1       7.133   1.975  24.371  0.00  0.00    -0.024 A 
ATOM     29  C   UNK A   1       7.730   1.703  23.123  0.00  0.00    -0.013 A 
ATOM     30  C   UNK A   1       7.523   2.649  22.097  0.00  0.00    +0.009 A 
ATOM     31  C   UNK A   1       6.768   3.811  22.296  0.00  0.00    +0.001 A 
ATOM     32  C   UNK A   1       6.219   4.077  23.540  0.00  0.00    +0.000 A 
ATOM     33  C   UNK A   1       8.562   0.488  22.931  0.00  0.00    -0.012 A 
ATOM     34  C   UNK A   1       8.912  -0.321  24.031  0.00  0.00    -0.010 A 
ATOM     35  C   UNK A   1       9.814  -1.397  23.866  0.00  0.00    +0.007 A 
ATOM     36  C   UNK A   1      10.316  -1.728  22.613  0.00  0.00    +0.000 A 
ATOM     37  C   UNK A   1       9.917  -0.994  21.507  0.00  0.00    +0.001 A 
ATOM     38  C   UNK A   1       9.063   0.103  21.668  0.00  0.00    +0.009 A 
ATOM     39  C   UNK A   1       6.407   3.170  24.573  0.00  0.00    +0.005 A 
ATOM     40  C   UNK A   1       8.312  -0.107  25.401  0.00  0.00    +0.162 C 
BRANCH  40  41
ATOM     41  O   UNK A   1       9.379   0.171  26.322  0.00  0.00    -0.386 OA
ATOM     42  H   UNK A   1       9.932   0.860  25.914  0.00  0.00    +0.210 HD
ENDBRANCH  40  41
ENDBRANCH  26  27
ENDBRANCH  25  26
ENDBRANCH   1  25
TORSDOF 15
ENDMDL
MODEL 8
REMARK VINA RESULT:      -6.6      2.440      6.546
REMARK  Name = 
REMARK  15 active torsions:
REMARK  status: ('A' for Active; 'I' for Inactive)
REMARK    1  A    between atoms: N_1  and  C_2
REMARK    2  A    between atoms: C_2  and  C_4
REMARK    3  A    between atoms: C_2  and  C_37
REMARK    4  A    between atoms: C_4  and  C_5
REMARK    5  A    between atoms: C_5  and  C_6
REMARK    6  A    between atoms: N_8  and  C_9
REMARK    7  A    between atoms: C_9  and  C_11
REMARK    8  A    between atoms: C_9  and  C_30
REMARK    9  A    between atoms: C_11  and  S_12
REMARK   10  A    between atoms: S_12  and  C_13
REMARK   11  A    between atoms: C_15  and  O_17
REMARK   12  A    between atoms: N_32  and  CA_33
REMARK   13  A    between atoms: CA_33  and  C_34
REMARK   14  A    between atoms: C_34  and  O_35
REMARK   15  A    between atoms: C_37  and  O_38
REMARK                            x       y       z     vdW  Elec       q    Type
REMARK                         _______ _______ _______ _____ _____    ______ ____
ROOT
ATOM      1  C   UNK A   1       5.929  -2.021  25.832  0.00  0.00    +0.169 C 
ENDROOT
BRANCH   1   3
ATOM      2  C   UNK A   1       5.757   0.285  24.784  0.00  0.00    +0.214 C 
ATOM      3  N   UNK A   1       6.389  -0.915  24.976  0.00  0.00    -0.303 N 
ATOM      4  H   UNK A   1       7.066  -1.193  24.273  0.00  0.00    +0.149 HD
ATOM      5  O   UNK A   1       4.812   0.663  25.471  0.00  0.00    -0.276 OA
BRANCH   2   6
ATOM      6  C   UNK A   1       6.380   1.143  23.699  0.00  0.00    +0.098 C 
BRANCH   6   7
ATOM      7  C   UNK A   1       7.502   2.030  24.256  0.00  0.00    +0.039 C 
BRANCH   7   8
ATOM      8  C   UNK A   1       7.732   3.318  23.454  0.00  0.00    +0.161 C 
BRANCH   8   9
ATOM      9  N   UNK A   1       7.844   3.072  21.985  0.00  0.00    -0.318 NA
ATOM     10  H   UNK A   1       7.253   3.732  21.475  0.00  0.00    +0.119 HD
ATOM     11  H   UNK A   1       8.794   3.338  21.702  0.00  0.00    +0.119 HD
ENDBRANCH   8   9
BRANCH   8  12
ATOM     12  C   UNK A   1       9.000   4.044  23.937  0.00  0.00    +0.322 C 
ATOM     13  O   UNK A   1       9.068   4.762  24.923  0.00  0.00    -0.249 OA
BRANCH  12  14
ATOM     14  O   UNK A   1      10.068   3.748  23.151  0.00  0.00    -0.480 OA
ATOM     15  H   UNK A   1      10.424   4.622  22.848  0.00  0.00    +0.295 HD
ENDBRANCH  12  14
ENDBRANCH   8  12
ENDBRANCH   7   8
ENDBRANCH   6   7
ENDBRANCH   2   6
ENDBRANCH   1   3
BRANCH   1  16
ATOM     16  C   UNK A   1       5.039  -3.071  25.138  0.00  0.00    +0.235 C 
ATOM     17  N   GLY A   2       4.741  -4.210  25.858  0.00  0.00    -0.303 N 
ATOM     18  H   GLY A   2       5.399  -4.451  26.599  0.00  0.00    +0.149 HD
ATOM     19  O   UNK A   1       4.487  -2.827  24.067  0.00  0.00    -0.274 OA
BRANCH  17  20
ATOM     20  CA  GLY A   2       3.897  -5.264  25.313  0.00  0.00    +0.224 C 
BRANCH  20  21
ATOM     21  C   GLY A   2       4.515  -6.653  25.434  0.00  0.00    +0.322 C 
ATOM     22  OXT GLY A   2       4.252  -7.576  24.679  0.00  0.00    -0.249 OA
BRANCH  21  23
ATOM     23  O   GLY A   2       5.386  -6.790  26.464  0.00  0.00    -0.480 OA
ATOM     24  H   GLY A   2       5.314  -6.055  27.109  0.00  0.00    +0.295 HD
ENDBRANCH  21  23
ENDBRANCH  20  21
ENDBRANCH  17  20
ENDBRANCH   1  16
BRANCH   1  25
ATOM     25  C   UNK A   1       7.027  -2.766  26.613  0.00  0.00    +0.101 C 
BRANCH  25  26
ATOM     26  S   UNK A   1       8.646  -1.903  26.520  0.00  0.00    -0.147 S 
BRANCH  26  27
ATOM     27  C   UNK A   1       9.423  -2.780  25.061  0.00  0.00    +0.110 C 
ATOM     28  C   UNK A   1       9.463  -1.872  23.851  0.00  0.00    -0.024 A 
ATOM     29  C   UNK A   1       8.660  -2.125  22.720  0.00  0.00    -0.013 A 
ATOM     30  C   UNK A   1       8.700  -1.171  21.682  0.00  0.00    +0.009 A 
ATOM     31  C   UNK A   1       9.499  -0.024  21.753  0.00  0.00    +0.001 A 
ATOM     32  C   UNK A   1      10.308   0.190  22.858  0.00  0.00    +0.000 A 
ATOM     33  C   UNK A   1       7.845  -3.364  22.634  0.00  0.00    -0.012 A 
ATOM     34  C   UNK A   1       7.991  -4.385  23.596  0.00  0.00    -0.010 A 
ATOM     35  C   UNK A   1       7.316  -5.616  23.435  0.00  0.00    +0.007 A 
ATOM     36  C   UNK A   1       6.440  -5.824  22.376  0.00  0.00    +0.000 A 
ATOM     37  C   UNK A   1       6.222  -4.800  21.467  0.00  0.00    +0.001 A 
ATOM     38  C   UNK A   1       6.923  -3.596  21.591  0.00  0.00    +0.009 A 
ATOM     39  C   UNK A   1      10.297  -0.731  23.896  0.00  0.00    +0.005 A 
ATOM     40  C   UNK A   1       8.824  -4.194  24.842  0.00  0.00    +0.162 C 
BRANCH  40  41
ATOM     41  O   UNK A   1       9.867  -5.181  24.843  0.00  0.00    -0.386 OA
ATOM     42  H   UNK A   1       9.601  -5.872  25.474  0.00  0.00    +0.210 HD
ENDBRANCH  40  41
ENDBRANCH  26  27
ENDBRANCH  25  26
ENDBRANCH   1  25
TORSDOF 15
ENDMDL
MODEL 9
REMARK VINA RESULT:      -6.5      2.122      2.744
REMARK  Name = 
REMARK  15 active torsions:
REMARK  status: ('A' for Active; 'I' for Inactive)
REMARK    1  A    between atoms: N_1  and  C_2
REMARK    2  A    between atoms: C_2  and  C_4
REMARK    3  A    between atoms: C_2  and  C_37
REMARK    4  A    between atoms: C_4  and  C_5
REMARK    5  A    between atoms: C_5  and  C_6
REMARK    6  A    between atoms: N_8  and  C_9
REMARK    7  A    between atoms: C_9  and  C_11
REMARK    8  A    between atoms: C_9  and  C_30
REMARK    9  A    between atoms: C_11  and  S_12
REMARK   10  A    between atoms: S_12  and  C_13
REMARK   11  A    between atoms: C_15  and  O_17
REMARK   12  A    between atoms: N_32  and  CA_33
REMARK   13  A    between atoms: CA_33  and  C_34
REMARK   14  A    between atoms: C_34  and  O_35
REMARK   15  A    between atoms: C_37  and  O_38
REMARK                            x       y       z     vdW  Elec       q    Type
REMARK                         _______ _______ _______ _____ _____    ______ ____
ROOT
ATOM      1  C   UNK A   1       6.918  -4.991  23.154  0.00  0.00    +0.169 C 
ENDROOT
BRANCH   1   3
ATOM      2  C   UNK A   1       8.345  -5.094  25.251  0.00  0.00    +0.214 C 
ATOM      3  N   UNK A   1       7.149  -4.918  24.606  0.00  0.00    -0.303 N 
ATOM      4  H   UNK A   1       6.309  -5.028  25.163  0.00  0.00    +0.149 HD
ATOM      5  O   UNK A   1       9.424  -5.141  24.663  0.00  0.00    -0.276 OA
BRANCH   2   6
ATOM      6  C   UNK A   1       8.229  -5.145  26.762  0.00  0.00    +0.098 C 
BRANCH   6   7
ATOM      7  C   UNK A   1       6.827  -4.732  27.233  0.00  0.00    +0.039 C 
BRANCH   7   8
ATOM      8  C   UNK A   1       6.181  -5.728  28.206  0.00  0.00    +0.161 C 
BRANCH   8   9
ATOM      9  N   UNK A   1       7.158  -6.712  28.760  0.00  0.00    -0.318 NA
ATOM     10  H   UNK A   1       6.714  -7.270  29.494  0.00  0.00    +0.119 HD
ATOM     11  H   UNK A   1       7.349  -7.401  28.024  0.00  0.00    +0.119 HD
ENDBRANCH   8   9
BRANCH   8  12
ATOM     12  C   UNK A   1       5.032  -6.493  27.524  0.00  0.00    +0.322 C 
ATOM     13  O   UNK A   1       3.953  -6.745  28.035  0.00  0.00    -0.249 OA
BRANCH  12  14
ATOM     14  O   UNK A   1       5.350  -6.819  26.244  0.00  0.00    -0.480 OA
ATOM     15  H   UNK A   1       6.334  -6.715  26.181  0.00  0.00    +0.295 HD
ENDBRANCH  12  14
ENDBRANCH   8  12
ENDBRANCH   7   8
ENDBRANCH   6   7
ENDBRANCH   2   6
ENDBRANCH   1   3
BRANCH   1  16
ATOM     16  C   UNK A   1       5.515  -5.468  22.729  0.00  0.00    +0.235 C 
ATOM     17  N   GLY A   2       4.534  -5.462  23.699  0.00  0.00    -0.303 N 
ATOM     18  H   GLY A   2       4.863  -5.514  24.663  0.00  0.00    +0.149 HD
ATOM     19  O   UNK A   1       5.247  -5.677  21.548  0.00  0.00    -0.274 OA
BRANCH  17  20
ATOM     20  CA  GLY A   2       3.168  -5.874  23.412  0.00  0.00    +0.224 C 
BRANCH  20  21
ATOM     21  C   GLY A   2       2.903  -7.342  23.728  0.00  0.00    +0.322 C 
ATOM     22  OXT GLY A   2       3.414  -7.932  24.669  0.00  0.00    -0.249 OA
BRANCH  21  23
ATOM     23  O   GLY A   2       2.054  -7.956  22.868  0.00  0.00    -0.480 OA
ATOM     24  H   GLY A   2       1.197  -7.484  22.795  0.00  0.00    +0.295 HD
ENDBRANCH  21  23
ENDBRANCH  20  21
ENDBRANCH  17  20
ENDBRANCH   1  16
BRANCH   1  25
ATOM     25  C   UNK A   1       7.250  -3.716  22.357  0.00  0.00    +0.101 C 
BRANCH  25  26
ATOM     26  S   UNK A   1       6.459  -2.224  23.082  0.00  0.00    -0.147 S 
BRANCH  26  27
ATOM     27  C   UNK A   1       7.795  -1.665  24.268  0.00  0.00    +0.110 C 
ATOM     28  C   UNK A   1       7.202  -0.846  25.394  0.00  0.00    -0.024 A 
ATOM     29  C   UNK A   1       7.461   0.535  25.506  0.00  0.00    -0.013 A 
ATOM     30  C   UNK A   1       6.789   1.229  26.535  0.00  0.00    +0.009 A 
ATOM     31  C   UNK A   1       5.909   0.589  27.414  0.00  0.00    +0.001 A 
ATOM     32  C   UNK A   1       5.694  -0.776  27.310  0.00  0.00    +0.000 A 
ATOM     33  C   UNK A   1       8.427   1.200  24.594  0.00  0.00    -0.012 A 
ATOM     34  C   UNK A   1       9.227   0.437  23.719  0.00  0.00    -0.010 A 
ATOM     35  C   UNK A   1      10.238   1.060  22.953  0.00  0.00    +0.007 A 
ATOM     36  C   UNK A   1      10.418   2.438  22.985  0.00  0.00    +0.000 A 
ATOM     37  C   UNK A   1       9.586   3.212  23.778  0.00  0.00    +0.001 A 
ATOM     38  C   UNK A   1       8.614   2.599  24.577  0.00  0.00    +0.009 A 
ATOM     39  C   UNK A   1       6.343  -1.491  26.312  0.00  0.00    +0.005 A 
ATOM     40  C   UNK A   1       9.011  -1.046  23.531  0.00  0.00    +0.162 C 
BRANCH  40  41
ATOM     41  O   UNK A   1      10.219  -1.728  23.903  0.00  0.00    -0.386 OA
ATOM     42  H   UNK A   1      10.633  -2.040  23.079  0.00  0.00    +0.210 HD
ENDBRANCH  40  41
ENDBRANCH  26  27
ENDBRANCH  25  26
ENDBRANCH   1  25
TORSDOF 15
ENDMDL
