MODEL 1
REMARK VINA RESULT:      -6.5      0.000      0.000
REMARK  Name = 
REMARK  14 active torsions:
REMARK  status: ('A' for Active; 'I' for Inactive)
REMARK    1  A    between atoms: C_2  and  C_3
REMARK    2  A    between atoms: C_2  and  C_4
REMARK    3  A    between atoms: C_2  and  C_6
REMARK    4  A    between atoms: C_4  and  C_5
REMARK    5  A    between atoms: C_6  and  N_8
REMARK    6  A    between atoms: C_6  and  C_22
REMARK    7  A    between atoms: C_9  and  C_11
REMARK    8  A    between atoms: C_14  and  C_16
REMARK    9  A    between atoms: N_18  and  C_19
REMARK   10  A    between atoms: C_19  and  C_20
REMARK   11  A    between atoms: C_20  and  C_21
REMARK   12  A    between atoms: C_28  and  C_30
REMARK   13  A    between atoms: C_30  and  O_32
REMARK   14  A    between atoms: O_32  and  C_33
REMARK                            x       y       z     vdW  Elec       q    Type
REMARK                         _______ _______ _______ _____ _____    ______ ____
ROOT
ATOM      1  C   UNL     1       8.156  -1.571  24.695  0.00  0.00    +0.162 C 
ENDROOT
BRANCH   1   2
ATOM      2  C   UNL     1       7.020  -1.769  23.665  0.00  0.00    +0.237 C 
ATOM      3  N   UNL     1       6.503  -3.035  23.468  0.00  0.00    -0.286 N 
ATOM      4  C   UNL     1       6.828  -4.296  24.154  0.00  0.00    +0.185 C 
ATOM      5  C   UNL     1       5.546  -5.141  24.009  0.00  0.00    +0.035 C 
ATOM      6  C   UNL     1       4.587  -4.317  23.148  0.00  0.00    +0.021 C 
ATOM      7  C   UNL     1       5.457  -3.265  22.494  0.00  0.00    +0.109 C 
ATOM      8  O   UNL     1       6.571  -0.793  23.052  0.00  0.00    -0.274 OA
BRANCH   4   9
ATOM      9  C   UNL     1       7.998  -5.137  23.610  0.00  0.00    +0.328 C 
ATOM     10  O   UNL     1       7.906  -5.807  22.585  0.00  0.00    -0.249 OA
BRANCH   9  11
ATOM     11  O   UNL     1       9.132  -5.008  24.346  0.00  0.00    -0.467 OA
ATOM     12  C   UNL     1       8.945  -5.248  25.744  0.00  0.00    +0.280 C 
ENDBRANCH   9  11
ENDBRANCH   4   9
ENDBRANCH   1   2
BRANCH   1  13
ATOM     13  N   UNL     1       8.762  -0.249  24.478  0.00  0.00    -0.302 N 
ATOM     14  H   UNL     1       8.269   0.564  24.838  0.00  0.00    +0.150 HD
ATOM     15  C   UNL     1       9.844  -0.069  23.655  0.00  0.00    +0.246 C 
ATOM     16  O   UNL     1      10.396  -0.979  23.052  0.00  0.00    -0.273 OA
BRANCH  15  17
ATOM     17  C   UNL     1      10.361   1.305  23.519  0.00  0.00    +0.242 C 
ATOM     18  C   UNL     1       9.348   2.394  23.258  0.00  0.00    +0.242 C 
ATOM     19  O   UNL     1      10.259   1.954  22.232  0.00  0.00    -0.349 OA
BRANCH  18  20
ATOM     20  C   UNL     1       9.563   3.732  23.850  0.00  0.00    +0.245 C 
ATOM     21  N   UNL     1      10.514   4.503  23.231  0.00  0.00    -0.313 N 
ATOM     22  H   UNL     1      11.069   4.075  22.500  0.00  0.00    +0.149 HD
ATOM     23  O   UNL     1       8.891   4.092  24.806  0.00  0.00    -0.273 OA
BRANCH  21  24
ATOM     24  C   UNL     1      10.843   5.840  23.687  0.00  0.00    +0.104 C 
BRANCH  24  25
ATOM     25  C   UNL     1      12.334   6.021  23.960  0.00  0.00    +0.015 C 
ATOM     26  C   UNL     1      13.206   5.220  23.003  0.00  0.00    +0.005 C 
ENDBRANCH  24  25
ENDBRANCH  21  24
ENDBRANCH  18  20
ENDBRANCH  15  17
ENDBRANCH   1  13
BRANCH   1  27
ATOM     27  C   UNL     1       7.707  -1.757  26.173  0.00  0.00    +0.015 C 
ATOM     28  C   UNL     1       8.674  -0.988  27.090  0.00  0.00    +0.010 C 
BRANCH  27  29
ATOM     29  C   UNL     1       6.235  -1.358  26.428  0.00  0.00    +0.002 C 
ATOM     30  C   UNL     1       5.406  -2.473  27.066  0.00  0.00    +0.004 C 
ENDBRANCH  27  29
ENDBRANCH   1  27
TORSDOF 10
ENDMDL
MODEL 2
REMARK VINA RESULT:      -6.2      2.958      7.992
REMARK  Name = 
REMARK  14 active torsions:
REMARK  status: ('A' for Active; 'I' for Inactive)
REMARK    1  A    between atoms: C_2  and  C_3
REMARK    2  A    between atoms: C_2  and  C_4
REMARK    3  A    between atoms: C_2  and  C_6
REMARK    4  A    between atoms: C_4  and  C_5
REMARK    5  A    between atoms: C_6  and  N_8
REMARK    6  A    between atoms: C_6  and  C_22
REMARK    7  A    between atoms: C_9  and  C_11
REMARK    8  A    between atoms: C_14  and  C_16
REMARK    9  A    between atoms: N_18  and  C_19
REMARK   10  A    between atoms: C_19  and  C_20
REMARK   11  A    between atoms: C_20  and  C_21
REMARK   12  A    between atoms: C_28  and  C_30
REMARK   13  A    between atoms: C_30  and  O_32
REMARK   14  A    between atoms: O_32  and  C_33
REMARK                            x       y       z     vdW  Elec       q    Type
REMARK                         _______ _______ _______ _____ _____    ______ ____
ROOT
ATOM      1  C   UNL     1       6.789  -2.970  23.217  0.00  0.00    +0.162 C 
ENDROOT
BRANCH   1   2
ATOM      2  C   UNL     1       6.622  -1.463  23.521  0.00  0.00    +0.237 C 
ATOM      3  N   UNL     1       7.561  -0.571  23.041  0.00  0.00    -0.286 N 
ATOM      4  C   UNL     1       8.736  -0.817  22.188  0.00  0.00    +0.185 C 
ATOM      5  C   UNL     1       8.965   0.530  21.473  0.00  0.00    +0.035 C 
ATOM      6  C   UNL     1       7.937   1.503  22.052  0.00  0.00    +0.021 C 
ATOM      7  C   UNL     1       7.453   0.845  23.327  0.00  0.00    +0.109 C 
ATOM      8  O   UNL     1       5.640  -1.073  24.165  0.00  0.00    -0.274 OA
BRANCH   4   9
ATOM      9  C   UNL     1      10.059  -1.207  22.871  0.00  0.00    +0.328 C 
ATOM     10  O   UNL     1      10.431  -2.373  22.968  0.00  0.00    -0.249 OA
BRANCH   9  11
ATOM     11  O   UNL     1      10.776  -0.133  23.292  0.00  0.00    -0.467 OA
ATOM     12  C   UNL     1      10.667   0.121  24.696  0.00  0.00    +0.280 C 
ENDBRANCH   9  11
ENDBRANCH   4   9
ENDBRANCH   1   2
BRANCH   1  13
ATOM     13  N   UNL     1       6.897  -3.698  24.489  0.00  0.00    -0.302 N 
ATOM     14  H   UNL     1       6.358  -3.353  25.280  0.00  0.00    +0.150 HD
ATOM     15  C   UNL     1       7.829  -4.683  24.690  0.00  0.00    +0.246 C 
ATOM     16  O   UNL     1       8.629  -5.043  23.836  0.00  0.00    -0.273 OA
BRANCH  15  17
ATOM     17  C   UNL     1       7.838  -5.340  26.009  0.00  0.00    +0.242 C 
ATOM     18  C   UNL     1       6.997  -4.708  27.093  0.00  0.00    +0.242 C 
ATOM     19  O   UNL     1       8.436  -4.639  27.123  0.00  0.00    -0.349 OA
BRANCH  18  20
ATOM     20  C   UNL     1       6.323  -5.580  28.079  0.00  0.00    +0.245 C 
ATOM     21  N   UNL     1       4.967  -5.407  28.188  0.00  0.00    -0.313 N 
ATOM     22  H   UNL     1       4.545  -4.637  27.683  0.00  0.00    +0.149 HD
ATOM     23  O   UNL     1       6.971  -6.407  28.705  0.00  0.00    -0.273 OA
BRANCH  21  24
ATOM     24  C   UNL     1       4.159  -6.186  29.106  0.00  0.00    +0.104 C 
BRANCH  24  25
ATOM     25  C   UNL     1       2.921  -6.784  28.443  0.00  0.00    +0.015 C 
ATOM     26  C   UNL     1       2.952  -6.659  26.926  0.00  0.00    +0.005 C 
ENDBRANCH  24  25
ENDBRANCH  21  24
ENDBRANCH  18  20
ENDBRANCH  15  17
ENDBRANCH   1  13
BRANCH   1  27
ATOM     27  C   UNL     1       5.665  -3.559  22.316  0.00  0.00    +0.015 C 
ATOM     28  C   UNL     1       6.295  -4.527  21.300  0.00  0.00    +0.010 C 
BRANCH  27  29
ATOM     29  C   UNL     1       4.519  -4.227  23.111  0.00  0.00    +0.002 C 
ATOM     30  C   UNL     1       4.453  -5.742  22.923  0.00  0.00    +0.004 C 
ENDBRANCH  27  29
ENDBRANCH   1  27
TORSDOF 10
ENDMDL
MODEL 3
REMARK VINA RESULT:      -6.2      2.076      2.911
REMARK  Name = 
REMARK  14 active torsions:
REMARK  status: ('A' for Active; 'I' for Inactive)
REMARK    1  A    between atoms: C_2  and  C_3
REMARK    2  A    between atoms: C_2  and  C_4
REMARK    3  A    between atoms: C_2  and  C_6
REMARK    4  A    between atoms: C_4  and  C_5
REMARK    5  A    between atoms: C_6  and  N_8
REMARK    6  A    between atoms: C_6  and  C_22
REMARK    7  A    between atoms: C_9  and  C_11
REMARK    8  A    between atoms: C_14  and  C_16
REMARK    9  A    between atoms: N_18  and  C_19
REMARK   10  A    between atoms: C_19  and  C_20
REMARK   11  A    between atoms: C_20  and  C_21
REMARK   12  A    between atoms: C_28  and  C_30
REMARK   13  A    between atoms: C_30  and  O_32
REMARK   14  A    between atoms: O_32  and  C_33
REMARK                            x       y       z     vdW  Elec       q    Type
REMARK                         _______ _______ _______ _____ _____    ______ ____
ROOT
ATOM      1  C   UNL     1       7.776  -3.724  24.353  0.00  0.00    +0.162 C 
ENDROOT
BRANCH   1   2
ATOM      2  C   UNL     1       6.423  -3.079  24.734  0.00  0.00    +0.237 C 
ATOM      3  N   UNL     1       5.283  -3.860  24.743  0.00  0.00    -0.286 N 
ATOM      4  C   UNL     1       5.135  -5.303  24.491  0.00  0.00    +0.185 C 
ATOM      5  C   UNL     1       3.859  -5.686  25.268  0.00  0.00    +0.035 C 
ATOM      6  C   UNL     1       3.303  -4.385  25.847  0.00  0.00    +0.021 C 
ATOM      7  C   UNL     1       3.995  -3.286  25.069  0.00  0.00    +0.109 C 
ATOM      8  O   UNL     1       6.382  -1.884  25.052  0.00  0.00    -0.274 OA
BRANCH   4   9
ATOM      9  C   UNL     1       4.946  -5.769  23.036  0.00  0.00    +0.328 C 
ATOM     10  O   UNL     1       3.897  -5.602  22.421  0.00  0.00    -0.249 OA
BRANCH   9  11
ATOM     11  O   UNL     1       6.068  -6.320  22.505  0.00  0.00    -0.467 OA
ATOM     12  C   UNL     1       6.563  -5.631  21.353  0.00  0.00    +0.280 C 
ENDBRANCH   9  11
ENDBRANCH   4   9
ENDBRANCH   1   2
BRANCH   1  13
ATOM     13  N   UNL     1       8.749  -2.655  24.088  0.00  0.00    -0.302 N 
ATOM     14  H   UNL     1       9.199  -2.214  24.887  0.00  0.00    +0.150 HD
ATOM     15  C   UNL     1       8.917  -2.114  22.840  0.00  0.00    +0.246 C 
ATOM     16  O   UNL     1       8.291  -2.478  21.853  0.00  0.00    -0.273 OA
BRANCH  15  17
ATOM     17  C   UNL     1       9.925  -1.046  22.701  0.00  0.00    +0.242 C 
ATOM     18  C   UNL     1       9.441   0.375  22.862  0.00  0.00    +0.242 C 
ATOM     19  O   UNL     1       9.824  -0.147  21.575  0.00  0.00    -0.349 OA
BRANCH  18  20
ATOM     20  C   UNL     1      10.331   1.369  23.501  0.00  0.00    +0.245 C 
ATOM     21  N   UNL     1      10.408   2.583  22.866  0.00  0.00    -0.313 N 
ATOM     22  H   UNL     1       9.952   2.678  21.967  0.00  0.00    +0.149 HD
ATOM     23  O   UNL     1      10.911   1.089  24.541  0.00  0.00    -0.273 OA
BRANCH  21  24
ATOM     24  C   UNL     1      11.234   3.665  23.366  0.00  0.00    +0.104 C 
BRANCH  24  25
ATOM     25  C   UNL     1      10.427   4.915  23.705  0.00  0.00    +0.015 C 
ATOM     26  C   UNL     1      11.305   6.073  24.160  0.00  0.00    +0.005 C 
ENDBRANCH  24  25
ENDBRANCH  21  24
ENDBRANCH  18  20
ENDBRANCH  15  17
ENDBRANCH   1  13
BRANCH   1  27
ATOM     27  C   UNL     1       8.312  -4.735  25.407  0.00  0.00    +0.015 C 
ATOM     28  C   UNL     1       9.835  -4.868  25.243  0.00  0.00    +0.010 C 
BRANCH  27  29
ATOM     29  C   UNL     1       7.920  -4.381  26.860  0.00  0.00    +0.002 C 
ATOM     30  C   UNL     1       7.067  -5.454  27.537  0.00  0.00    +0.004 C 
ENDBRANCH  27  29
ENDBRANCH   1  27
TORSDOF 10
ENDMDL
MODEL 4
REMARK VINA RESULT:      -6.1      2.014      8.687
REMARK  Name = 
REMARK  14 active torsions:
REMARK  status: ('A' for Active; 'I' for Inactive)
REMARK    1  A    between atoms: C_2  and  C_3
REMARK    2  A    between atoms: C_2  and  C_4
REMARK    3  A    between atoms: C_2  and  C_6
REMARK    4  A    between atoms: C_4  and  C_5
REMARK    5  A    between atoms: C_6  and  N_8
REMARK    6  A    between atoms: C_6  and  C_22
REMARK    7  A    between atoms: C_9  and  C_11
REMARK    8  A    between atoms: C_14  and  C_16
REMARK    9  A    between atoms: N_18  and  C_19
REMARK   10  A    between atoms: C_19  and  C_20
REMARK   11  A    between atoms: C_20  and  C_21
REMARK   12  A    between atoms: C_28  and  C_30
REMARK   13  A    between atoms: C_30  and  O_32
REMARK   14  A    between atoms: O_32  and  C_33
REMARK                            x       y       z     vdW  Elec       q    Type
REMARK                         _______ _______ _______ _____ _____    ______ ____
ROOT
ATOM      1  C   UNL     1       9.184   2.434  24.240  0.00  0.00    +0.162 C 
ENDROOT
BRANCH   1   2
ATOM      2  C   UNL     1       8.503   3.501  25.129  0.00  0.00    +0.237 C 
ATOM      3  N   UNL     1       8.741   4.839  24.878  0.00  0.00    -0.286 N 
ATOM      4  C   UNL     1       9.537   5.463  23.808  0.00  0.00    +0.185 C 
ATOM      5  C   UNL     1       8.908   6.861  23.644  0.00  0.00    +0.035 C 
ATOM      6  C   UNL     1       7.829   6.974  24.721  0.00  0.00    +0.021 C 
ATOM      7  C   UNL     1       8.143   5.866  25.704  0.00  0.00    +0.109 C 
ATOM      8  O   UNL     1       7.734   3.147  26.031  0.00  0.00    -0.274 OA
BRANCH   4   9
ATOM      9  C   UNL     1      11.045   5.663  24.049  0.00  0.00    +0.328 C 
ATOM     10  O   UNL     1      11.483   6.526  24.804  0.00  0.00    -0.249 OA
BRANCH   9  11
ATOM     11  O   UNL     1      11.812   4.756  23.391  0.00  0.00    -0.467 OA
ATOM     12  C   UNL     1      12.858   5.342  22.609  0.00  0.00    +0.280 C 
ENDBRANCH   9  11
ENDBRANCH   4   9
ENDBRANCH   1   2
BRANCH   1  13
ATOM     13  N   UNL     1       8.682   1.109  24.628  0.00  0.00    -0.302 N 
ATOM     14  H   UNL     1       7.678   0.997  24.747  0.00  0.00    +0.150 HD
ATOM     15  C   UNL     1       9.520   0.096  25.017  0.00  0.00    +0.246 C 
ATOM     16  O   UNL     1      10.739   0.204  25.061  0.00  0.00    -0.273 OA
BRANCH  15  17
ATOM     17  C   UNL     1       8.896  -1.189  25.383  0.00  0.00    +0.242 C 
ATOM     18  C   UNL     1       8.050  -1.862  24.328  0.00  0.00    +0.242 C 
ATOM     19  O   UNL     1       7.457  -1.249  25.489  0.00  0.00    -0.349 OA
BRANCH  18  20
ATOM     20  C   UNL     1       8.047  -3.339  24.245  0.00  0.00    +0.245 C 
ATOM     21  N   UNL     1       6.813  -3.930  24.343  0.00  0.00    -0.313 N 
ATOM     22  H   UNL     1       6.022  -3.342  24.573  0.00  0.00    +0.149 HD
ATOM     23  O   UNL     1       9.096  -3.942  24.068  0.00  0.00    -0.273 OA
BRANCH  21  24
ATOM     24  C   UNL     1       6.638  -5.368  24.278  0.00  0.00    +0.104 C 
BRANCH  24  25
ATOM     25  C   UNL     1       6.002  -5.827  22.968  0.00  0.00    +0.015 C 
ATOM     26  C   UNL     1       7.025  -6.019  21.857  0.00  0.00    +0.005 C 
ENDBRANCH  24  25
ENDBRANCH  21  24
ENDBRANCH  18  20
ENDBRANCH  15  17
ENDBRANCH   1  13
BRANCH   1  27
ATOM     27  C   UNL     1       9.016   2.684  22.714  0.00  0.00    +0.015 C 
ATOM     28  C   UNL     1      10.080   1.874  21.954  0.00  0.00    +0.010 C 
BRANCH  27  29
ATOM     29  C   UNL     1       7.590   2.390  22.191  0.00  0.00    +0.002 C 
ATOM     30  C   UNL     1       6.703   3.632  22.118  0.00  0.00    +0.004 C 
ENDBRANCH  27  29
ENDBRANCH   1  27
TORSDOF 10
ENDMDL
MODEL 5
REMARK VINA RESULT:      -6.1      1.831      2.709
REMARK  Name = 
REMARK  14 active torsions:
REMARK  status: ('A' for Active; 'I' for Inactive)
REMARK    1  A    between atoms: C_2  and  C_3
REMARK    2  A    between atoms: C_2  and  C_4
REMARK    3  A    between atoms: C_2  and  C_6
REMARK    4  A    between atoms: C_4  and  C_5
REMARK    5  A    between atoms: C_6  and  N_8
REMARK    6  A    between atoms: C_6  and  C_22
REMARK    7  A    between atoms: C_9  and  C_11
REMARK    8  A    between atoms: C_14  and  C_16
REMARK    9  A    between atoms: N_18  and  C_19
REMARK   10  A    between atoms: C_19  and  C_20
REMARK   11  A    between atoms: C_20  and  C_21
REMARK   12  A    between atoms: C_28  and  C_30
REMARK   13  A    between atoms: C_30  and  O_32
REMARK   14  A    between atoms: O_32  and  C_33
REMARK                            x       y       z     vdW  Elec       q    Type
REMARK                         _______ _______ _______ _____ _____    ______ ____
ROOT
ATOM      1  C   UNL     1       7.526  -0.922  23.735  0.00  0.00    +0.162 C 
ENDROOT
BRANCH   1   2
ATOM      2  C   UNL     1       6.177  -1.412  24.312  0.00  0.00    +0.237 C 
ATOM      3  N   UNL     1       5.853  -2.752  24.222  0.00  0.00    -0.286 N 
ATOM      4  C   UNL     1       6.645  -3.873  23.690  0.00  0.00    +0.185 C 
ATOM      5  C   UNL     1       6.097  -5.104  24.438  0.00  0.00    +0.035 C 
ATOM      6  C   UNL     1       4.939  -4.601  25.300  0.00  0.00    +0.021 C 
ATOM      7  C   UNL     1       4.589  -3.244  24.727  0.00  0.00    +0.109 C 
ATOM      8  O   UNL     1       5.420  -0.607  24.869  0.00  0.00    -0.274 OA
BRANCH   4   9
ATOM      9  C   UNL     1       6.555  -4.172  22.182  0.00  0.00    +0.328 C 
ATOM     10  O   UNL     1       6.215  -3.325  21.361  0.00  0.00    -0.249 OA
BRANCH   9  11
ATOM     11  O   UNL     1       6.942  -5.436  21.868  0.00  0.00    -0.467 OA
ATOM     12  C   UNL     1       6.202  -6.016  20.789  0.00  0.00    +0.280 C 
ENDBRANCH   9  11
ENDBRANCH   4   9
ENDBRANCH   1   2
BRANCH   1  13
ATOM     13  N   UNL     1       7.419   0.515  23.444  0.00  0.00    -0.302 N 
ATOM     14  H   UNL     1       6.751   1.060  23.983  0.00  0.00    +0.150 HD
ATOM     15  C   UNL     1       8.034   1.088  22.361  0.00  0.00    +0.246 C 
ATOM     16  O   UNL     1       8.724   0.465  21.565  0.00  0.00    -0.273 OA
BRANCH  15  17
ATOM     17  C   UNL     1       7.852   2.540  22.176  0.00  0.00    +0.242 C 
ATOM     18  C   UNL     1       8.001   3.408  23.402  0.00  0.00    +0.242 C 
ATOM     19  O   UNL     1       6.714   3.175  22.799  0.00  0.00    -0.349 OA
BRANCH  18  20
ATOM     20  C   UNL     1       8.600   4.753  23.260  0.00  0.00    +0.245 C 
ATOM     21  N   UNL     1       9.884   4.877  23.727  0.00  0.00    -0.313 N 
ATOM     22  H   UNL     1      10.285   4.092  24.226  0.00  0.00    +0.149 HD
ATOM     23  O   UNL     1       7.964   5.651  22.726  0.00  0.00    -0.273 OA
BRANCH  21  24
ATOM     24  C   UNL     1      10.614   6.128  23.659  0.00  0.00    +0.104 C 
BRANCH  24  25
ATOM     25  C   UNL     1      12.093   5.969  24.002  0.00  0.00    +0.015 C 
ATOM     26  C   UNL     1      12.777   4.899  23.163  0.00  0.00    +0.005 C 
ENDBRANCH  24  25
ENDBRANCH  21  24
ENDBRANCH  18  20
ENDBRANCH  15  17
ENDBRANCH   1  13
BRANCH   1  27
ATOM     27  C   UNL     1       8.749  -1.230  24.645  0.00  0.00    +0.015 C 
ATOM     28  C   UNL     1       9.812  -1.973  23.819  0.00  0.00    +0.010 C 
BRANCH  27  29
ATOM     29  C   UNL     1       9.335   0.020  25.342  0.00  0.00    +0.002 C 
ATOM     30  C   UNL     1      10.714   0.418  24.816  0.00  0.00    +0.004 C 
ENDBRANCH  27  29
ENDBRANCH   1  27
TORSDOF 10
ENDMDL
MODEL 6
REMARK VINA RESULT:      -6.1      2.338      3.930
REMARK  Name = 
REMARK  14 active torsions:
REMARK  status: ('A' for Active; 'I' for Inactive)
REMARK    1  A    between atoms: C_2  and  C_3
REMARK    2  A    between atoms: C_2  and  C_4
REMARK    3  A    between atoms: C_2  and  C_6
REMARK    4  A    between atoms: C_4  and  C_5
REMARK    5  A    between atoms: C_6  and  N_8
REMARK    6  A    between atoms: C_6  and  C_22
REMARK    7  A    between atoms: C_9  and  C_11
REMARK    8  A    between atoms: C_14  and  C_16
REMARK    9  A    between atoms: N_18  and  C_19
REMARK   10  A    between atoms: C_19  and  C_20
REMARK   11  A    between atoms: C_20  and  C_21
REMARK   12  A    between atoms: C_28  and  C_30
REMARK   13  A    between atoms: C_30  and  O_32
REMARK   14  A    between atoms: O_32  and  C_33
REMARK                            x       y       z     vdW  Elec       q    Type
REMARK                         _______ _______ _______ _____ _____    ______ ____
ROOT
ATOM      1  C   UNL     1       6.038  -4.657  26.175  0.00  0.00    +0.162 C 
ENDROOT
BRANCH   1   2
ATOM      2  C   UNL     1       5.198  -4.899  24.900  0.00  0.00    +0.237 C 
ATOM      3  N   UNL     1       5.843  -5.052  23.687  0.00  0.00    -0.286 N 
ATOM      4  C   UNL     1       7.284  -5.081  23.390  0.00  0.00    +0.185 C 
ATOM      5  C   UNL     1       7.381  -5.909  22.094  0.00  0.00    +0.035 C 
ATOM      6  C   UNL     1       5.943  -6.225  21.680  0.00  0.00    +0.021 C 
ATOM      7  C   UNL     1       5.089  -5.254  22.467  0.00  0.00    +0.109 C 
ATOM      8  O   UNL     1       3.966  -4.982  24.984  0.00  0.00    -0.274 OA
BRANCH   4   9
ATOM      9  C   UNL     1       7.999  -3.741  23.135  0.00  0.00    +0.328 C 
ATOM     10  O   UNL     1       9.093  -3.474  23.625  0.00  0.00    -0.249 OA
BRANCH   9  11
ATOM     11  O   UNL     1       7.322  -2.932  22.280  0.00  0.00    -0.467 OA
ATOM     12  C   UNL     1       6.758  -1.774  22.903  0.00  0.00    +0.280 C 
ENDBRANCH   9  11
ENDBRANCH   4   9
ENDBRANCH   1   2
BRANCH   1  13
ATOM     13  N   UNL     1       6.350  -3.223  26.267  0.00  0.00    -0.302 N 
ATOM     14  H   UNL     1       5.664  -2.564  25.907  0.00  0.00    +0.150 HD
ATOM     15  C   UNL     1       7.589  -2.768  26.635  0.00  0.00    +0.246 C 
ATOM     16  O   UNL     1       8.523  -3.504  26.926  0.00  0.00    -0.273 OA
BRANCH  15  17
ATOM     17  C   UNL     1       7.778  -1.307  26.692  0.00  0.00    +0.242 C 
ATOM     18  C   UNL     1       8.844  -0.721  25.795  0.00  0.00    +0.242 C 
ATOM     19  O   UNL     1       9.020  -0.794  27.223  0.00  0.00    -0.349 OA
BRANCH  18  20
ATOM     20  C   UNL     1       8.620   0.610  25.191  0.00  0.00    +0.245 C 
ATOM     21  N   UNL     1       9.757   1.314  24.882  0.00  0.00    -0.313 N 
ATOM     22  H   UNL     1      10.646   0.934  25.184  0.00  0.00    +0.149 HD
ATOM     23  O   UNL     1       7.482   0.997  24.971  0.00  0.00    -0.273 OA
BRANCH  21  24
ATOM     24  C   UNL     1       9.711   2.633  24.282  0.00  0.00    +0.104 C 
BRANCH  24  25
ATOM     25  C   UNL     1      10.395   2.685  22.918  0.00  0.00    +0.015 C 
ATOM     26  C   UNL     1       9.942   1.565  21.992  0.00  0.00    +0.005 C 
ENDBRANCH  24  25
ENDBRANCH  21  24
ENDBRANCH  18  20
ENDBRANCH  15  17
ENDBRANCH   1  13
BRANCH   1  27
ATOM     27  C   UNL     1       5.370  -5.181  27.479  0.00  0.00    +0.015 C 
ATOM     28  C   UNL     1       6.408  -5.978  28.286  0.00  0.00    +0.010 C 
BRANCH  27  29
ATOM     29  C   UNL     1       4.713  -4.069  28.329  0.00  0.00    +0.002 C 
ATOM     30  C   UNL     1       3.186  -4.139  28.343  0.00  0.00    +0.004 C 
ENDBRANCH  27  29
ENDBRANCH   1  27
TORSDOF 10
ENDMDL
MODEL 7
REMARK VINA RESULT:      -6.0      2.299      3.565
REMARK  Name = 
REMARK  14 active torsions:
REMARK  status: ('A' for Active; 'I' for Inactive)
REMARK    1  A    between atoms: C_2  and  C_3
REMARK    2  A    between atoms: C_2  and  C_4
REMARK    3  A    between atoms: C_2  and  C_6
REMARK    4  A    between atoms: C_4  and  C_5
REMARK    5  A    between atoms: C_6  and  N_8
REMARK    6  A    between atoms: C_6  and  C_22
REMARK    7  A    between atoms: C_9  and  C_11
REMARK    8  A    between atoms: C_14  and  C_16
REMARK    9  A    between atoms: N_18  and  C_19
REMARK   10  A    between atoms: C_19  and  C_20
REMARK   11  A    between atoms: C_20  and  C_21
REMARK   12  A    between atoms: C_28  and  C_30
REMARK   13  A    between atoms: C_30  and  O_32
REMARK   14  A    between atoms: O_32  and  C_33
REMARK                            x       y       z     vdW  Elec       q    Type
REMARK                         _______ _______ _______ _____ _____    ______ ____
ROOT
ATOM      1  C   UNL     1       7.221  -3.516  25.431  0.00  0.00    +0.162 C 
ENDROOT
BRANCH   1   2
ATOM      2  C   UNL     1       5.753  -3.080  25.647  0.00  0.00    +0.237 C 
ATOM      3  N   UNL     1       4.752  -3.708  24.932  0.00  0.00    -0.286 N 
ATOM      4  C   UNL     1       4.842  -4.830  23.982  0.00  0.00    +0.185 C 
ATOM      5  C   UNL     1       3.448  -5.486  24.048  0.00  0.00    +0.035 C 
ATOM      6  C   UNL     1       2.609  -4.616  24.984  0.00  0.00    +0.021 C 
ATOM      7  C   UNL     1       3.369  -3.310  25.087  0.00  0.00    +0.109 C 
ATOM      8  O   UNL     1       5.491  -2.198  26.474  0.00  0.00    -0.274 OA
BRANCH   4   9
ATOM      9  C   UNL     1       5.130  -4.507  22.504  0.00  0.00    +0.328 C 
ATOM     10  O   UNL     1       5.184  -3.356  22.080  0.00  0.00    -0.249 OA
BRANCH   9  11
ATOM     11  O   UNL     1       5.369  -5.615  21.756  0.00  0.00    -0.467 OA
ATOM     12  C   UNL     1       6.663  -6.188  21.968  0.00  0.00    +0.280 C 
ENDBRANCH   9  11
ENDBRANCH   4   9
ENDBRANCH   1   2
BRANCH   1  13
ATOM     13  N   UNL     1       7.992  -2.358  24.958  0.00  0.00    -0.302 N 
ATOM     14  H   UNL     1       8.004  -1.525  25.541  0.00  0.00    +0.150 HD
ATOM     15  C   UNL     1       8.517  -2.299  23.693  0.00  0.00    +0.246 C 
ATOM     16  O   UNL     1       8.402  -3.196  22.868  0.00  0.00    -0.273 OA
BRANCH  15  17
ATOM     17  C   UNL     1       9.270  -1.083  23.335  0.00  0.00    +0.242 C 
ATOM     18  C   UNL     1       8.869  -0.381  22.059  0.00  0.00    +0.242 C 
ATOM     19  O   UNL     1      10.106  -1.113  22.157  0.00  0.00    -0.349 OA
BRANCH  18  20
ATOM     20  C   UNL     1       8.939   1.095  21.999  0.00  0.00    +0.245 C 
ATOM     21  N   UNL     1       7.747   1.748  22.185  0.00  0.00    -0.313 N 
ATOM     22  H   UNL     1       6.904   1.190  22.236  0.00  0.00    +0.149 HD
ATOM     23  O   UNL     1      10.016   1.648  21.827  0.00  0.00    -0.273 OA
BRANCH  21  24
ATOM     24  C   UNL     1       7.646   3.195  22.158  0.00  0.00    +0.104 C 
BRANCH  24  25
ATOM     25  C   UNL     1       7.763   3.820  23.546  0.00  0.00    +0.015 C 
ATOM     26  C   UNL     1       9.118   4.473  23.781  0.00  0.00    +0.005 C 
ENDBRANCH  24  25
ENDBRANCH  21  24
ENDBRANCH  18  20
ENDBRANCH  15  17
ENDBRANCH   1  13
BRANCH   1  27
ATOM     27  C   UNL     1       7.877  -4.163  26.685  0.00  0.00    +0.015 C 
ATOM     28  C   UNL     1       6.972  -5.298  27.193  0.00  0.00    +0.010 C 
BRANCH  27  29
ATOM     29  C   UNL     1       9.326  -4.648  26.447  0.00  0.00    +0.002 C 
ATOM     30  C   UNL     1       9.464  -5.579  25.243  0.00  0.00    +0.004 C 
ENDBRANCH  27  29
ENDBRANCH   1  27
TORSDOF 10
ENDMDL
MODEL 8
REMARK VINA RESULT:      -5.9      1.927      2.997
REMARK  Name = 
REMARK  14 active torsions:
REMARK  status: ('A' for Active; 'I' for Inactive)
REMARK    1  A    between atoms: C_2  and  C_3
REMARK    2  A    between atoms: C_2  and  C_4
REMARK    3  A    between atoms: C_2  and  C_6
REMARK    4  A    between atoms: C_4  and  C_5
REMARK    5  A    between atoms: C_6  and  N_8
REMARK    6  A    between atoms: C_6  and  C_22
REMARK    7  A    between atoms: C_9  and  C_11
REMARK    8  A    between atoms: C_14  and  C_16
REMARK    9  A    between atoms: N_18  and  C_19
REMARK   10  A    between atoms: C_19  and  C_20
REMARK   11  A    between atoms: C_20  and  C_21
REMARK   12  A    between atoms: C_28  and  C_30
REMARK   13  A    between atoms: C_30  and  O_32
REMARK   14  A    between atoms: O_32  and  C_33
REMARK                            x       y       z     vdW  Elec       q    Type
REMARK                         _______ _______ _______ _____ _____    ______ ____
ROOT
ATOM      1  C   UNL     1       7.452  -2.383  24.473  0.00  0.00    +0.162 C 
ENDROOT
BRANCH   1   2
ATOM      2  C   UNL     1       6.518  -2.860  25.609  0.00  0.00    +0.237 C 
ATOM      3  N   UNL     1       5.694  -3.947  25.393  0.00  0.00    -0.286 N 
ATOM      4  C   UNL     1       5.585  -4.820  24.212  0.00  0.00    +0.185 C 
ATOM      5  C   UNL     1       5.058  -6.152  24.781  0.00  0.00    +0.035 C 
ATOM      6  C   UNL     1       4.807  -5.913  26.270  0.00  0.00    +0.021 C 
ATOM      7  C   UNL     1       4.786  -4.406  26.424  0.00  0.00    +0.109 C 
ATOM      8  O   UNL     1       6.540  -2.282  26.703  0.00  0.00    -0.274 OA
BRANCH   4   9
ATOM      9  C   UNL     1       4.633  -4.393  23.080  0.00  0.00    +0.328 C 
ATOM     10  O   UNL     1       3.471  -4.783  23.015  0.00  0.00    -0.249 OA
BRANCH   9  11
ATOM     11  O   UNL     1       5.198  -3.510  22.216  0.00  0.00    -0.467 OA
ATOM     12  C   UNL     1       6.237  -4.073  21.410  0.00  0.00    +0.280 C 
ENDBRANCH   9  11
ENDBRANCH   4   9
ENDBRANCH   1   2
BRANCH   1  13
ATOM     13  N   UNL     1       7.909  -1.021  24.780  0.00  0.00    -0.302 N 
ATOM     14  H   UNL     1       8.403  -0.872  25.656  0.00  0.00    +0.150 HD
ATOM     15  C   UNL     1       7.527   0.063  24.032  0.00  0.00    +0.246 C 
ATOM     16  O   UNL     1       6.795  -0.013  23.053  0.00  0.00    -0.273 OA
BRANCH  15  17
ATOM     17  C   UNL     1       8.052   1.379  24.440  0.00  0.00    +0.242 C 
ATOM     18  C   UNL     1       9.105   1.999  23.552  0.00  0.00    +0.242 C 
ATOM     19  O   UNL     1       9.434   1.470  24.851  0.00  0.00    -0.349 OA
BRANCH  18  20
ATOM     20  C   UNL     1       9.121   3.467  23.376  0.00  0.00    +0.245 C 
ATOM     21  N   UNL     1      10.308   4.083  23.683  0.00  0.00    -0.313 N 
ATOM     22  H   UNL     1      11.038   3.522  24.105  0.00  0.00    +0.149 HD
ATOM     23  O   UNL     1       8.129   4.042  22.951  0.00  0.00    -0.273 OA
BRANCH  21  24
ATOM     24  C   UNL     1      10.489   5.517  23.561  0.00  0.00    +0.104 C 
BRANCH  24  25
ATOM     25  C   UNL     1      11.913   5.962  23.887  0.00  0.00    +0.015 C 
ATOM     26  C   UNL     1      12.943   5.375  22.931  0.00  0.00    +0.005 C 
ENDBRANCH  24  25
ENDBRANCH  21  24
ENDBRANCH  18  20
ENDBRANCH  15  17
ENDBRANCH   1  13
BRANCH   1  27
ATOM     27  C   UNL     1       8.649  -3.339  24.199  0.00  0.00    +0.015 C 
ATOM     28  C   UNL     1       9.800  -2.531  23.575  0.00  0.00    +0.010 C 
BRANCH  27  29
ATOM     29  C   UNL     1       9.111  -4.128  25.445  0.00  0.00    +0.002 C 
ATOM     30  C   UNL     1       9.155  -5.639  25.225  0.00  0.00    +0.004 C 
ENDBRANCH  27  29
ENDBRANCH   1  27
TORSDOF 10
ENDMDL
MODEL 9
REMARK VINA RESULT:      -5.9      2.618      8.126
REMARK  Name = 
REMARK  14 active torsions:
REMARK  status: ('A' for Active; 'I' for Inactive)
REMARK    1  A    between atoms: C_2  and  C_3
REMARK    2  A    between atoms: C_2  and  C_4
REMARK    3  A    between atoms: C_2  and  C_6
REMARK    4  A    between atoms: C_4  and  C_5
REMARK    5  A    between atoms: C_6  and  N_8
REMARK    6  A    between atoms: C_6  and  C_22
REMARK    7  A    between atoms: C_9  and  C_11
REMARK    8  A    between atoms: C_14  and  C_16
REMARK    9  A    between atoms: N_18  and  C_19
REMARK   10  A    between atoms: C_19  and  C_20
REMARK   11  A    between atoms: C_20  and  C_21
REMARK   12  A    between atoms: C_28  and  C_30
REMARK   13  A    between atoms: C_30  and  O_32
REMARK   14  A    between atoms: O_32  and  C_33
REMARK                            x       y       z     vdW  Elec       q    Type
REMARK                         _______ _______ _______ _____ _____    ______ ____
ROOT
ATOM      1  C   UNL     1       8.504   0.339  24.635  0.00  0.00    +0.162 C 
ENDROOT
BRANCH   1   2
ATOM      2  C   UNL     1       7.163   0.917  24.126  0.00  0.00    +0.237 C 
ATOM      3  N   UNL     1       7.079   2.263  23.828  0.00  0.00    -0.286 N 
ATOM      4  C   UNL     1       8.127   3.296  23.860  0.00  0.00    +0.185 C 
ATOM      5  C   UNL     1       7.643   4.348  22.841  0.00  0.00    +0.035 C 
ATOM      6  C   UNL     1       6.272   3.875  22.356  0.00  0.00    +0.021 C 
ATOM      7  C   UNL     1       5.833   2.845  23.374  0.00  0.00    +0.109 C 
ATOM      8  O   UNL     1       6.194   0.164  23.966  0.00  0.00    -0.274 OA
BRANCH   4   9
ATOM      9  C   UNL     1       8.384   4.027  25.190  0.00  0.00    +0.328 C 
ATOM     10  O   UNL     1       7.939   3.623  26.261  0.00  0.00    -0.249 OA
BRANCH   9  11
ATOM     11  O   UNL     1       9.190   5.111  25.053  0.00  0.00    -0.467 OA
ATOM     12  C   UNL     1       8.898   6.169  25.971  0.00  0.00    +0.280 C 
ENDBRANCH   9  11
ENDBRANCH   4   9
ENDBRANCH   1   2
BRANCH   1  13
ATOM     13  N   UNL     1       8.384  -1.123  24.723  0.00  0.00    -0.302 N 
ATOM     14  H   UNL     1       8.018  -1.619  23.914  0.00  0.00    +0.150 HD
ATOM     15  C   UNL     1       8.559  -1.799  25.903  0.00  0.00    +0.246 C 
ATOM     16  O   UNL     1       8.840  -1.254  26.962  0.00  0.00    -0.273 OA
BRANCH  15  17
ATOM     17  C   UNL     1       8.412  -3.266  25.863  0.00  0.00    +0.242 C 
ATOM     18  C   UNL     1       7.115  -3.837  26.386  0.00  0.00    +0.242 C 
ATOM     19  O   UNL     1       8.349  -3.985  27.115  0.00  0.00    -0.349 OA
BRANCH  18  20
ATOM     20  C   UNL     1       6.546  -5.037  25.735  0.00  0.00    +0.245 C 
ATOM     21  N   UNL     1       5.975  -4.824  24.505  0.00  0.00    -0.313 N 
ATOM     22  H   UNL     1       5.884  -3.868  24.184  0.00  0.00    +0.149 HD
ATOM     23  O   UNL     1       6.632  -6.127  26.282  0.00  0.00    -0.273 OA
BRANCH  21  24
ATOM     24  C   UNL     1       5.376  -5.897  23.736  0.00  0.00    +0.104 C 
BRANCH  24  25
ATOM     25  C   UNL     1       5.663  -5.782  22.240  0.00  0.00    +0.015 C 
ATOM     26  C   UNL     1       7.138  -5.966  21.912  0.00  0.00    +0.005 C 
ENDBRANCH  24  25
ENDBRANCH  21  24
ENDBRANCH  18  20
ENDBRANCH  15  17
ENDBRANCH   1  13
BRANCH   1  27
ATOM     27  C   UNL     1       9.735   0.760  23.782  0.00  0.00    +0.015 C 
ATOM     28  C   UNL     1      10.994   0.715  24.664  0.00  0.00    +0.010 C 
BRANCH  27  29
ATOM     29  C   UNL     1       9.909  -0.074  22.491  0.00  0.00    +0.002 C 
ATOM     30  C   UNL     1       9.210   0.536  21.276  0.00  0.00    +0.004 C 
ENDBRANCH  27  29
ENDBRANCH   1  27
TORSDOF 10
ENDMDL
