MODEL 1
REMARK VINA RESULT:      -7.4      0.000      0.000
REMARK  Name = 
REMARK  5 active torsions:
REMARK  status: ('A' for Active; 'I' for Inactive)
REMARK    1  A    between atoms: N_1  and  S_2
REMARK    2  A    between atoms: S_2  and  C_5
REMARK    3  A    between atoms: C_10  and  C_11
REMARK    4  A    between atoms: C_11  and  C_12
REMARK    5  A    between atoms: C_23  and  C_24
REMARK                            x       y       z     vdW  Elec       q    Type
REMARK                         _______ _______ _______ _____ _____    ______ ____
ROOT
ATOM      1  C   UNL     1       8.196  -3.766  24.596  0.00  0.00    +0.119 A 
ATOM      2  C   UNL     1       7.553  -3.842  23.349  0.00  0.00    +0.083 A 
ATOM      3  C   UNL     1       7.368  -2.628  22.624  0.00  0.00    +0.039 A 
ATOM      4  C   UNL     1       7.758  -1.372  23.121  0.00  0.00    +0.056 A 
ATOM      5  N   UNL     1       7.676  -0.240  22.307  0.00  0.00    -0.326 N 
ATOM      6  H   UNL     1       6.952  -0.307  21.591  0.00  0.00    +0.148 HD
ATOM      7  C   UNL     1       7.721   1.073  22.934  0.00  0.00    +0.164 C 
ATOM      8  N   UNL     1       8.945   1.186  23.721  0.00  0.00    -0.170 NA
ATOM      9  H   UNL     1       9.052   2.130  24.092  0.00  0.00    +0.150 HD
ATOM     10  S   UNL     1       8.937   0.151  25.036  0.00  0.00    +0.062 S 
ATOM     11  O   UNL     1       7.918   0.643  25.936  0.00  0.00    -0.153 OA
ATOM     12  O   UNL     1      10.310  -0.002  25.459  0.00  0.00    -0.153 OA
ATOM     13  C   UNL     1       8.370  -1.362  24.368  0.00  0.00    +0.128 A 
ATOM     14  C   UNL     1       8.587  -2.524  25.110  0.00  0.00    +0.059 A 
ENDROOT
BRANCH   2  15
ATOM     15  C   UNL     1       7.039  -5.108  22.700  0.00  0.00    +0.419 C 
ATOM     16  F   UNL     1       6.480  -4.855  21.481  0.00  0.00    -0.166 F 
ATOM     17  F   UNL     1       6.041  -5.672  23.441  0.00  0.00    -0.166 F 
ATOM     18  F   UNL     1       7.930  -6.105  22.478  0.00  0.00    -0.166 F 
ENDBRANCH   2  15
BRANCH   1  19
ATOM     19  S   UNL     1       8.654  -5.187  25.555  0.00  0.00    +0.057 S 
ATOM     20  O   UNL     1       7.455  -5.824  26.049  0.00  0.00    -0.153 OA
ATOM     21  O   UNL     1       9.667  -5.918  24.838  0.00  0.00    -0.153 OA
BRANCH  19  22
ATOM     22  N   UNL     1       9.343  -4.480  26.908  0.00  0.00    -0.203 NA
ATOM     23  H   UNL     1      10.334  -4.724  26.963  0.00  0.00    +0.144 HD
ATOM     24  H   UNL     1       9.168  -3.471  26.900  0.00  0.00    +0.144 HD
ENDBRANCH  19  22
ENDBRANCH   1  19
BRANCH   7  25
ATOM     25  C   UNL     1       7.750   2.201  21.870  0.00  0.00    +0.075 C 
BRANCH  25  26
ATOM     26  C   UNL     1       6.839   3.367  22.176  0.00  0.00    -0.044 A 
ATOM     27  C   UNL     1       5.484   3.140  22.451  0.00  0.00    +0.004 A 
ATOM     28  C   UNL     1       4.654   4.196  22.824  0.00  0.00    +0.000 A 
ATOM     29  C   UNL     1       5.168   5.487  22.918  0.00  0.00    +0.000 A 
ATOM     30  C   UNL     1       6.501   5.731  22.593  0.00  0.00    +0.000 A 
ATOM     31  C   UNL     1       7.329   4.679  22.206  0.00  0.00    +0.004 A 
ENDBRANCH  25  26
ENDBRANCH   7  25
TORSDOF 5
ENDMDL
MODEL 2
REMARK VINA RESULT:      -7.4      3.084      3.812
REMARK  Name = 
REMARK  5 active torsions:
REMARK  status: ('A' for Active; 'I' for Inactive)
REMARK    1  A    between atoms: N_1  and  S_2
REMARK    2  A    between atoms: S_2  and  C_5
REMARK    3  A    between atoms: C_10  and  C_11
REMARK    4  A    between atoms: C_11  and  C_12
REMARK    5  A    between atoms: C_23  and  C_24
REMARK                            x       y       z     vdW  Elec       q    Type
REMARK                         _______ _______ _______ _____ _____    ______ ____
ROOT
ATOM      1  C   UNL     1       5.287  -4.811  23.725  0.00  0.00    +0.119 A 
ATOM      2  C   UNL     1       6.415  -4.912  22.893  0.00  0.00    +0.083 A 
ATOM      3  C   UNL     1       7.439  -3.931  23.043  0.00  0.00    +0.039 A 
ATOM      4  C   UNL     1       7.343  -2.855  23.944  0.00  0.00    +0.056 A 
ATOM      5  N   UNL     1       8.435  -2.008  24.141  0.00  0.00    -0.326 N 
ATOM      6  H   UNL     1       9.052  -1.946  23.331  0.00  0.00    +0.148 HD
ATOM      7  C   UNL     1       8.207  -0.714  24.770  0.00  0.00    +0.164 C 
ATOM      8  N   UNL     1       7.569  -0.917  26.066  0.00  0.00    -0.170 NA
ATOM      9  H   UNL     1       7.486  -0.036  26.573  0.00  0.00    +0.150 HD
ATOM     10  S   UNL     1       6.018  -1.527  25.908  0.00  0.00    +0.062 S 
ATOM     11  O   UNL     1       5.226  -0.475  25.310  0.00  0.00    -0.153 OA
ATOM     12  O   UNL     1       5.663  -2.111  27.181  0.00  0.00    -0.153 OA
ATOM     13  C   UNL     1       6.193  -2.800  24.722  0.00  0.00    +0.128 A 
ATOM     14  C   UNL     1       5.171  -3.745  24.624  0.00  0.00    +0.059 A 
ENDROOT
BRANCH   2  15
ATOM     15  C   UNL     1       6.645  -5.983  21.849  0.00  0.00    +0.419 C 
ATOM     16  F   UNL     1       7.807  -5.774  21.166  0.00  0.00    -0.166 F 
ATOM     17  F   UNL     1       5.664  -5.965  20.900  0.00  0.00    -0.166 F 
ATOM     18  F   UNL     1       6.713  -7.268  22.274  0.00  0.00    -0.166 F 
ENDBRANCH   2  15
BRANCH   1  19
ATOM     19  S   UNL     1       4.000  -6.031  23.789  0.00  0.00    +0.057 S 
ATOM     20  O   UNL     1       3.195  -5.926  22.594  0.00  0.00    -0.153 OA
ATOM     21  O   UNL     1       4.573  -7.281  24.217  0.00  0.00    -0.153 OA
BRANCH  19  22
ATOM     22  N   UNL     1       3.020  -5.431  25.009  0.00  0.00    -0.203 NA
ATOM     23  H   UNL     1       3.497  -5.513  25.910  0.00  0.00    +0.144 HD
ATOM     24  H   UNL     1       2.730  -4.476  24.783  0.00  0.00    +0.144 HD
ENDBRANCH  19  22
ENDBRANCH   1  19
BRANCH   7  25
ATOM     25  C   UNL     1       9.545   0.028  25.025  0.00  0.00    +0.075 C 
BRANCH  25  26
ATOM     26  C   UNL     1       9.558   1.464  24.558  0.00  0.00    -0.044 A 
ATOM     27  C   UNL     1       8.512   2.325  24.917  0.00  0.00    +0.004 A 
ATOM     28  C   UNL     1       8.558   3.674  24.570  0.00  0.00    +0.000 A 
ATOM     29  C   UNL     1       9.644   4.173  23.855  0.00  0.00    +0.000 A 
ATOM     30  C   UNL     1      10.662   3.314  23.446  0.00  0.00    +0.000 A 
ATOM     31  C   UNL     1      10.612   1.962  23.780  0.00  0.00    +0.004 A 
ENDBRANCH  25  26
ENDBRANCH   7  25
TORSDOF 5
ENDMDL
MODEL 3
REMARK VINA RESULT:      -7.3      3.396      4.641
REMARK  Name = 
REMARK  5 active torsions:
REMARK  status: ('A' for Active; 'I' for Inactive)
REMARK    1  A    between atoms: N_1  and  S_2
REMARK    2  A    between atoms: S_2  and  C_5
REMARK    3  A    between atoms: C_10  and  C_11
REMARK    4  A    between atoms: C_11  and  C_12
REMARK    5  A    between atoms: C_23  and  C_24
REMARK                            x       y       z     vdW  Elec       q    Type
REMARK                         _______ _______ _______ _____ _____    ______ ____
ROOT
ATOM      1  C   UNL     1       5.073  -5.621  25.483  0.00  0.00    +0.119 A 
ATOM      2  C   UNL     1       4.542  -5.070  24.304  0.00  0.00    +0.083 A 
ATOM      3  C   UNL     1       5.388  -4.224  23.528  0.00  0.00    +0.039 A 
ATOM      4  C   UNL     1       6.698  -3.889  23.914  0.00  0.00    +0.056 A 
ATOM      5  N   UNL     1       7.521  -3.170  23.046  0.00  0.00    -0.326 N 
ATOM      6  H   UNL     1       7.006  -2.569  22.402  0.00  0.00    +0.148 HD
ATOM      7  C   UNL     1       8.706  -2.520  23.588  0.00  0.00    +0.164 C 
ATOM      8  N   UNL     1       9.536  -3.517  24.256  0.00  0.00    -0.170 NA
ATOM      9  H   UNL     1      10.420  -3.110  24.561  0.00  0.00    +0.150 HD
ATOM     10  S   UNL     1       8.793  -4.130  25.625  0.00  0.00    +0.062 S 
ATOM     11  O   UNL     1       8.745  -3.047  26.582  0.00  0.00    -0.153 OA
ATOM     12  O   UNL     1       9.445  -5.382  25.934  0.00  0.00    -0.153 OA
ATOM     13  C   UNL     1       7.157  -4.450  25.100  0.00  0.00    +0.128 A 
ATOM     14  C   UNL     1       6.373  -5.295  25.887  0.00  0.00    +0.059 A 
ENDROOT
BRANCH   2  15
ATOM     15  C   UNL     1       3.142  -5.301  23.778  0.00  0.00    +0.419 C 
ATOM     16  F   UNL     1       3.037  -6.504  23.145  0.00  0.00    -0.166 F 
ATOM     17  F   UNL     1       2.810  -4.371  22.835  0.00  0.00    -0.166 F 
ATOM     18  F   UNL     1       2.125  -5.285  24.674  0.00  0.00    -0.166 F 
ENDBRANCH   2  15
BRANCH   1  19
ATOM     19  S   UNL     1       4.222  -6.818  26.479  0.00  0.00    +0.057 S 
ATOM     20  O   UNL     1       3.222  -6.142  27.272  0.00  0.00    -0.153 OA
ATOM     21  O   UNL     1       3.904  -7.957  25.657  0.00  0.00    -0.153 OA
BRANCH  19  22
ATOM     22  N   UNL     1       5.408  -7.251  27.581  0.00  0.00    -0.203 NA
ATOM     23  H   UNL     1       5.090  -8.044  28.142  0.00  0.00    +0.144 HD
ATOM     24  H   UNL     1       6.291  -7.422  27.091  0.00  0.00    +0.144 HD
ENDBRANCH  19  22
ENDBRANCH   1  19
BRANCH   7  25
ATOM     25  C   UNL     1       9.563  -1.886  22.462  0.00  0.00    +0.075 C 
BRANCH  25  26
ATOM     26  C   UNL     1       9.930  -0.440  22.700  0.00  0.00    -0.044 A 
ATOM     27  C   UNL     1       9.643   0.524  21.724  0.00  0.00    +0.004 A 
ATOM     28  C   UNL     1       9.893   1.872  21.970  0.00  0.00    +0.000 A 
ATOM     29  C   UNL     1      10.438   2.270  23.188  0.00  0.00    +0.000 A 
ATOM     30  C   UNL     1      10.778   1.314  24.143  0.00  0.00    +0.000 A 
ATOM     31  C   UNL     1      10.542  -0.037  23.895  0.00  0.00    +0.004 A 
ENDBRANCH  25  26
ENDBRANCH   7  25
TORSDOF 5
ENDMDL
MODEL 4
REMARK VINA RESULT:      -7.2      1.819      2.330
REMARK  Name = 
REMARK  5 active torsions:
REMARK  status: ('A' for Active; 'I' for Inactive)
REMARK    1  A    between atoms: N_1  and  S_2
REMARK    2  A    between atoms: S_2  and  C_5
REMARK    3  A    between atoms: C_10  and  C_11
REMARK    4  A    between atoms: C_11  and  C_12
REMARK    5  A    between atoms: C_23  and  C_24
REMARK                            x       y       z     vdW  Elec       q    Type
REMARK                         _______ _______ _______ _____ _____    ______ ____
ROOT
ATOM      1  C   UNL     1       7.907  -3.546  24.301  0.00  0.00    +0.119 A 
ATOM      2  C   UNL     1       6.547  -3.192  24.316  0.00  0.00    +0.083 A 
ATOM      3  C   UNL     1       6.201  -1.878  23.883  0.00  0.00    +0.039 A 
ATOM      4  C   UNL     1       7.156  -0.924  23.490  0.00  0.00    +0.056 A 
ATOM      5  N   UNL     1       6.746   0.295  22.947  0.00  0.00    -0.326 N 
ATOM      6  H   UNL     1       5.825   0.593  23.268  0.00  0.00    +0.148 HD
ATOM      7  C   UNL     1       7.702   1.393  22.898  0.00  0.00    +0.164 C 
ATOM      8  N   UNL     1       8.889   0.962  22.166  0.00  0.00    -0.170 NA
ATOM      9  H   UNL     1       9.534   1.740  22.031  0.00  0.00    +0.150 HD
ATOM     10  S   UNL     1       9.733  -0.225  22.991  0.00  0.00    +0.062 S 
ATOM     11  O   UNL     1      10.283   0.410  24.169  0.00  0.00    -0.153 OA
ATOM     12  O   UNL     1      10.578  -0.888  22.026  0.00  0.00    -0.153 OA
ATOM     13  C   UNL     1       8.485  -1.330  23.517  0.00  0.00    +0.128 A 
ATOM     14  C   UNL     1       8.873  -2.609  23.919  0.00  0.00    +0.059 A 
ENDROOT
BRANCH   2  15
ATOM     15  C   UNL     1       5.409  -4.089  24.750  0.00  0.00    +0.419 C 
ATOM     16  F   UNL     1       4.196  -3.535  24.460  0.00  0.00    -0.166 F 
ATOM     17  F   UNL     1       5.407  -4.263  26.104  0.00  0.00    -0.166 F 
ATOM     18  F   UNL     1       5.360  -5.337  24.226  0.00  0.00    -0.166 F 
ENDBRANCH   2  15
BRANCH   1  19
ATOM     19  S   UNL     1       8.500  -5.182  24.649  0.00  0.00    +0.057 S 
ATOM     20  O   UNL     1       7.992  -5.602  25.934  0.00  0.00    -0.153 OA
ATOM     21  O   UNL     1       8.345  -5.989  23.466  0.00  0.00    -0.153 OA
BRANCH  19  22
ATOM     22  N   UNL     1      10.132  -4.906  24.913  0.00  0.00    -0.203 NA
ATOM     23  H   UNL     1      10.689  -5.588  24.395  0.00  0.00    +0.144 HD
ATOM     24  H   UNL     1      10.360  -3.934  24.688  0.00  0.00    +0.144 HD
ENDBRANCH  19  22
ENDBRANCH   1  19
BRANCH   7  25
ATOM     25  C   UNL     1       7.114   2.615  22.147  0.00  0.00    +0.075 C 
BRANCH  25  26
ATOM     26  C   UNL     1       7.659   3.947  22.605  0.00  0.00    -0.044 A 
ATOM     27  C   UNL     1       8.686   3.991  23.558  0.00  0.00    +0.004 A 
ATOM     28  C   UNL     1       9.261   5.208  23.920  0.00  0.00    +0.000 A 
ATOM     29  C   UNL     1       8.810   6.392  23.341  0.00  0.00    +0.000 A 
ATOM     30  C   UNL     1       7.752   6.364  22.434  0.00  0.00    +0.000 A 
ATOM     31  C   UNL     1       7.167   5.149  22.080  0.00  0.00    +0.004 A 
ENDBRANCH  25  26
ENDBRANCH   7  25
TORSDOF 5
ENDMDL
MODEL 5
REMARK VINA RESULT:      -7.2      4.358      8.110
REMARK  Name = 
REMARK  5 active torsions:
REMARK  status: ('A' for Active; 'I' for Inactive)
REMARK    1  A    between atoms: N_1  and  S_2
REMARK    2  A    between atoms: S_2  and  C_5
REMARK    3  A    between atoms: C_10  and  C_11
REMARK    4  A    between atoms: C_11  and  C_12
REMARK    5  A    between atoms: C_23  and  C_24
REMARK                            x       y       z     vdW  Elec       q    Type
REMARK                         _______ _______ _______ _____ _____    ______ ____
ROOT
ATOM      1  C   UNL     1       8.654   1.449  23.899  0.00  0.00    +0.119 A 
ATOM      2  C   UNL     1       8.087   1.539  25.182  0.00  0.00    +0.083 A 
ATOM      3  C   UNL     1       7.920   0.330  25.918  0.00  0.00    +0.039 A 
ATOM      4  C   UNL     1       8.252  -0.935  25.400  0.00  0.00    +0.056 A 
ATOM      5  N   UNL     1       8.194  -2.064  26.219  0.00  0.00    -0.326 N 
ATOM      6  H   UNL     1       7.515  -1.982  26.976  0.00  0.00    +0.148 HD
ATOM      7  C   UNL     1       8.174  -3.378  25.592  0.00  0.00    +0.164 C 
ATOM      8  N   UNL     1       9.346  -3.518  24.734  0.00  0.00    -0.170 NA
ATOM      9  H   UNL     1       9.411  -4.463  24.358  0.00  0.00    +0.150 HD
ATOM     10  S   UNL     1       9.283  -2.482  23.420  0.00  0.00    +0.062 S 
ATOM     11  O   UNL     1       8.202  -2.952  22.582  0.00  0.00    -0.153 OA
ATOM     12  O   UNL     1      10.631  -2.359  22.917  0.00  0.00    -0.153 OA
ATOM     13  C   UNL     1       8.789  -0.957  24.119  0.00  0.00    +0.128 A 
ATOM     14  C   UNL     1       8.987   0.200  23.364  0.00  0.00    +0.059 A 
ENDROOT
BRANCH   2  15
ATOM     15  C   UNL     1       7.640   2.817  25.859  0.00  0.00    +0.419 C 
ATOM     16  F   UNL     1       7.343   2.609  27.174  0.00  0.00    -0.166 F 
ATOM     17  F   UNL     1       6.487   3.291  25.303  0.00  0.00    -0.166 F 
ATOM     18  F   UNL     1       8.500   3.863  25.853  0.00  0.00    -0.166 F 
ENDBRANCH   2  15
BRANCH   1  19
ATOM     19  S   UNL     1       9.084   2.861  22.913  0.00  0.00    +0.057 S 
ATOM     20  O   UNL     1       7.876   3.561  22.544  0.00  0.00    -0.153 OA
ATOM     21  O   UNL     1      10.197   3.533  23.534  0.00  0.00    -0.153 OA
BRANCH  19  22
ATOM     22  N   UNL     1       9.603   2.141  21.492  0.00  0.00    -0.203 NA
ATOM     23  H   UNL     1       9.517   2.799  20.715  0.00  0.00    +0.144 HD
ATOM     24  H   UNL     1      10.551   1.773  21.615  0.00  0.00    +0.144 HD
ENDBRANCH  19  22
ENDBRANCH   1  19
BRANCH   7  25
ATOM     25  C   UNL     1       8.241  -4.507  26.653  0.00  0.00    +0.075 C 
BRANCH  25  26
ATOM     26  C   UNL     1       6.956  -5.284  26.816  0.00  0.00    -0.044 A 
ATOM     27  C   UNL     1       6.201  -5.629  25.687  0.00  0.00    +0.004 A 
ATOM     28  C   UNL     1       5.064  -6.425  25.816  0.00  0.00    +0.000 A 
ATOM     29  C   UNL     1       4.667  -6.876  27.072  0.00  0.00    +0.000 A 
ATOM     30  C   UNL     1       5.380  -6.493  28.206  0.00  0.00    +0.000 A 
ATOM     31  C   UNL     1       6.510  -5.686  28.082  0.00  0.00    +0.004 A 
ENDBRANCH  25  26
ENDBRANCH   7  25
TORSDOF 5
ENDMDL
MODEL 6
REMARK VINA RESULT:      -7.1      2.217      2.901
REMARK  Name = 
REMARK  5 active torsions:
REMARK  status: ('A' for Active; 'I' for Inactive)
REMARK    1  A    between atoms: N_1  and  S_2
REMARK    2  A    between atoms: S_2  and  C_5
REMARK    3  A    between atoms: C_10  and  C_11
REMARK    4  A    between atoms: C_11  and  C_12
REMARK    5  A    between atoms: C_23  and  C_24
REMARK                            x       y       z     vdW  Elec       q    Type
REMARK                         _______ _______ _______ _____ _____    ______ ____
ROOT
ATOM      1  C   UNL     1       6.952  -3.662  25.017  0.00  0.00    +0.119 A 
ATOM      2  C   UNL     1       7.324  -3.798  23.669  0.00  0.00    +0.083 A 
ATOM      3  C   UNL     1       8.091  -2.748  23.084  0.00  0.00    +0.039 A 
ATOM      4  C   UNL     1       8.445  -1.579  23.780  0.00  0.00    +0.056 A 
ATOM      5  N   UNL     1       9.311  -0.652  23.196  0.00  0.00    -0.326 N 
ATOM      6  H   UNL     1       9.279  -0.653  22.177  0.00  0.00    +0.148 HD
ATOM      7  C   UNL     1       9.368   0.693  23.751  0.00  0.00    +0.164 C 
ATOM      8  N   UNL     1       9.701   0.612  25.170  0.00  0.00    -0.170 NA
ATOM      9  H   UNL     1       9.844   1.542  25.563  0.00  0.00    +0.150 HD
ATOM     10  S   UNL     1       8.474  -0.101  26.058  0.00  0.00    +0.062 S 
ATOM     11  O   UNL     1       7.362   0.824  26.032  0.00  0.00    -0.153 OA
ATOM     12  O   UNL     1       9.058  -0.545  27.302  0.00  0.00    -0.153 OA
ATOM     13  C   UNL     1       8.029  -1.496  25.103  0.00  0.00    +0.128 A 
ATOM     14  C   UNL     1       7.290  -2.503  25.725  0.00  0.00    +0.059 A 
ENDROOT
BRANCH   2  15
ATOM     15  C   UNL     1       6.985  -4.973  22.777  0.00  0.00    +0.419 C 
ATOM     16  F   UNL     1       7.808  -6.035  23.014  0.00  0.00    -0.166 F 
ATOM     17  F   UNL     1       7.172  -4.663  21.461  0.00  0.00    -0.166 F 
ATOM     18  F   UNL     1       5.729  -5.476  22.854  0.00  0.00    -0.166 F 
ENDBRANCH   2  15
BRANCH   1  19
ATOM     19  S   UNL     1       6.142  -4.937  25.947  0.00  0.00    +0.057 S 
ATOM     20  O   UNL     1       4.764  -5.026  25.521  0.00  0.00    -0.153 OA
ATOM     21  O   UNL     1       7.003  -6.091  25.992  0.00  0.00    -0.153 OA
BRANCH  19  22
ATOM     22  N   UNL     1       6.065  -4.251  27.474  0.00  0.00    -0.203 NA
ATOM     23  H   UNL     1       5.299  -4.670  28.007  0.00  0.00    +0.144 HD
ATOM     24  H   UNL     1       6.976  -4.328  27.935  0.00  0.00    +0.144 HD
ENDBRANCH  19  22
ENDBRANCH   1  19
BRANCH   7  25
ATOM     25  C   UNL     1      10.473   1.536  23.065  0.00  0.00    +0.075 C 
BRANCH  25  26
ATOM     26  C   UNL     1      10.401   3.016  23.364  0.00  0.00    -0.044 A 
ATOM     27  C   UNL     1      11.572   3.786  23.359  0.00  0.00    +0.004 A 
ATOM     28  C   UNL     1      11.508   5.166  23.542  0.00  0.00    +0.000 A 
ATOM     29  C   UNL     1      10.277   5.788  23.738  0.00  0.00    +0.000 A 
ATOM     30  C   UNL     1       9.114   5.023  23.799  0.00  0.00    +0.000 A 
ATOM     31  C   UNL     1       9.176   3.641  23.630  0.00  0.00    +0.004 A 
ENDBRANCH  25  26
ENDBRANCH   7  25
TORSDOF 5
ENDMDL
MODEL 7
REMARK VINA RESULT:      -7.1      4.139      7.964
REMARK  Name = 
REMARK  5 active torsions:
REMARK  status: ('A' for Active; 'I' for Inactive)
REMARK    1  A    between atoms: N_1  and  S_2
REMARK    2  A    between atoms: S_2  and  C_5
REMARK    3  A    between atoms: C_10  and  C_11
REMARK    4  A    between atoms: C_11  and  C_12
REMARK    5  A    between atoms: C_23  and  C_24
REMARK                            x       y       z     vdW  Elec       q    Type
REMARK                         _______ _______ _______ _____ _____    ______ ____
ROOT
ATOM      1  C   UNL     1       8.268  -1.160  22.897  0.00  0.00    +0.119 A 
ATOM      2  C   UNL     1       7.103  -0.527  23.360  0.00  0.00    +0.083 A 
ATOM      3  C   UNL     1       6.065  -1.351  23.886  0.00  0.00    +0.039 A 
ATOM      4  C   UNL     1       6.143  -2.755  23.916  0.00  0.00    +0.056 A 
ATOM      5  N   UNL     1       5.156  -3.497  24.567  0.00  0.00    -0.326 N 
ATOM      6  H   UNL     1       4.248  -3.033  24.590  0.00  0.00    +0.148 HD
ATOM      7  C   UNL     1       5.048  -4.920  24.274  0.00  0.00    +0.164 C 
ATOM      8  N   UNL     1       6.330  -5.563  24.542  0.00  0.00    -0.170 NA
ATOM      9  H   UNL     1       6.258  -6.575  24.440  0.00  0.00    +0.150 HD
ATOM     10  S   UNL     1       7.517  -5.057  23.475  0.00  0.00    +0.062 S 
ATOM     11  O   UNL     1       7.149  -5.581  22.178  0.00  0.00    -0.153 OA
ATOM     12  O   UNL     1       8.790  -5.367  24.082  0.00  0.00    -0.153 OA
ATOM     13  C   UNL     1       7.313  -3.321  23.423  0.00  0.00    +0.128 A 
ATOM     14  C   UNL     1       8.363  -2.556  22.913  0.00  0.00    +0.059 A 
ENDROOT
BRANCH   2  15
ATOM     15  C   UNL     1       6.851   0.966  23.357  0.00  0.00    +0.419 C 
ATOM     16  F   UNL     1       5.670   1.276  23.965  0.00  0.00    -0.166 F 
ATOM     17  F   UNL     1       6.732   1.442  22.083  0.00  0.00    -0.166 F 
ATOM     18  F   UNL     1       7.774   1.758  23.953  0.00  0.00    -0.166 F 
ENDBRANCH   2  15
BRANCH   1  19
ATOM     19  S   UNL     1       9.718  -0.285  22.365  0.00  0.00    +0.057 S 
ATOM     20  O   UNL     1       9.387   0.507  21.203  0.00  0.00    -0.153 OA
ATOM     21  O   UNL     1      10.359   0.286  23.521  0.00  0.00    -0.153 OA
BRANCH  19  22
ATOM     22  N   UNL     1      10.669  -1.529  21.769  0.00  0.00    -0.203 NA
ATOM     23  H   UNL     1      11.571  -1.160  21.459  0.00  0.00    +0.144 HD
ATOM     24  H   UNL     1      10.747  -2.272  22.468  0.00  0.00    +0.144 HD
ENDBRANCH  19  22
ENDBRANCH   1  19
BRANCH   7  25
ATOM     25  C   UNL     1       3.991  -5.601  25.182  0.00  0.00    +0.075 C 
BRANCH  25  26
ATOM     26  C   UNL     1       3.093  -6.580  24.463  0.00  0.00    -0.044 A 
ATOM     27  C   UNL     1       2.774  -7.805  25.064  0.00  0.00    +0.004 A 
ATOM     28  C   UNL     1       1.873  -8.676  24.454  0.00  0.00    +0.000 A 
ATOM     29  C   UNL     1       1.291  -8.336  23.236  0.00  0.00    +0.000 A 
ATOM     30  C   UNL     1       1.644  -7.145  22.603  0.00  0.00    +0.000 A 
ATOM     31  C   UNL     1       2.555  -6.278  23.206  0.00  0.00    +0.004 A 
ENDBRANCH  25  26
ENDBRANCH   7  25
TORSDOF 5
ENDMDL
MODEL 8
REMARK VINA RESULT:      -7.0      4.225      5.882
REMARK  Name = 
REMARK  5 active torsions:
REMARK  status: ('A' for Active; 'I' for Inactive)
REMARK    1  A    between atoms: N_1  and  S_2
REMARK    2  A    between atoms: S_2  and  C_5
REMARK    3  A    between atoms: C_10  and  C_11
REMARK    4  A    between atoms: C_11  and  C_12
REMARK    5  A    between atoms: C_23  and  C_24
REMARK                            x       y       z     vdW  Elec       q    Type
REMARK                         _______ _______ _______ _____ _____    ______ ____
ROOT
ATOM      1  C   UNL     1       3.971  -6.282  24.541  0.00  0.00    +0.119 A 
ATOM      2  C   UNL     1       4.393  -5.797  25.790  0.00  0.00    +0.083 A 
ATOM      3  C   UNL     1       5.557  -4.975  25.823  0.00  0.00    +0.039 A 
ATOM      4  C   UNL     1       6.314  -4.672  24.677  0.00  0.00    +0.056 A 
ATOM      5  N   UNL     1       7.361  -3.752  24.752  0.00  0.00    -0.326 N 
ATOM      6  H   UNL     1       7.787  -3.696  25.678  0.00  0.00    +0.148 HD
ATOM      7  C   UNL     1       8.349  -3.732  23.682  0.00  0.00    +0.164 C 
ATOM      8  N   UNL     1       7.670  -3.522  22.408  0.00  0.00    -0.170 NA
ATOM      9  H   UNL     1       8.345  -3.406  21.652  0.00  0.00    +0.150 HD
ATOM     10  S   UNL     1       6.705  -4.826  21.993  0.00  0.00    +0.062 S 
ATOM     11  O   UNL     1       7.603  -5.924  21.713  0.00  0.00    -0.153 OA
ATOM     12  O   UNL     1       5.758  -4.353  21.010  0.00  0.00    -0.153 OA
ATOM     13  C   UNL     1       5.855  -5.199  23.475  0.00  0.00    +0.128 A 
ATOM     14  C   UNL     1       4.714  -5.996  23.389  0.00  0.00    +0.059 A 
ENDROOT
BRANCH   2  15
ATOM     15  C   UNL     1       3.712  -6.068  27.114  0.00  0.00    +0.419 C 
ATOM     16  F   UNL     1       2.627  -5.262  27.293  0.00  0.00    -0.166 F 
ATOM     17  F   UNL     1       4.542  -5.787  28.161  0.00  0.00    -0.166 F 
ATOM     18  F   UNL     1       3.259  -7.325  27.341  0.00  0.00    -0.166 F 
ENDBRANCH   2  15
BRANCH   1  19
ATOM     19  S   UNL     1       2.459  -7.178  24.293  0.00  0.00    +0.057 S 
ATOM     20  O   UNL     1       2.656  -8.550  24.700  0.00  0.00    -0.153 OA
ATOM     21  O   UNL     1       1.367  -6.383  24.791  0.00  0.00    -0.153 OA
BRANCH  19  22
ATOM     22  N   UNL     1       2.371  -7.245  22.621  0.00  0.00    -0.203 NA
ATOM     23  H   UNL     1       1.997  -8.150  22.327  0.00  0.00    +0.144 HD
ATOM     24  H   UNL     1       1.836  -6.446  22.270  0.00  0.00    +0.144 HD
ENDBRANCH  19  22
ENDBRANCH   1  19
BRANCH   7  25
ATOM     25  C   UNL     1       9.353  -2.566  23.868  0.00  0.00    +0.075 C 
BRANCH  25  26
ATOM     26  C   UNL     1       8.980  -1.301  23.132  0.00  0.00    -0.044 A 
ATOM     27  C   UNL     1       7.948  -0.488  23.619  0.00  0.00    +0.004 A 
ATOM     28  C   UNL     1       7.656   0.726  23.001  0.00  0.00    +0.000 A 
ATOM     29  C   UNL     1       8.386   1.136  21.888  0.00  0.00    +0.000 A 
ATOM     30  C   UNL     1       9.377   0.309  21.363  0.00  0.00    +0.000 A 
ATOM     31  C   UNL     1       9.662  -0.912  21.971  0.00  0.00    +0.004 A 
ENDBRANCH  25  26
ENDBRANCH   7  25
TORSDOF 5
ENDMDL
MODEL 9
REMARK VINA RESULT:      -7.0      2.490      3.066
REMARK  Name = 
REMARK  5 active torsions:
REMARK  status: ('A' for Active; 'I' for Inactive)
REMARK    1  A    between atoms: N_1  and  S_2
REMARK    2  A    between atoms: S_2  and  C_5
REMARK    3  A    between atoms: C_10  and  C_11
REMARK    4  A    between atoms: C_11  and  C_12
REMARK    5  A    between atoms: C_23  and  C_24
REMARK                            x       y       z     vdW  Elec       q    Type
REMARK                         _______ _______ _______ _____ _____    ______ ____
ROOT
ATOM      1  C   UNL     1       6.510  -3.809  26.194  0.00  0.00    +0.119 A 
ATOM      2  C   UNL     1       5.277  -3.232  25.845  0.00  0.00    +0.083 A 
ATOM      3  C   UNL     1       5.298  -2.094  24.986  0.00  0.00    +0.039 A 
ATOM      4  C   UNL     1       6.488  -1.509  24.518  0.00  0.00    +0.056 A 
ATOM      5  N   UNL     1       6.440  -0.484  23.572  0.00  0.00    -0.326 N 
ATOM      6  H   UNL     1       5.580   0.063  23.610  0.00  0.00    +0.148 HD
ATOM      7  C   UNL     1       7.621   0.347  23.384  0.00  0.00    +0.164 C 
ATOM      8  N   UNL     1       8.758  -0.506  23.051  0.00  0.00    -0.170 NA
ATOM      9  H   UNL     1       9.577   0.055  22.817  0.00  0.00    +0.150 HD
ATOM     10  S   UNL     1       9.198  -1.487  24.334  0.00  0.00    +0.062 S 
ATOM     11  O   UNL     1       9.730  -0.610  25.353  0.00  0.00    -0.153 OA
ATOM     12  O   UNL     1       9.980  -2.571  23.786  0.00  0.00    -0.153 OA
ATOM     13  C   UNL     1       7.674  -2.116  24.916  0.00  0.00    +0.128 A 
ATOM     14  C   UNL     1       7.705  -3.239  25.743  0.00  0.00    +0.059 A 
ENDROOT
BRANCH   2  15
ATOM     15  C   UNL     1       3.918  -3.717  26.300  0.00  0.00    +0.419 C 
ATOM     16  F   UNL     1       3.590  -4.906  25.718  0.00  0.00    -0.166 F 
ATOM     17  F   UNL     1       2.933  -2.851  25.921  0.00  0.00    -0.166 F 
ATOM     18  F   UNL     1       3.734  -3.913  27.628  0.00  0.00    -0.166 F 
ENDBRANCH   2  15
BRANCH   1  19
ATOM     19  S   UNL     1       6.662  -5.318  27.115  0.00  0.00    +0.057 S 
ATOM     20  O   UNL     1       6.352  -5.055  28.501  0.00  0.00    -0.153 OA
ATOM     21  O   UNL     1       6.021  -6.375  26.376  0.00  0.00    -0.153 OA
BRANCH  19  22
ATOM     22  N   UNL     1       8.320  -5.564  27.096  0.00  0.00    -0.203 NA
ATOM     23  H   UNL     1       8.690  -5.373  26.163  0.00  0.00    +0.144 HD
ATOM     24  H   UNL     1       8.762  -5.010  27.834  0.00  0.00    +0.144 HD
ENDBRANCH  19  22
ENDBRANCH   1  19
BRANCH   7  25
ATOM     25  C   UNL     1       7.428   1.338  22.208  0.00  0.00    +0.075 C 
BRANCH  25  26
ATOM     26  C   UNL     1       7.769   2.772  22.542  0.00  0.00    -0.044 A 
ATOM     27  C   UNL     1       6.970   3.813  22.050  0.00  0.00    +0.004 A 
ATOM     28  C   UNL     1       7.220   5.131  22.425  0.00  0.00    +0.000 A 
ATOM     29  C   UNL     1       8.272   5.423  23.289  0.00  0.00    +0.000 A 
ATOM     30  C   UNL     1       9.106   4.401  23.740  0.00  0.00    +0.000 A 
ATOM     31  C   UNL     1       8.867   3.083  23.355  0.00  0.00    +0.004 A 
ENDBRANCH  25  26
ENDBRANCH   7  25
TORSDOF 5
ENDMDL
