MODEL 1
REMARK VINA RESULT:      -8.1      0.000      0.000
REMARK  Name = 
REMARK  5 active torsions:
REMARK  status: ('A' for Active; 'I' for Inactive)
REMARK    1  A    between atoms: C_2  and  C_4
REMARK    2  A    between atoms: C_7  and  N_8
REMARK    3  A    between atoms: N_11  and  C_12
REMARK    4  A    between atoms: C_15  and  O_16
REMARK    5  A    between atoms: O_16  and  C_17
REMARK                            x       y       z     vdW  Elec       q    Type
REMARK                         _______ _______ _______ _____ _____    ______ ____
ROOT
ATOM      1  N   UNL     1       8.334  -4.100  23.773  0.00  0.00    -0.269 N 
ATOM      2  H   UNL     1       9.221  -4.577  23.817  0.00  0.00    +0.156 HD
ATOM      3  C   UNL     1       8.361  -2.720  23.769  0.00  0.00    +0.308 C 
ATOM      4  N   UNL     1       9.564  -2.194  23.335  0.00  0.00    -0.269 N 
ATOM      5  H   UNL     1      10.166  -2.812  22.811  0.00  0.00    +0.156 HD
ATOM      6  O   UNL     1       7.400  -2.026  24.098  0.00  0.00    -0.252 OA
ENDROOT
BRANCH   1  10
ATOM      7  C   UNL     1       4.890  -6.412  24.613  0.00  0.00    +0.065 A 
ATOM      8  C   UNL     1       5.699  -5.936  25.648  0.00  0.00    +0.018 A 
ATOM      9  C   UNL     1       6.844  -5.177  25.359  0.00  0.00    +0.024 A 
ATOM     10  C   UNL     1       7.168  -4.865  24.035  0.00  0.00    +0.035 A 
ATOM     11  C   UNL     1       6.333  -5.334  23.013  0.00  0.00    +0.024 A 
ATOM     12  C   UNL     1       5.195  -6.087  23.294  0.00  0.00    +0.018 A 
BRANCH   7  16
ATOM     13  N   UNL     1       3.297  -7.461  26.175  0.00  0.00    -0.247 N 
ATOM     14  H   UNL     1       3.518  -6.696  26.809  0.00  0.00    +0.288 HD
ATOM     15  H   UNL     1       2.332  -7.750  26.280  0.00  0.00    +0.288 HD
ATOM     16  C   UNL     1       3.735  -7.307  24.892  0.00  0.00    +0.308 C 
ATOM     17  N   UNL     1       3.137  -7.907  23.920  0.00  0.00    -0.099 NA
ATOM     18  H   UNL     1       2.397  -8.505  24.297  0.00  0.00    +0.363 HD
ENDBRANCH   7  16
ENDBRANCH   1  10
BRANCH   4  19
ATOM     19  C   UNL     1       9.831  -0.805  23.252  0.00  0.00    +0.035 A 
ATOM     20  C   UNL     1      10.386  -0.166  24.360  0.00  0.00    +0.027 A 
ATOM     21  C   UNL     1      10.734   1.190  24.289  0.00  0.00    +0.048 A 
ATOM     22  C   UNL     1      10.458   1.934  23.136  0.00  0.00    +0.129 A 
ATOM     23  C   UNL     1       9.907   1.305  22.030  0.00  0.00    +0.048 A 
ATOM     24  C   UNL     1       9.581  -0.050  22.097  0.00  0.00    +0.027 A 
BRANCH  22  25
ATOM     25  O   UNL     1      10.718   3.278  22.993  0.00  0.00    -0.456 OA
BRANCH  25  26
ATOM     26  C   UNL     1      10.032   4.163  23.791  0.00  0.00    +0.128 A 
ATOM     27  C   UNL     1       8.848   3.837  24.461  0.00  0.00    +0.046 A 
ATOM     28  C   UNL     1       8.283   4.741  25.356  0.00  0.00    +0.004 A 
ATOM     29  C   UNL     1       8.859   5.999  25.522  0.00  0.00    +0.000 A 
ATOM     30  C   UNL     1       9.978   6.365  24.775  0.00  0.00    +0.004 A 
ATOM     31  C   UNL     1      10.566   5.446  23.905  0.00  0.00    +0.046 A 
ENDBRANCH  25  26
ENDBRANCH  22  25
ENDBRANCH   4  19
TORSDOF 5
ENDMDL
MODEL 2
REMARK VINA RESULT:      -7.9      1.090      1.775
REMARK  Name = 
REMARK  5 active torsions:
REMARK  status: ('A' for Active; 'I' for Inactive)
REMARK    1  A    between atoms: C_2  and  C_4
REMARK    2  A    between atoms: C_7  and  N_8
REMARK    3  A    between atoms: N_11  and  C_12
REMARK    4  A    between atoms: C_15  and  O_16
REMARK    5  A    between atoms: O_16  and  C_17
REMARK                            x       y       z     vdW  Elec       q    Type
REMARK                         _______ _______ _______ _____ _____    ______ ____
ROOT
ATOM      1  N   UNL     1       8.814  -3.776  24.428  0.00  0.00    -0.269 N 
ATOM      2  H   UNL     1       9.623  -4.280  24.100  0.00  0.00    +0.156 HD
ATOM      3  C   UNL     1       8.890  -2.397  24.431  0.00  0.00    +0.308 C 
ATOM      4  N   UNL     1       9.831  -1.896  23.551  0.00  0.00    -0.269 N 
ATOM      5  H   UNL     1      10.143  -2.517  22.820  0.00  0.00    +0.156 HD
ATOM      6  O   UNL     1       8.173  -1.685  25.132  0.00  0.00    -0.252 OA
ENDROOT
BRANCH   1  10
ATOM      7  C   UNL     1       5.923  -6.003  26.572  0.00  0.00    +0.065 A 
ATOM      8  C   UNL     1       7.076  -5.534  27.207  0.00  0.00    +0.018 A 
ATOM      9  C   UNL     1       8.034  -4.803  26.486  0.00  0.00    +0.024 A 
ATOM     10  C   UNL     1       7.826  -4.512  25.134  0.00  0.00    +0.035 A 
ATOM     11  C   UNL     1       6.654  -4.974  24.520  0.00  0.00    +0.024 A 
ATOM     12  C   UNL     1       5.702  -5.700  25.231  0.00  0.00    +0.018 A 
BRANCH   7  16
ATOM     13  N   UNL     1       3.730  -7.119  26.736  0.00  0.00    -0.247 N 
ATOM     14  H   UNL     1       3.681  -7.024  25.724  0.00  0.00    +0.288 HD
ATOM     15  H   UNL     1       3.271  -7.968  27.042  0.00  0.00    +0.288 HD
ATOM     16  C   UNL     1       4.951  -6.870  27.291  0.00  0.00    +0.308 C 
ATOM     17  N   UNL     1       5.279  -7.405  28.418  0.00  0.00    -0.099 NA
ATOM     18  H   UNL     1       4.483  -7.932  28.785  0.00  0.00    +0.363 HD
ENDBRANCH   7  16
ENDBRANCH   1  10
BRANCH   4  19
ATOM     19  C   UNL     1      10.095  -0.514  23.384  0.00  0.00    +0.035 A 
ATOM     20  C   UNL     1       9.711   0.099  22.192  0.00  0.00    +0.027 A 
ATOM     21  C   UNL     1       9.889   1.478  22.022  0.00  0.00    +0.048 A 
ATOM     22  C   UNL     1      10.521   2.241  23.011  0.00  0.00    +0.129 A 
ATOM     23  C   UNL     1      10.904   1.638  24.199  0.00  0.00    +0.048 A 
ATOM     24  C   UNL     1      10.707   0.268  24.374  0.00  0.00    +0.027 A 
BRANCH  22  25
ATOM     25  O   UNL     1      10.782   3.589  22.911  0.00  0.00    -0.456 OA
BRANCH  25  26
ATOM     26  C   UNL     1      10.124   4.444  23.764  0.00  0.00    +0.128 A 
ATOM     27  C   UNL     1       8.927   4.119  24.409  0.00  0.00    +0.046 A 
ATOM     28  C   UNL     1       8.390   4.982  25.359  0.00  0.00    +0.004 A 
ATOM     29  C   UNL     1       9.009   6.207  25.606  0.00  0.00    +0.000 A 
ATOM     30  C   UNL     1      10.143   6.580  24.885  0.00  0.00    +0.004 A 
ATOM     31  C   UNL     1      10.702   5.698  23.960  0.00  0.00    +0.046 A 
ENDBRANCH  25  26
ENDBRANCH  22  25
ENDBRANCH   4  19
TORSDOF 5
ENDMDL
MODEL 3
REMARK VINA RESULT:      -7.8      2.705     10.041
REMARK  Name = 
REMARK  5 active torsions:
REMARK  status: ('A' for Active; 'I' for Inactive)
REMARK    1  A    between atoms: C_2  and  C_4
REMARK    2  A    between atoms: C_7  and  N_8
REMARK    3  A    between atoms: N_11  and  C_12
REMARK    4  A    between atoms: C_15  and  O_16
REMARK    5  A    between atoms: O_16  and  C_17
REMARK                            x       y       z     vdW  Elec       q    Type
REMARK                         _______ _______ _______ _____ _____    ______ ____
ROOT
ATOM      1  N   UNL     1       9.739  -2.076  23.332  0.00  0.00    -0.269 N 
ATOM      2  H   UNL     1      10.479  -2.676  23.001  0.00  0.00    +0.156 HD
ATOM      3  C   UNL     1       8.494  -2.648  23.502  0.00  0.00    +0.308 C 
ATOM      4  N   UNL     1       8.537  -4.019  23.672  0.00  0.00    -0.269 N 
ATOM      5  H   UNL     1       9.425  -4.415  23.940  0.00  0.00    +0.156 HD
ATOM      6  O   UNL     1       7.451  -1.996  23.523  0.00  0.00    -0.252 OA
ENDROOT
BRANCH   1  10
ATOM      7  C   UNL     1      10.384   2.106  23.267  0.00  0.00    +0.065 A 
ATOM      8  C   UNL     1      10.558   1.376  24.446  0.00  0.00    +0.018 A 
ATOM      9  C   UNL     1      10.334  -0.009  24.460  0.00  0.00    +0.024 A 
ATOM     10  C   UNL     1       9.964  -0.675  23.287  0.00  0.00    +0.035 A 
ATOM     11  C   UNL     1       9.815   0.071  22.111  0.00  0.00    +0.024 A 
ATOM     12  C   UNL     1      10.036   1.446  22.092  0.00  0.00    +0.018 A 
BRANCH   7  16
ATOM     13  N   UNL     1       9.389   4.362  23.312  0.00  0.00    -0.247 N 
ATOM     14  H   UNL     1       8.572   3.920  23.728  0.00  0.00    +0.288 HD
ATOM     15  H   UNL     1       9.517   5.299  23.673  0.00  0.00    +0.288 HD
ATOM     16  C   UNL     1      10.511   3.588  23.257  0.00  0.00    +0.308 C 
ATOM     17  N   UNL     1      11.680   4.133  23.228  0.00  0.00    -0.099 NA
ATOM     18  H   UNL     1      11.578   5.150  23.188  0.00  0.00    +0.363 HD
ENDBRANCH   7  16
ENDBRANCH   1  10
BRANCH   4  19
ATOM     19  C   UNL     1       7.386  -4.825  23.856  0.00  0.00    +0.035 A 
ATOM     20  C   UNL     1       6.924  -5.042  25.154  0.00  0.00    +0.027 A 
ATOM     21  C   UNL     1       5.747  -5.771  25.369  0.00  0.00    +0.048 A 
ATOM     22  C   UNL     1       5.066  -6.354  24.294  0.00  0.00    +0.129 A 
ATOM     23  C   UNL     1       5.519  -6.142  23.001  0.00  0.00    +0.048 A 
ATOM     24  C   UNL     1       6.680  -5.398  22.789  0.00  0.00    +0.027 A 
BRANCH  22  25
ATOM     25  O   UNL     1       3.933  -7.126  24.413  0.00  0.00    -0.456 OA
BRANCH  25  26
ATOM     26  C   UNL     1       2.750  -6.627  23.920  0.00  0.00    +0.128 A 
ATOM     27  C   UNL     1       2.218  -5.391  24.300  0.00  0.00    +0.046 A 
ATOM     28  C   UNL     1       1.087  -4.893  23.661  0.00  0.00    +0.004 A 
ATOM     29  C   UNL     1       0.443  -5.665  22.695  0.00  0.00    +0.000 A 
ATOM     30  C   UNL     1       0.911  -6.944  22.391  0.00  0.00    +0.004 A 
ATOM     31  C   UNL     1       2.066  -7.427  23.006  0.00  0.00    +0.046 A 
ENDBRANCH  25  26
ENDBRANCH  22  25
ENDBRANCH   4  19
TORSDOF 5
ENDMDL
MODEL 4
REMARK VINA RESULT:      -7.6      1.178      1.946
REMARK  Name = 
REMARK  5 active torsions:
REMARK  status: ('A' for Active; 'I' for Inactive)
REMARK    1  A    between atoms: C_2  and  C_4
REMARK    2  A    between atoms: C_7  and  N_8
REMARK    3  A    between atoms: N_11  and  C_12
REMARK    4  A    between atoms: C_15  and  O_16
REMARK    5  A    between atoms: O_16  and  C_17
REMARK                            x       y       z     vdW  Elec       q    Type
REMARK                         _______ _______ _______ _____ _____    ______ ____
ROOT
ATOM      1  N   UNL     1       8.120  -3.144  23.944  0.00  0.00    -0.269 N 
ATOM      2  H   UNL     1       9.078  -3.455  23.991  0.00  0.00    +0.156 HD
ATOM      3  C   UNL     1       7.900  -1.781  23.968  0.00  0.00    +0.308 C 
ATOM      4  N   UNL     1       8.994  -1.040  23.563  0.00  0.00    -0.269 N 
ATOM      5  H   UNL     1       9.703  -1.528  23.036  0.00  0.00    +0.156 HD
ATOM      6  O   UNL     1       6.827  -1.278  24.297  0.00  0.00    -0.252 OA
ENDROOT
BRANCH   1  10
ATOM      7  C   UNL     1       5.133  -6.048  24.687  0.00  0.00    +0.065 A 
ATOM      8  C   UNL     1       5.784  -5.408  25.745  0.00  0.00    +0.018 A 
ATOM      9  C   UNL     1       6.780  -4.452  25.489  0.00  0.00    +0.024 A 
ATOM     10  C   UNL     1       7.106  -4.110  24.173  0.00  0.00    +0.035 A 
ATOM     11  C   UNL     1       6.427  -4.747  23.126  0.00  0.00    +0.024 A 
ATOM     12  C   UNL     1       5.439  -5.697  23.375  0.00  0.00    +0.018 A 
BRANCH   7  16
ATOM     13  N   UNL     1       3.814  -7.459  26.220  0.00  0.00    -0.247 N 
ATOM     14  H   UNL     1       3.943  -6.718  26.905  0.00  0.00    +0.288 HD
ATOM     15  H   UNL     1       2.916  -7.910  26.339  0.00  0.00    +0.288 HD
ATOM     16  C   UNL     1       4.154  -7.140  24.938  0.00  0.00    +0.308 C 
ATOM     17  N   UNL     1       3.610  -7.756  23.944  0.00  0.00    -0.099 NA
ATOM     18  H   UNL     1       2.998  -8.494  24.299  0.00  0.00    +0.363 HD
ENDBRANCH   7  16
ENDBRANCH   1  10
BRANCH   4  19
ATOM     19  C   UNL     1       9.011   0.376  23.512  0.00  0.00    +0.035 A 
ATOM     20  C   UNL     1       8.812   1.003  22.282  0.00  0.00    +0.027 A 
ATOM     21  C   UNL     1       8.747   2.400  22.207  0.00  0.00    +0.048 A 
ATOM     22  C   UNL     1       8.957   3.183  23.347  0.00  0.00    +0.129 A 
ATOM     23  C   UNL     1       9.155   2.568  24.574  0.00  0.00    +0.048 A 
ATOM     24  C   UNL     1       9.199   1.176  24.649  0.00  0.00    +0.027 A 
BRANCH  22  25
ATOM     25  O   UNL     1       8.961   4.560  23.360  0.00  0.00    -0.456 OA
BRANCH  25  26
ATOM     26  C   UNL     1      10.061   5.204  23.877  0.00  0.00    +0.128 A 
ATOM     27  C   UNL     1      11.368   4.965  23.441  0.00  0.00    +0.046 A 
ATOM     28  C   UNL     1      12.415   5.749  23.916  0.00  0.00    +0.004 A 
ATOM     29  C   UNL     1      12.166   6.720  24.885  0.00  0.00    +0.000 A 
ATOM     30  C   UNL     1      10.880   6.886  25.399  0.00  0.00    +0.004 A 
ATOM     31  C   UNL     1       9.825   6.126  24.895  0.00  0.00    +0.046 A 
ENDBRANCH  25  26
ENDBRANCH  22  25
ENDBRANCH   4  19
TORSDOF 5
ENDMDL
MODEL 5
REMARK VINA RESULT:      -7.5      2.670     10.020
REMARK  Name = 
REMARK  5 active torsions:
REMARK  status: ('A' for Active; 'I' for Inactive)
REMARK    1  A    between atoms: C_2  and  C_4
REMARK    2  A    between atoms: C_7  and  N_8
REMARK    3  A    between atoms: N_11  and  C_12
REMARK    4  A    between atoms: C_15  and  O_16
REMARK    5  A    between atoms: O_16  and  C_17
REMARK                            x       y       z     vdW  Elec       q    Type
REMARK                         _______ _______ _______ _____ _____    ______ ____
ROOT
ATOM      1  N   UNL     1       9.721  -1.922  23.317  0.00  0.00    -0.269 N 
ATOM      2  H   UNL     1      10.498  -2.478  22.994  0.00  0.00    +0.156 HD
ATOM      3  C   UNL     1       8.497  -2.552  23.424  0.00  0.00    +0.308 C 
ATOM      4  N   UNL     1       8.595  -3.925  23.553  0.00  0.00    -0.269 N 
ATOM      5  H   UNL     1       9.491  -4.290  23.841  0.00  0.00    +0.156 HD
ATOM      6  O   UNL     1       7.427  -1.947  23.428  0.00  0.00    -0.252 OA
ENDROOT
BRANCH   1  10
ATOM      7  C   UNL     1      10.246   2.278  23.273  0.00  0.00    +0.065 A 
ATOM      8  C   UNL     1      10.038   1.573  22.084  0.00  0.00    +0.018 A 
ATOM      9  C   UNL     1       9.873   0.179  22.108  0.00  0.00    +0.024 A 
ATOM     10  C   UNL     1       9.885  -0.512  23.324  0.00  0.00    +0.035 A 
ATOM     11  C   UNL     1      10.074   0.216  24.506  0.00  0.00    +0.024 A 
ATOM     12  C   UNL     1      10.238   1.599  24.488  0.00  0.00    +0.018 A 
BRANCH   7  16
ATOM     13  N   UNL     1      11.818   4.173  23.152  0.00  0.00    -0.247 N 
ATOM     14  H   UNL     1      12.467   3.520  22.719  0.00  0.00    +0.288 HD
ATOM     15  H   UNL     1      11.939   5.106  22.778  0.00  0.00    +0.288 HD
ATOM     16  C   UNL     1      10.529   3.738  23.258  0.00  0.00    +0.308 C 
ATOM     17  N   UNL     1       9.556   4.583  23.314  0.00  0.00    -0.099 NA
ATOM     18  H   UNL     1       9.934   5.533  23.331  0.00  0.00    +0.363 HD
ENDBRANCH   7  16
ENDBRANCH   1  10
BRANCH   4  19
ATOM     19  C   UNL     1       7.476  -4.786  23.671  0.00  0.00    +0.035 A 
ATOM     20  C   UNL     1       6.853  -4.905  24.913  0.00  0.00    +0.027 A 
ATOM     21  C   UNL     1       5.700  -5.689  25.048  0.00  0.00    +0.048 A 
ATOM     22  C   UNL     1       5.205  -6.419  23.962  0.00  0.00    +0.129 A 
ATOM     23  C   UNL     1       5.818  -6.305  22.724  0.00  0.00    +0.048 A 
ATOM     24  C   UNL     1       6.955  -5.508  22.587  0.00  0.00    +0.027 A 
BRANCH  22  25
ATOM     25  O   UNL     1       4.110  -7.252  24.014  0.00  0.00    -0.456 OA
BRANCH  25  26
ATOM     26  C   UNL     1       2.867  -6.684  24.171  0.00  0.00    +0.128 A 
ATOM     27  C   UNL     1       2.136  -6.751  25.361  0.00  0.00    +0.046 A 
ATOM     28  C   UNL     1       0.946  -6.040  25.489  0.00  0.00    +0.004 A 
ATOM     29  C   UNL     1       0.449  -5.326  24.400  0.00  0.00    +0.000 A 
ATOM     30  C   UNL     1       1.122  -5.346  23.179  0.00  0.00    +0.004 A 
ATOM     31  C   UNL     1       2.334  -6.028  23.063  0.00  0.00    +0.046 A 
ENDBRANCH  25  26
ENDBRANCH  22  25
ENDBRANCH   4  19
TORSDOF 5
ENDMDL
MODEL 6
REMARK VINA RESULT:      -7.0      3.313     10.294
REMARK  Name = 
REMARK  5 active torsions:
REMARK  status: ('A' for Active; 'I' for Inactive)
REMARK    1  A    between atoms: C_2  and  C_4
REMARK    2  A    between atoms: C_7  and  N_8
REMARK    3  A    between atoms: N_11  and  C_12
REMARK    4  A    between atoms: C_15  and  O_16
REMARK    5  A    between atoms: O_16  and  C_17
REMARK                            x       y       z     vdW  Elec       q    Type
REMARK                         _______ _______ _______ _____ _____    ______ ____
ROOT
ATOM      1  N   UNL     1       8.146   2.186  23.026  0.00  0.00    -0.269 N 
ATOM      2  H   UNL     1       7.266   2.581  22.733  0.00  0.00    +0.156 HD
ATOM      3  C   UNL     1       8.134   0.874  23.455  0.00  0.00    +0.308 C 
ATOM      4  N   UNL     1       7.063   0.147  22.972  0.00  0.00    -0.269 N 
ATOM      5  H   UNL     1       6.584   0.524  22.168  0.00  0.00    +0.156 HD
ATOM      6  O   UNL     1       9.007   0.394  24.177  0.00  0.00    -0.252 OA
ENDROOT
BRANCH   1  10
ATOM      7  C   UNL     1      11.300   4.921  23.719  0.00  0.00    +0.065 A 
ATOM      8  C   UNL     1       9.973   5.289  23.954  0.00  0.00    +0.018 A 
ATOM      9  C   UNL     1       8.933   4.378  23.713  0.00  0.00    +0.024 A 
ATOM     10  C   UNL     1       9.218   3.085  23.266  0.00  0.00    +0.035 A 
ATOM     11  C   UNL     1      10.556   2.728  23.056  0.00  0.00    +0.024 A 
ATOM     12  C   UNL     1      11.593   3.628  23.293  0.00  0.00    +0.018 A 
BRANCH   7  16
ATOM     13  N   UNL     1      12.448   6.715  24.962  0.00  0.00    -0.247 N 
ATOM     14  H   UNL     1      11.962   6.364  25.785  0.00  0.00    +0.288 HD
ATOM     15  H   UNL     1      13.360   7.078  25.208  0.00  0.00    +0.288 HD
ATOM     16  C   UNL     1      12.406   5.906  23.865  0.00  0.00    +0.308 C 
ATOM     17  N   UNL     1      13.333   5.968  22.970  0.00  0.00    -0.099 NA
ATOM     18  H   UNL     1      13.984   6.720  23.210  0.00  0.00    +0.363 HD
ENDBRANCH   7  16
ENDBRANCH   1  10
BRANCH   4  19
ATOM     19  C   UNL     1       6.834  -1.217  23.282  0.00  0.00    +0.035 A 
ATOM     20  C   UNL     1       5.908  -1.530  24.277  0.00  0.00    +0.027 A 
ATOM     21  C   UNL     1       5.602  -2.867  24.557  0.00  0.00    +0.048 A 
ATOM     22  C   UNL     1       6.274  -3.903  23.899  0.00  0.00    +0.129 A 
ATOM     23  C   UNL     1       7.195  -3.600  22.907  0.00  0.00    +0.048 A 
ATOM     24  C   UNL     1       7.483  -2.267  22.616  0.00  0.00    +0.027 A 
BRANCH  22  25
ATOM     25  O   UNL     1       6.075  -5.244  24.143  0.00  0.00    -0.456 OA
BRANCH  25  26
ATOM     26  C   UNL     1       5.943  -5.656  25.448  0.00  0.00    +0.128 A 
ATOM     27  C   UNL     1       6.895  -5.393  26.438  0.00  0.00    +0.046 A 
ATOM     28  C   UNL     1       6.632  -5.725  27.763  0.00  0.00    +0.004 A 
ATOM     29  C   UNL     1       5.450  -6.389  28.087  0.00  0.00    +0.000 A 
ATOM     30  C   UNL     1       4.549  -6.748  27.085  0.00  0.00    +0.004 A 
ATOM     31  C   UNL     1       4.796  -6.382  25.762  0.00  0.00    +0.046 A 
ENDBRANCH  25  26
ENDBRANCH  22  25
ENDBRANCH   4  19
TORSDOF 5
ENDMDL
MODEL 7
REMARK VINA RESULT:      -7.0      2.994     10.388
REMARK  Name = 
REMARK  5 active torsions:
REMARK  status: ('A' for Active; 'I' for Inactive)
REMARK    1  A    between atoms: C_2  and  C_4
REMARK    2  A    between atoms: C_7  and  N_8
REMARK    3  A    between atoms: N_11  and  C_12
REMARK    4  A    between atoms: C_15  and  O_16
REMARK    5  A    between atoms: O_16  and  C_17
REMARK                            x       y       z     vdW  Elec       q    Type
REMARK                         _______ _______ _______ _____ _____    ______ ____
ROOT
ATOM      1  N   UNL     1       9.141   0.047  24.665  0.00  0.00    -0.269 N 
ATOM      2  H   UNL     1       9.769  -0.451  25.277  0.00  0.00    +0.156 HD
ATOM      3  C   UNL     1       8.239  -0.708  23.941  0.00  0.00    +0.308 C 
ATOM      4  N   UNL     1       7.983  -1.945  24.501  0.00  0.00    -0.269 N 
ATOM      5  H   UNL     1       8.226  -2.062  25.473  0.00  0.00    +0.156 HD
ATOM      6  O   UNL     1       7.698  -0.306  22.912  0.00  0.00    -0.252 OA
ENDROOT
BRANCH   1  10
ATOM      7  C   UNL     1      10.131   4.070  23.802  0.00  0.00    +0.065 A 
ATOM      8  C   UNL     1      10.944   3.024  23.355  0.00  0.00    +0.018 A 
ATOM      9  C   UNL     1      10.612   1.693  23.653  0.00  0.00    +0.024 A 
ATOM     10  C   UNL     1       9.449   1.401  24.373  0.00  0.00    +0.035 A 
ATOM     11  C   UNL     1       8.637   2.462  24.794  0.00  0.00    +0.024 A 
ATOM     12  C   UNL     1       8.962   3.785  24.501  0.00  0.00    +0.018 A 
BRANCH   7  16
ATOM     13  N   UNL     1      11.834   5.851  23.702  0.00  0.00    -0.247 N 
ATOM     14  H   UNL     1      12.509   5.104  23.552  0.00  0.00    +0.288 HD
ATOM     15  H   UNL     1      12.104   6.689  23.203  0.00  0.00    +0.288 HD
ATOM     16  C   UNL     1      10.523   5.489  23.589  0.00  0.00    +0.308 C 
ATOM     17  N   UNL     1       9.629   6.362  23.270  0.00  0.00    -0.099 NA
ATOM     18  H   UNL     1      10.066   7.284  23.201  0.00  0.00    +0.363 HD
ENDBRANCH   7  16
ENDBRANCH   1  10
BRANCH   4  19
ATOM     19  C   UNL     1       7.098  -2.897  23.935  0.00  0.00    +0.035 A 
ATOM     20  C   UNL     1       7.637  -4.033  23.332  0.00  0.00    +0.027 A 
ATOM     21  C   UNL     1       6.792  -5.030  22.829  0.00  0.00    +0.048 A 
ATOM     22  C   UNL     1       5.403  -4.864  22.856  0.00  0.00    +0.129 A 
ATOM     23  C   UNL     1       4.859  -3.737  23.455  0.00  0.00    +0.048 A 
ATOM     24  C   UNL     1       5.704  -2.755  23.972  0.00  0.00    +0.027 A 
BRANCH  22  25
ATOM     25  O   UNL     1       4.497  -5.765  22.343  0.00  0.00    -0.456 OA
BRANCH  25  26
ATOM     26  C   UNL     1       3.520  -6.254  23.177  0.00  0.00    +0.128 A 
ATOM     27  C   UNL     1       2.155  -6.018  22.985  0.00  0.00    +0.046 A 
ATOM     28  C   UNL     1       1.217  -6.654  23.793  0.00  0.00    +0.004 A 
ATOM     29  C   UNL     1       1.647  -7.465  24.842  0.00  0.00    +0.000 A 
ATOM     30  C   UNL     1       3.009  -7.616  25.101  0.00  0.00    +0.004 A 
ATOM     31  C   UNL     1       3.949  -7.008  24.269  0.00  0.00    +0.046 A 
ENDBRANCH  25  26
ENDBRANCH  22  25
ENDBRANCH   4  19
TORSDOF 5
ENDMDL
MODEL 8
REMARK VINA RESULT:      -6.9      2.235      3.396
REMARK  Name = 
REMARK  5 active torsions:
REMARK  status: ('A' for Active; 'I' for Inactive)
REMARK    1  A    between atoms: C_2  and  C_4
REMARK    2  A    between atoms: C_7  and  N_8
REMARK    3  A    between atoms: N_11  and  C_12
REMARK    4  A    between atoms: C_15  and  O_16
REMARK    5  A    between atoms: O_16  and  C_17
REMARK                            x       y       z     vdW  Elec       q    Type
REMARK                         _______ _______ _______ _____ _____    ______ ____
ROOT
ATOM      1  N   UNL     1       7.375  -5.561  25.862  0.00  0.00    -0.269 N 
ATOM      2  H   UNL     1       8.165  -6.182  25.786  0.00  0.00    +0.156 HD
ATOM      3  C   UNL     1       7.523  -4.287  25.349  0.00  0.00    +0.308 C 
ATOM      4  N   UNL     1       8.513  -4.194  24.389  0.00  0.00    -0.269 N 
ATOM      5  H   UNL     1       8.813  -5.057  23.961  0.00  0.00    +0.156 HD
ATOM      6  O   UNL     1       6.825  -3.336  25.695  0.00  0.00    -0.252 OA
ENDROOT
BRANCH   1  10
ATOM      7  C   UNL     1       4.213  -6.660  28.452  0.00  0.00    +0.065 A 
ATOM      8  C   UNL     1       4.080  -6.796  27.067  0.00  0.00    +0.018 A 
ATOM      9  C   UNL     1       5.131  -6.421  26.216  0.00  0.00    +0.024 A 
ATOM     10  C   UNL     1       6.331  -5.937  26.747  0.00  0.00    +0.035 A 
ATOM     11  C   UNL     1       6.452  -5.828  28.139  0.00  0.00    +0.024 A 
ATOM     12  C   UNL     1       5.412  -6.198  28.988  0.00  0.00    +0.018 A 
BRANCH   7  16
ATOM     13  N   UNL     1       2.336  -8.084  29.181  0.00  0.00    -0.247 N 
ATOM     14  H   UNL     1       2.812  -8.842  28.697  0.00  0.00    +0.288 HD
ATOM     15  H   UNL     1       1.846  -8.426  29.998  0.00  0.00    +0.288 HD
ATOM     16  C   UNL     1       3.073  -6.950  29.363  0.00  0.00    +0.308 C 
ATOM     17  N   UNL     1       2.806  -6.145  30.335  0.00  0.00    -0.099 NA
ATOM     18  H   UNL     1       1.975  -6.477  30.830  0.00  0.00    +0.363 HD
ENDBRANCH   7  16
ENDBRANCH   1  10
BRANCH   4  19
ATOM     19  C   UNL     1       8.854  -2.989  23.725  0.00  0.00    +0.035 A 
ATOM     20  C   UNL     1       9.772  -2.131  24.329  0.00  0.00    +0.027 A 
ATOM     21  C   UNL     1      10.189  -0.968  23.668  0.00  0.00    +0.048 A 
ATOM     22  C   UNL     1       9.633  -0.616  22.433  0.00  0.00    +0.129 A 
ATOM     23  C   UNL     1       8.720  -1.464  21.825  0.00  0.00    +0.048 A 
ATOM     24  C   UNL     1       8.322  -2.631  22.477  0.00  0.00    +0.027 A 
BRANCH  22  25
ATOM     25  O   UNL     1       9.944   0.529  21.734  0.00  0.00    -0.456 OA
BRANCH  25  26
ATOM     26  C   UNL     1       9.452   1.728  22.195  0.00  0.00    +0.128 A 
ATOM     27  C   UNL     1       8.191   2.225  21.852  0.00  0.00    +0.046 A 
ATOM     28  C   UNL     1       7.708   3.379  22.462  0.00  0.00    +0.004 A 
ATOM     29  C   UNL     1       8.517   4.078  23.357  0.00  0.00    +0.000 A 
ATOM     30  C   UNL     1       9.815   3.642  23.618  0.00  0.00    +0.004 A 
ATOM     31  C   UNL     1      10.286   2.465  23.035  0.00  0.00    +0.046 A 
ENDBRANCH  25  26
ENDBRANCH  22  25
ENDBRANCH   4  19
TORSDOF 5
ENDMDL
MODEL 9
REMARK VINA RESULT:      -6.6      2.999     10.069
REMARK  Name = 
REMARK  5 active torsions:
REMARK  status: ('A' for Active; 'I' for Inactive)
REMARK    1  A    between atoms: C_2  and  C_4
REMARK    2  A    between atoms: C_7  and  N_8
REMARK    3  A    between atoms: N_11  and  C_12
REMARK    4  A    between atoms: C_15  and  O_16
REMARK    5  A    between atoms: O_16  and  C_17
REMARK                            x       y       z     vdW  Elec       q    Type
REMARK                         _______ _______ _______ _____ _____    ______ ____
ROOT
ATOM      1  N   UNL     1       8.894  -0.528  22.652  0.00  0.00    -0.269 N 
ATOM      2  H   UNL     1       9.656  -0.876  22.090  0.00  0.00    +0.156 HD
ATOM      3  C   UNL     1       7.871  -1.410  22.939  0.00  0.00    +0.308 C 
ATOM      4  N   UNL     1       8.248  -2.737  22.853  0.00  0.00    -0.269 N 
ATOM      5  H   UNL     1       9.238  -2.930  22.880  0.00  0.00    +0.156 HD
ATOM      6  O   UNL     1       6.741  -1.049  23.265  0.00  0.00    -0.252 OA
ENDROOT
BRANCH   1  10
ATOM      7  C   UNL     1       8.594   3.655  23.217  0.00  0.00    +0.065 A 
ATOM      8  C   UNL     1       9.388   2.877  24.063  0.00  0.00    +0.018 A 
ATOM      9  C   UNL     1       9.475   1.488  23.873  0.00  0.00    +0.024 A 
ATOM     10  C   UNL     1       8.792   0.878  22.817  0.00  0.00    +0.035 A 
ATOM     11  C   UNL     1       8.017   1.678  21.967  0.00  0.00    +0.024 A 
ATOM     12  C   UNL     1       7.928   3.056  22.151  0.00  0.00    +0.018 A 
BRANCH   7  16
ATOM     13  N   UNL     1       7.322   5.534  24.182  0.00  0.00    -0.247 N 
ATOM     14  H   UNL     1       6.917   4.848  24.815  0.00  0.00    +0.288 HD
ATOM     15  H   UNL     1       7.421   6.433  24.639  0.00  0.00    +0.288 HD
ATOM     16  C   UNL     1       8.404   5.109  23.468  0.00  0.00    +0.308 C 
ATOM     17  N   UNL     1       9.276   5.955  23.035  0.00  0.00    -0.099 NA
ATOM     18  H   UNL     1       8.968   6.904  23.263  0.00  0.00    +0.363 HD
ENDBRANCH   7  16
ENDBRANCH   1  10
BRANCH   4  19
ATOM     19  C   UNL     1       7.370  -3.823  23.095  0.00  0.00    +0.035 A 
ATOM     20  C   UNL     1       6.927  -4.578  22.010  0.00  0.00    +0.027 A 
ATOM     21  C   UNL     1       6.119  -5.703  22.220  0.00  0.00    +0.048 A 
ATOM     22  C   UNL     1       5.685  -6.036  23.508  0.00  0.00    +0.129 A 
ATOM     23  C   UNL     1       6.123  -5.290  24.592  0.00  0.00    +0.048 A 
ATOM     24  C   UNL     1       6.944  -4.182  24.382  0.00  0.00    +0.027 A 
BRANCH  22  25
ATOM     25  O   UNL     1       4.852  -7.092  23.804  0.00  0.00    -0.456 OA
BRANCH  25  26
ATOM     26  C   UNL     1       3.529  -6.823  24.069  0.00  0.00    +0.128 A 
ATOM     27  C   UNL     1       2.851  -7.324  25.184  0.00  0.00    +0.046 A 
ATOM     28  C   UNL     1       1.553  -6.902  25.457  0.00  0.00    +0.004 A 
ATOM     29  C   UNL     1       0.907  -6.040  24.573  0.00  0.00    +0.000 A 
ATOM     30  C   UNL     1       1.544  -5.624  23.404  0.00  0.00    +0.004 A 
ATOM     31  C   UNL     1       2.859  -6.018  23.149  0.00  0.00    +0.046 A 
ENDBRANCH  25  26
ENDBRANCH  22  25
ENDBRANCH   4  19
TORSDOF 5
ENDMDL
