MODEL 1
REMARK VINA RESULT:      -6.9      0.000      0.000
REMARK  Name = 
REMARK  4 active torsions:
REMARK  status: ('A' for Active; 'I' for Inactive)
REMARK    1  A    between atoms: C_1  and  N_2
REMARK    2  A    between atoms: C_13  and  C_14
REMARK    3  A    between atoms: C_14  and  N_15
REMARK    4  A    between atoms: C_19  and  C_20
REMARK                            x       y       z     vdW  Elec       q    Type
REMARK                         _______ _______ _______ _____ _____    ______ ____
ROOT
ATOM      1  C   UNL     1       5.665  -6.549  27.714  0.00  0.00    +0.149 C 
ATOM      2  N   UNL     1       5.861  -6.012  26.383  0.00  0.00    -0.346 N 
ATOM      3  C   UNL     1       4.946  -6.148  25.355  0.00  0.00    +0.050 A 
ATOM      4  C   UNL     1       5.459  -5.464  24.246  0.00  0.00    +0.011 A 
ATOM      5  C   UNL     1       4.713  -5.449  23.050  0.00  0.00    +0.011 A 
ATOM      6  C   UNL     1       3.479  -6.105  22.996  0.00  0.00    +0.001 A 
ATOM      7  C   UNL     1       2.984  -6.771  24.112  0.00  0.00    +0.002 A 
ATOM      8  C   UNL     1       6.692  -4.887  24.648  0.00  0.00    +0.046 A 
ATOM      9  C   UNL     1       7.623  -4.020  23.936  0.00  0.00    +0.170 C 
ATOM     10  C   UNL     1       8.683  -3.356  24.824  0.00  0.00    +0.080 C 
ATOM     11  C   UNL     1       9.246  -4.399  25.816  0.00  0.00    +0.019 C 
ATOM     12  C   UNL     1       8.144  -4.923  26.756  0.00  0.00    +0.055 C 
ATOM     13  O   UNL     1       7.528  -3.785  22.734  0.00  0.00    -0.292 OA
ATOM     14  C   UNL     1       3.706  -6.807  25.309  0.00  0.00    +0.026 A 
ATOM     15  C   UNL     1       6.936  -5.277  25.954  0.00  0.00    +0.030 A 
ENDROOT
BRANCH  10  16
ATOM     16  C   UNL     1       9.756  -2.703  23.950  0.00  0.00    +0.134 C 
BRANCH  16  17
ATOM     17  N   UNL     1       9.720  -1.252  23.987  0.00  0.00    -0.334 N 
ATOM     18  C   UNL     1       9.601  -0.396  22.916  0.00  0.00    +0.107 A 
ATOM     19  C   UNL     1       9.409  -0.841  21.513  0.00  0.00    +0.086 C 
ATOM     20  N   UNL     1       9.689   0.857  23.317  0.00  0.00    -0.241 NA
ATOM     21  C   UNL     1       9.829   0.811  24.677  0.00  0.00    +0.130 A 
ATOM     22  C   UNL     1       9.832  -0.489  25.120  0.00  0.00    +0.107 A 
ENDBRANCH  16  17
ENDBRANCH  10  16
TORSDOF 2
ENDMDL
MODEL 2
REMARK VINA RESULT:      -6.6      3.558      8.953
REMARK  Name = 
REMARK  4 active torsions:
REMARK  status: ('A' for Active; 'I' for Inactive)
REMARK    1  A    between atoms: C_1  and  N_2
REMARK    2  A    between atoms: C_13  and  C_14
REMARK    3  A    between atoms: C_14  and  N_15
REMARK    4  A    between atoms: C_19  and  C_20
REMARK                            x       y       z     vdW  Elec       q    Type
REMARK                         _______ _______ _______ _____ _____    ______ ____
ROOT
ATOM      1  C   UNL     1       7.126   5.410  24.784  0.00  0.00    +0.149 C 
ATOM      2  N   UNL     1       8.159   4.585  24.193  0.00  0.00    -0.346 N 
ATOM      3  C   UNL     1       9.485   4.965  24.092  0.00  0.00    +0.050 A 
ATOM      4  C   UNL     1      10.182   3.899  23.513  0.00  0.00    +0.011 A 
ATOM      5  C   UNL     1      11.569   4.029  23.295  0.00  0.00    +0.011 A 
ATOM      6  C   UNL     1      12.220   5.210  23.666  0.00  0.00    +0.001 A 
ATOM      7  C   UNL     1      11.509   6.254  24.249  0.00  0.00    +0.002 A 
ATOM      8  C   UNL     1       9.243   2.856  23.298  0.00  0.00    +0.046 A 
ATOM      9  C   UNL     1       9.414   1.501  22.789  0.00  0.00    +0.170 C 
ATOM     10  C   UNL     1       8.206   0.580  23.005  0.00  0.00    +0.080 C 
ATOM     11  C   UNL     1       6.909   1.348  22.662  0.00  0.00    +0.019 C 
ATOM     12  C   UNL     1       6.718   2.560  23.594  0.00  0.00    +0.055 C 
ATOM     13  O   UNL     1      10.462   1.106  22.285  0.00  0.00    -0.292 OA
ATOM     14  C   UNL     1      10.132   6.153  24.471  0.00  0.00    +0.026 A 
ATOM     15  C   UNL     1       7.998   3.322  23.685  0.00  0.00    +0.030 A 
ENDROOT
BRANCH  10  16
ATOM     16  C   UNL     1       8.384  -0.708  22.199  0.00  0.00    +0.134 C 
BRANCH  16  17
ATOM     17  N   UNL     1       8.521  -1.889  23.031  0.00  0.00    -0.334 N 
ATOM     18  C   UNL     1       7.550  -2.822  23.316  0.00  0.00    +0.107 A 
ATOM     19  C   UNL     1       6.184  -2.805  22.736  0.00  0.00    +0.086 C 
ATOM     20  N   UNL     1       8.007  -3.714  24.173  0.00  0.00    -0.241 NA
ATOM     21  C   UNL     1       9.309  -3.374  24.417  0.00  0.00    +0.130 A 
ATOM     22  C   UNL     1       9.658  -2.254  23.703  0.00  0.00    +0.107 A 
ENDBRANCH  16  17
ENDBRANCH  10  16
TORSDOF 2
ENDMDL
MODEL 3
REMARK VINA RESULT:      -6.5      2.213      3.559
REMARK  Name = 
REMARK  4 active torsions:
REMARK  status: ('A' for Active; 'I' for Inactive)
REMARK    1  A    between atoms: C_1  and  N_2
REMARK    2  A    between atoms: C_13  and  C_14
REMARK    3  A    between atoms: C_14  and  N_15
REMARK    4  A    between atoms: C_19  and  C_20
REMARK                            x       y       z     vdW  Elec       q    Type
REMARK                         _______ _______ _______ _____ _____    ______ ____
ROOT
ATOM      1  C   UNL     1       9.456  -5.094  25.264  0.00  0.00    +0.149 C 
ATOM      2  N   UNL     1       8.538  -4.144  24.671  0.00  0.00    -0.346 N 
ATOM      3  C   UNL     1       7.161  -4.246  24.756  0.00  0.00    +0.050 A 
ATOM      4  C   UNL     1       6.618  -3.132  24.108  0.00  0.00    +0.011 A 
ATOM      5  C   UNL     1       5.216  -2.993  24.050  0.00  0.00    +0.011 A 
ATOM      6  C   UNL     1       4.400  -3.961  24.643  0.00  0.00    +0.001 A 
ATOM      7  C   UNL     1       4.961  -5.057  25.291  0.00  0.00    +0.002 A 
ATOM      8  C   UNL     1       7.708  -2.341  23.659  0.00  0.00    +0.046 A 
ATOM      9  C   UNL     1       7.742  -1.048  22.987  0.00  0.00    +0.170 C 
ATOM     10  C   UNL     1       9.124  -0.382  22.953  0.00  0.00    +0.080 C 
ATOM     11  C   UNL     1      10.192  -1.439  22.591  0.00  0.00    +0.019 C 
ATOM     12  C   UNL     1      10.259  -2.548  23.657  0.00  0.00    +0.055 C 
ATOM     13  O   UNL     1       6.736  -0.502  22.541  0.00  0.00    -0.292 OA
ATOM     14  C   UNL     1       6.348  -5.222  25.358  0.00  0.00    +0.026 A 
ATOM     15  C   UNL     1       8.877  -3.010  23.980  0.00  0.00    +0.030 A 
ENDROOT
BRANCH  10  16
ATOM     16  C   UNL     1       9.100   0.814  21.999  0.00  0.00    +0.134 C 
BRANCH  16  17
ATOM     17  N   UNL     1       9.247   2.090  22.676  0.00  0.00    -0.334 N 
ATOM     18  C   UNL     1       8.313   3.097  22.763  0.00  0.00    +0.107 A 
ATOM     19  C   UNL     1       6.933   3.000  22.224  0.00  0.00    +0.086 C 
ATOM     20  N   UNL     1       8.821   4.143  23.382  0.00  0.00    -0.241 NA
ATOM     21  C   UNL     1      10.096   3.793  23.736  0.00  0.00    +0.130 A 
ATOM     22  C   UNL     1      10.377   2.514  23.325  0.00  0.00    +0.107 A 
ENDBRANCH  16  17
ENDBRANCH  10  16
TORSDOF 2
ENDMDL
MODEL 4
REMARK VINA RESULT:      -6.5      1.924      2.710
REMARK  Name = 
REMARK  4 active torsions:
REMARK  status: ('A' for Active; 'I' for Inactive)
REMARK    1  A    between atoms: C_1  and  N_2
REMARK    2  A    between atoms: C_13  and  C_14
REMARK    3  A    between atoms: C_14  and  N_15
REMARK    4  A    between atoms: C_19  and  C_20
REMARK                            x       y       z     vdW  Elec       q    Type
REMARK                         _______ _______ _______ _____ _____    ______ ____
ROOT
ATOM      1  C   UNL     1       5.514  -4.893  26.486  0.00  0.00    +0.149 C 
ATOM      2  N   UNL     1       6.270  -4.338  25.382  0.00  0.00    -0.346 N 
ATOM      3  C   UNL     1       6.240  -4.845  24.096  0.00  0.00    +0.050 A 
ATOM      4  C   UNL     1       7.052  -4.026  23.305  0.00  0.00    +0.011 A 
ATOM      5  C   UNL     1       7.198  -4.328  21.935  0.00  0.00    +0.011 A 
ATOM      6  C   UNL     1       6.526  -5.429  21.395  0.00  0.00    +0.001 A 
ATOM      7  C   UNL     1       5.715  -6.225  22.197  0.00  0.00    +0.002 A 
ATOM      8  C   UNL     1       7.545  -2.994  24.145  0.00  0.00    +0.046 A 
ATOM      9  C   UNL     1       8.375  -1.832  23.852  0.00  0.00    +0.170 C 
ATOM     10  C   UNL     1       8.426  -0.784  24.972  0.00  0.00    +0.080 C 
ATOM     11  C   UNL     1       8.596  -1.498  26.333  0.00  0.00    +0.019 C 
ATOM     12  C   UNL     1       7.394  -2.412  26.634  0.00  0.00    +0.055 C 
ATOM     13  O   UNL     1       8.937  -1.670  22.772  0.00  0.00    -0.292 OA
ATOM     14  C   UNL     1       5.558  -5.951  23.560  0.00  0.00    +0.026 A 
ATOM     15  C   UNL     1       7.083  -3.236  25.428  0.00  0.00    +0.030 A 
ENDROOT
BRANCH  10  16
ATOM     16  C   UNL     1       9.527   0.237  24.677  0.00  0.00    +0.134 C 
BRANCH  16  17
ATOM     17  N   UNL     1       9.011   1.545  24.314  0.00  0.00    -0.334 N 
ATOM     18  C   UNL     1       9.183   2.203  23.118  0.00  0.00    +0.107 A 
ATOM     19  C   UNL     1       9.883   1.625  21.944  0.00  0.00    +0.086 C 
ATOM     20  N   UNL     1       8.646   3.406  23.173  0.00  0.00    -0.241 NA
ATOM     21  C   UNL     1       8.083   3.513  24.416  0.00  0.00    +0.130 A 
ATOM     22  C   UNL     1       8.280   2.361  25.137  0.00  0.00    +0.107 A 
ENDBRANCH  16  17
ENDBRANCH  10  16
TORSDOF 2
ENDMDL
MODEL 5
REMARK VINA RESULT:      -6.5      2.888      8.203
REMARK  Name = 
REMARK  4 active torsions:
REMARK  status: ('A' for Active; 'I' for Inactive)
REMARK    1  A    between atoms: C_1  and  N_2
REMARK    2  A    between atoms: C_13  and  C_14
REMARK    3  A    between atoms: C_14  and  N_15
REMARK    4  A    between atoms: C_19  and  C_20
REMARK                            x       y       z     vdW  Elec       q    Type
REMARK                         _______ _______ _______ _____ _____    ______ ____
ROOT
ATOM      1  C   UNL     1       6.742   4.059  24.948  0.00  0.00    +0.149 C 
ATOM      2  N   UNL     1       7.914   3.324  24.516  0.00  0.00    -0.346 N 
ATOM      3  C   UNL     1       9.108   3.921  24.157  0.00  0.00    +0.050 A 
ATOM      4  C   UNL     1      10.010   2.897  23.847  0.00  0.00    +0.011 A 
ATOM      5  C   UNL     1      11.317   3.239  23.443  0.00  0.00    +0.011 A 
ATOM      6  C   UNL     1      11.688   4.585  23.368  0.00  0.00    +0.001 A 
ATOM      7  C   UNL     1      10.778   5.587  23.690  0.00  0.00    +0.002 A 
ATOM      8  C   UNL     1       9.333   1.668  24.061  0.00  0.00    +0.046 A 
ATOM      9  C   UNL     1       9.794   0.289  23.963  0.00  0.00    +0.170 C 
ATOM     10  C   UNL     1       8.846  -0.747  24.581  0.00  0.00    +0.080 C 
ATOM     11  C   UNL     1       7.392  -0.416  24.174  0.00  0.00    +0.019 C 
ATOM     12  C   UNL     1       6.962   0.959  24.717  0.00  0.00    +0.055 C 
ATOM     13  O   UNL     1      10.883  -0.017  23.485  0.00  0.00    -0.292 OA
ATOM     14  C   UNL     1       9.474   5.276  24.088  0.00  0.00    +0.026 A 
ATOM     15  C   UNL     1       8.031   1.961  24.430  0.00  0.00    +0.030 A 
ENDROOT
BRANCH  10  16
ATOM     16  C   UNL     1       9.286  -2.157  24.181  0.00  0.00    +0.134 C 
BRANCH  16  17
ATOM     17  N   UNL     1       8.567  -3.202  24.886  0.00  0.00    -0.334 N 
ATOM     18  C   UNL     1       7.721  -4.142  24.341  0.00  0.00    +0.107 A 
ATOM     19  C   UNL     1       7.463  -4.284  22.887  0.00  0.00    +0.086 C 
ATOM     20  N   UNL     1       7.180  -4.879  25.291  0.00  0.00    -0.241 NA
ATOM     21  C   UNL     1       7.715  -4.433  26.468  0.00  0.00    +0.130 A 
ATOM     22  C   UNL     1       8.595  -3.404  26.241  0.00  0.00    +0.107 A 
ENDBRANCH  16  17
ENDBRANCH  10  16
TORSDOF 2
ENDMDL
MODEL 6
REMARK VINA RESULT:      -6.5      2.014      7.302
REMARK  Name = 
REMARK  4 active torsions:
REMARK  status: ('A' for Active; 'I' for Inactive)
REMARK    1  A    between atoms: C_1  and  N_2
REMARK    2  A    between atoms: C_13  and  C_14
REMARK    3  A    between atoms: C_14  and  N_15
REMARK    4  A    between atoms: C_19  and  C_20
REMARK                            x       y       z     vdW  Elec       q    Type
REMARK                         _______ _______ _______ _____ _____    ______ ____
ROOT
ATOM      1  C   UNL     1      10.125   1.866  22.237  0.00  0.00    +0.149 C 
ATOM      2  N   UNL     1       9.495   1.228  23.375  0.00  0.00    -0.346 N 
ATOM      3  C   UNL     1       8.790   1.912  24.348  0.00  0.00    +0.050 A 
ATOM      4  C   UNL     1       8.295   0.963  25.250  0.00  0.00    +0.011 A 
ATOM      5  C   UNL     1       7.532   1.402  26.351  0.00  0.00    +0.011 A 
ATOM      6  C   UNL     1       7.279   2.767  26.517  0.00  0.00    +0.001 A 
ATOM      7  C   UNL     1       7.772   3.693  25.603  0.00  0.00    +0.002 A 
ATOM      8  C   UNL     1       8.697  -0.312  24.773  0.00  0.00    +0.046 A 
ATOM      9  C   UNL     1       8.413  -1.654  25.267  0.00  0.00    +0.170 C 
ATOM     10  C   UNL     1       8.769  -2.783  24.290  0.00  0.00    +0.080 C 
ATOM     11  C   UNL     1      10.152  -2.496  23.660  0.00  0.00    +0.019 C 
ATOM     12  C   UNL     1      10.129  -1.191  22.842  0.00  0.00    +0.055 C 
ATOM     13  O   UNL     1       7.873  -1.865  26.349  0.00  0.00    -0.292 OA
ATOM     14  C   UNL     1       8.536   3.285  24.505  0.00  0.00    +0.026 A 
ATOM     15  C   UNL     1       9.471  -0.116  23.642  0.00  0.00    +0.030 A 
ENDROOT
BRANCH  10  16
ATOM     16  C   UNL     1       8.693  -4.132  25.007  0.00  0.00    +0.134 C 
BRANCH  16  17
ATOM     17  N   UNL     1       7.401  -4.780  24.870  0.00  0.00    -0.334 N 
ATOM     18  C   UNL     1       6.653  -5.360  25.869  0.00  0.00    +0.107 A 
ATOM     19  C   UNL     1       7.028  -5.345  27.305  0.00  0.00    +0.086 C 
ATOM     20  N   UNL     1       5.573  -5.926  25.366  0.00  0.00    -0.241 NA
ATOM     21  C   UNL     1       5.605  -5.674  24.022  0.00  0.00    +0.130 A 
ATOM     22  C   UNL     1       6.723  -4.947  23.692  0.00  0.00    +0.107 A 
ENDBRANCH  16  17
ENDBRANCH  10  16
TORSDOF 2
ENDMDL
MODEL 7
REMARK VINA RESULT:      -6.5      3.577      8.705
REMARK  Name = 
REMARK  4 active torsions:
REMARK  status: ('A' for Active; 'I' for Inactive)
REMARK    1  A    between atoms: C_1  and  N_2
REMARK    2  A    between atoms: C_13  and  C_14
REMARK    3  A    between atoms: C_14  and  N_15
REMARK    4  A    between atoms: C_19  and  C_20
REMARK                            x       y       z     vdW  Elec       q    Type
REMARK                         _______ _______ _______ _____ _____    ______ ____
ROOT
ATOM      1  C   UNL     1      11.863   4.266  23.274  0.00  0.00    +0.149 C 
ATOM      2  N   UNL     1      10.519   3.938  23.701  0.00  0.00    -0.346 N 
ATOM      3  C   UNL     1       9.495   4.862  23.801  0.00  0.00    +0.050 A 
ATOM      4  C   UNL     1       8.344   4.170  24.195  0.00  0.00    +0.011 A 
ATOM      5  C   UNL     1       7.144   4.888  24.373  0.00  0.00    +0.011 A 
ATOM      6  C   UNL     1       7.124   6.268  24.147  0.00  0.00    +0.001 A 
ATOM      7  C   UNL     1       8.277   6.935  23.746  0.00  0.00    +0.002 A 
ATOM      8  C   UNL     1       8.699   2.799  24.298  0.00  0.00    +0.046 A 
ATOM      9  C   UNL     1       7.897   1.621  24.603  0.00  0.00    +0.170 C 
ATOM     10  C   UNL     1       8.587   0.284  24.307  0.00  0.00    +0.080 C 
ATOM     11  C   UNL     1      10.049   0.341  24.808  0.00  0.00    +0.019 C 
ATOM     12  C   UNL     1      10.848   1.428  24.065  0.00  0.00    +0.055 C 
ATOM     13  O   UNL     1       6.737   1.690  25.003  0.00  0.00    -0.292 OA
ATOM     14  C   UNL     1       9.482   6.248  23.568  0.00  0.00    +0.026 A 
ATOM     15  C   UNL     1      10.053   2.692  24.031  0.00  0.00    +0.030 A 
ENDROOT
BRANCH  10  16
ATOM     16  C   UNL     1       7.779  -0.864  24.916  0.00  0.00    +0.134 C 
BRANCH  16  17
ATOM     17  N   UNL     1       7.455  -1.906  23.958  0.00  0.00    -0.334 N 
ATOM     18  C   UNL     1       8.194  -3.031  23.673  0.00  0.00    +0.107 A 
ATOM     19  C   UNL     1       9.444  -3.407  24.380  0.00  0.00    +0.086 C 
ATOM     20  N   UNL     1       7.636  -3.711  22.691  0.00  0.00    -0.241 NA
ATOM     21  C   UNL     1       6.495  -3.032  22.360  0.00  0.00    +0.130 A 
ATOM     22  C   UNL     1       6.350  -1.917  23.147  0.00  0.00    +0.107 A 
ENDBRANCH  16  17
ENDBRANCH  10  16
TORSDOF 2
ENDMDL
MODEL 8
REMARK VINA RESULT:      -6.4      1.496      3.174
REMARK  Name = 
REMARK  4 active torsions:
REMARK  status: ('A' for Active; 'I' for Inactive)
REMARK    1  A    between atoms: C_1  and  N_2
REMARK    2  A    between atoms: C_13  and  C_14
REMARK    3  A    between atoms: C_14  and  N_15
REMARK    4  A    between atoms: C_19  and  C_20
REMARK                            x       y       z     vdW  Elec       q    Type
REMARK                         _______ _______ _______ _____ _____    ______ ____
ROOT
ATOM      1  C   UNL     1       4.560  -5.817  22.988  0.00  0.00    +0.149 C 
ATOM      2  N   UNL     1       5.541  -5.245  23.887  0.00  0.00    -0.346 N 
ATOM      3  C   UNL     1       5.655  -5.589  25.222  0.00  0.00    +0.050 A 
ATOM      4  C   UNL     1       6.734  -4.870  25.748  0.00  0.00    +0.011 A 
ATOM      5  C   UNL     1       7.068  -5.039  27.107  0.00  0.00    +0.011 A 
ATOM      6  C   UNL     1       6.325  -5.921  27.898  0.00  0.00    +0.001 A 
ATOM      7  C   UNL     1       5.262  -6.633  27.352  0.00  0.00    +0.002 A 
ATOM      8  C   UNL     1       7.284  -4.108  24.684  0.00  0.00    +0.046 A 
ATOM      9  C   UNL     1       8.449  -3.234  24.632  0.00  0.00    +0.170 C 
ATOM     10  C   UNL     1       8.893  -2.845  23.216  0.00  0.00    +0.080 C 
ATOM     11  C   UNL     1       7.650  -2.481  22.372  0.00  0.00    +0.019 C 
ATOM     12  C   UNL     1       6.706  -3.689  22.226  0.00  0.00    +0.055 C 
ATOM     13  O   UNL     1       9.068  -2.889  25.635  0.00  0.00    -0.292 OA
ATOM     14  C   UNL     1       4.906  -6.481  26.008  0.00  0.00    +0.026 A 
ATOM     15  C   UNL     1       6.503  -4.325  23.561  0.00  0.00    +0.030 A 
ENDROOT
BRANCH  10  16
ATOM     16  C   UNL     1       9.931  -1.723  23.288  0.00  0.00    +0.134 C 
BRANCH  16  17
ATOM     17  N   UNL     1       9.432  -0.450  22.801  0.00  0.00    -0.334 N 
ATOM     18  C   UNL     1       8.843   0.550  23.540  0.00  0.00    +0.107 A 
ATOM     19  C   UNL     1       8.690   0.512  25.016  0.00  0.00    +0.086 C 
ATOM     20  N   UNL     1       8.438   1.527  22.753  0.00  0.00    -0.241 NA
ATOM     21  C   UNL     1       8.806   1.170  21.485  0.00  0.00    +0.130 A 
ATOM     22  C   UNL     1       9.443  -0.047  21.491  0.00  0.00    +0.107 A 
ENDBRANCH  16  17
ENDBRANCH  10  16
TORSDOF 2
ENDMDL
MODEL 9
REMARK VINA RESULT:      -6.4      2.375      7.306
REMARK  Name = 
REMARK  4 active torsions:
REMARK  status: ('A' for Active; 'I' for Inactive)
REMARK    1  A    between atoms: C_1  and  N_2
REMARK    2  A    between atoms: C_13  and  C_14
REMARK    3  A    between atoms: C_14  and  N_15
REMARK    4  A    between atoms: C_19  and  C_20
REMARK                            x       y       z     vdW  Elec       q    Type
REMARK                         _______ _______ _______ _____ _____    ______ ____
ROOT
ATOM      1  C   UNL     1      10.194   1.865  22.232  0.00  0.00    +0.149 C 
ATOM      2  N   UNL     1       9.360   1.282  23.263  0.00  0.00    -0.346 N 
ATOM      3  C   UNL     1       8.738   2.015  24.256  0.00  0.00    +0.050 A 
ATOM      4  C   UNL     1       7.990   1.121  25.030  0.00  0.00    +0.011 A 
ATOM      5  C   UNL     1       7.251   1.618  26.123  0.00  0.00    +0.011 A 
ATOM      6  C   UNL     1       7.272   2.987  26.408  0.00  0.00    +0.001 A 
ATOM      7  C   UNL     1       8.015   3.860  25.620  0.00  0.00    +0.002 A 
ATOM      8  C   UNL     1       8.155  -0.166  24.454  0.00  0.00    +0.046 A 
ATOM      9  C   UNL     1       7.565  -1.454  24.795  0.00  0.00    +0.170 C 
ATOM     10  C   UNL     1       7.755  -2.545  23.735  0.00  0.00    +0.080 C 
ATOM     11  C   UNL     1       9.211  -2.507  23.217  0.00  0.00    +0.019 C 
ATOM     12  C   UNL     1       9.521  -1.163  22.532  0.00  0.00    +0.055 C 
ATOM     13  O   UNL     1       6.910  -1.636  25.819  0.00  0.00    -0.292 OA
ATOM     14  C   UNL     1       8.761   3.393  24.533  0.00  0.00    +0.026 A 
ATOM     15  C   UNL     1       9.039  -0.044  23.394  0.00  0.00    +0.030 A 
ENDROOT
BRANCH  10  16
ATOM     16  C   UNL     1       7.347  -3.904  24.309  0.00  0.00    +0.134 C 
BRANCH  16  17
ATOM     17  N   UNL     1       6.096  -4.402  23.767  0.00  0.00    -0.334 N 
ATOM     18  C   UNL     1       5.932  -5.226  22.677  0.00  0.00    +0.107 A 
ATOM     19  C   UNL     1       7.053  -5.816  21.905  0.00  0.00    +0.086 C 
ATOM     20  N   UNL     1       4.650  -5.405  22.424  0.00  0.00    -0.241 NA
ATOM     21  C   UNL     1       3.973  -4.714  23.391  0.00  0.00    +0.130 A 
ATOM     22  C   UNL     1       4.850  -4.097  24.250  0.00  0.00    +0.107 A 
ENDBRANCH  16  17
ENDBRANCH  10  16
TORSDOF 2
ENDMDL
