MODEL 1
REMARK VINA RESULT:      -6.8      0.000      0.000
REMARK  Name = 
REMARK  0 active torsions:
REMARK  status: ('A' for Active; 'I' for Inactive)
REMARK                            x       y       z     vdW  Elec       q    Type
REMARK                         _______ _______ _______ _____ _____    ______ ____
ROOT
ATOM      1  F   UNL     1      10.061   0.153  25.344  0.00  0.00    -0.205 F 
ATOM      2  C   UNL     1       9.407  -0.696  24.541  0.00  0.00    +0.124 A 
ATOM      3  C   UNL     1       9.109  -1.976  24.999  0.00  0.00    +0.048 A 
ATOM      4  C   UNL     1       8.435  -2.888  24.167  0.00  0.00    +0.029 A 
ATOM      5  C   UNL     1       8.045  -2.460  22.888  0.00  0.00    +0.126 A 
ATOM      6  O   UNL     1       7.377  -3.252  21.993  0.00  0.00    -0.492 OA
ATOM      7  C   UNL     1       6.759  -4.412  22.548  0.00  0.00    +0.232 C 
ATOM      8  C   UNL     1       7.709  -5.181  23.446  0.00  0.00    +0.081 C 
ATOM      9  C   UNL     1       8.359  -1.174  22.437  0.00  0.00    +0.049 A 
ATOM     10  C   UNL     1       8.111  -4.291  24.619  0.00  0.00    +0.144 C 
ATOM     11  C   UNL     1       9.252  -4.980  25.399  0.00  0.00    +0.249 C 
ATOM     12  O   UNL     1      10.375  -5.232  24.988  0.00  0.00    -0.273 OA
ATOM     13  N   UNL     1       8.808  -5.266  26.654  0.00  0.00    -0.238 N 
ATOM     14  H   UNL     1       9.369  -5.679  27.380  0.00  0.00    +0.159 HD
ATOM     15  C   UNL     1       7.547  -4.815  26.836  0.00  0.00    +0.307 C 
ATOM     16  O   UNL     1       6.913  -4.850  27.875  0.00  0.00    -0.252 OA
ATOM     17  N   UNL     1       7.097  -4.278  25.655  0.00  0.00    -0.281 N 
ATOM     18  H   UNL     1       6.213  -3.788  25.612  0.00  0.00    +0.152 HD
ATOM     19  C   UNL     1       9.043  -0.289  23.265  0.00  0.00    +0.042 A 
ENDROOT
TORSDOF 0
ENDMDL
MODEL 2
REMARK VINA RESULT:      -6.7      3.385      4.518
REMARK  Name = 
REMARK  0 active torsions:
REMARK  status: ('A' for Active; 'I' for Inactive)
REMARK                            x       y       z     vdW  Elec       q    Type
REMARK                         _______ _______ _______ _____ _____    ______ ____
ROOT
ATOM      1  F   UNL     1       4.016  -6.367  23.186  0.00  0.00    -0.205 F 
ATOM      2  C   UNL     1       5.260  -5.954  23.462  0.00  0.00    +0.124 A 
ATOM      3  C   UNL     1       5.610  -5.674  24.779  0.00  0.00    +0.048 A 
ATOM      4  C   UNL     1       6.907  -5.227  25.088  0.00  0.00    +0.029 A 
ATOM      5  C   UNL     1       7.836  -5.107  24.045  0.00  0.00    +0.126 A 
ATOM      6  O   UNL     1       9.129  -4.691  24.222  0.00  0.00    -0.492 OA
ATOM      7  C   UNL     1       9.606  -4.742  25.566  0.00  0.00    +0.232 C 
ATOM      8  C   UNL     1       8.627  -4.108  26.536  0.00  0.00    +0.081 C 
ATOM      9  C   UNL     1       7.470  -5.383  22.724  0.00  0.00    +0.049 A 
ATOM     10  C   UNL     1       7.318  -4.894  26.502  0.00  0.00    +0.144 C 
ATOM     11  C   UNL     1       6.251  -4.117  27.303  0.00  0.00    +0.249 C 
ATOM     12  O   UNL     1       5.791  -3.016  27.038  0.00  0.00    -0.273 OA
ATOM     13  N   UNL     1       5.881  -4.870  28.376  0.00  0.00    -0.238 N 
ATOM     14  H   UNL     1       5.168  -4.614  29.037  0.00  0.00    +0.159 HD
ATOM     15  C   UNL     1       6.516  -6.064  28.371  0.00  0.00    +0.307 C 
ATOM     16  O   UNL     1       6.333  -6.979  29.153  0.00  0.00    -0.252 OA
ATOM     17  N   UNL     1       7.392  -6.092  27.314  0.00  0.00    -0.281 N 
ATOM     18  H   UNL     1       7.885  -6.942  27.073  0.00  0.00    +0.152 HD
ATOM     19  C   UNL     1       6.177  -5.807  22.430  0.00  0.00    +0.042 A 
ENDROOT
TORSDOF 0
ENDMDL
MODEL 3
REMARK VINA RESULT:      -6.3      3.352      4.985
REMARK  Name = 
REMARK  0 active torsions:
REMARK  status: ('A' for Active; 'I' for Inactive)
REMARK                            x       y       z     vdW  Elec       q    Type
REMARK                         _______ _______ _______ _____ _____    ______ ____
ROOT
ATOM      1  F   UNL     1       6.830  -6.017  20.772  0.00  0.00    -0.205 F 
ATOM      2  C   UNL     1       6.510  -5.215  21.796  0.00  0.00    +0.124 A 
ATOM      3  C   UNL     1       7.360  -4.165  22.132  0.00  0.00    +0.048 A 
ATOM      4  C   UNL     1       7.050  -3.320  23.211  0.00  0.00    +0.029 A 
ATOM      5  C   UNL     1       5.853  -3.541  23.908  0.00  0.00    +0.126 A 
ATOM      6  O   UNL     1       5.438  -2.781  24.969  0.00  0.00    -0.492 OA
ATOM      7  C   UNL     1       6.089  -1.517  25.104  0.00  0.00    +0.232 C 
ATOM      8  C   UNL     1       7.597  -1.647  25.003  0.00  0.00    +0.081 C 
ATOM      9  C   UNL     1       5.011  -4.604  23.567  0.00  0.00    +0.049 A 
ATOM     10  C   UNL     1       7.957  -2.184  23.620  0.00  0.00    +0.144 C 
ATOM     11  C   UNL     1       9.459  -2.538  23.598  0.00  0.00    +0.249 C 
ATOM     12  O   UNL     1      10.021  -3.397  24.261  0.00  0.00    -0.273 OA
ATOM     13  N   UNL     1      10.082  -1.730  22.695  0.00  0.00    -0.238 N 
ATOM     14  H   UNL     1      11.057  -1.783  22.457  0.00  0.00    +0.159 HD
ATOM     15  C   UNL     1       9.193  -0.923  22.074  0.00  0.00    +0.307 C 
ATOM     16  O   UNL     1       9.436  -0.151  21.164  0.00  0.00    -0.252 OA
ATOM     17  N   UNL     1       7.951  -1.134  22.620  0.00  0.00    -0.281 N 
ATOM     18  H   UNL     1       7.128  -0.704  22.217  0.00  0.00    +0.152 HD
ATOM     19  C   UNL     1       5.341  -5.445  22.507  0.00  0.00    +0.042 A 
ENDROOT
TORSDOF 0
ENDMDL
MODEL 4
REMARK VINA RESULT:      -6.2      2.840      4.665
REMARK  Name = 
REMARK  0 active torsions:
REMARK  status: ('A' for Active; 'I' for Inactive)
REMARK                            x       y       z     vdW  Elec       q    Type
REMARK                         _______ _______ _______ _____ _____    ______ ____
ROOT
ATOM      1  F   UNL     1       6.703  -5.946  20.809  0.00  0.00    -0.205 F 
ATOM      2  C   UNL     1       6.479  -5.644  22.094  0.00  0.00    +0.124 A 
ATOM      3  C   UNL     1       7.320  -4.743  22.740  0.00  0.00    +0.048 A 
ATOM      4  C   UNL     1       7.111  -4.423  24.093  0.00  0.00    +0.029 A 
ATOM      5  C   UNL     1       6.019  -5.006  24.754  0.00  0.00    +0.126 A 
ATOM      6  O   UNL     1       5.707  -4.765  26.066  0.00  0.00    -0.492 OA
ATOM      7  C   UNL     1       6.317  -3.606  26.634  0.00  0.00    +0.232 C 
ATOM      8  C   UNL     1       7.805  -3.553  26.345  0.00  0.00    +0.081 C 
ATOM      9  C   UNL     1       5.186  -5.917  24.097  0.00  0.00    +0.049 A 
ATOM     10  C   UNL     1       8.013  -3.466  24.835  0.00  0.00    +0.144 C 
ATOM     11  C   UNL     1       9.514  -3.650  24.527  0.00  0.00    +0.249 C 
ATOM     12  O   UNL     1      10.189  -4.649  24.731  0.00  0.00    -0.273 OA
ATOM     13  N   UNL     1       9.987  -2.501  23.970  0.00  0.00    -0.238 N 
ATOM     14  H   UNL     1      10.927  -2.370  23.638  0.00  0.00    +0.159 HD
ATOM     15  C   UNL     1       8.996  -1.595  23.815  0.00  0.00    +0.307 C 
ATOM     16  O   UNL     1       9.092  -0.509  23.274  0.00  0.00    -0.252 OA
ATOM     17  N   UNL     1       7.840  -2.112  24.347  0.00  0.00    -0.281 N 
ATOM     18  H   UNL     1       6.957  -1.632  24.233  0.00  0.00    +0.152 HD
ATOM     19  C   UNL     1       5.417  -6.238  22.762  0.00  0.00    +0.042 A 
ENDROOT
TORSDOF 0
ENDMDL
MODEL 5
REMARK VINA RESULT:      -6.2      3.255      5.258
REMARK  Name = 
REMARK  0 active torsions:
REMARK  status: ('A' for Active; 'I' for Inactive)
REMARK                            x       y       z     vdW  Elec       q    Type
REMARK                         _______ _______ _______ _____ _____    ______ ____
ROOT
ATOM      1  F   UNL     1       6.411  -4.748  21.088  0.00  0.00    -0.205 F 
ATOM      2  C   UNL     1       6.827  -4.233  22.253  0.00  0.00    +0.124 A 
ATOM      3  C   UNL     1       7.559  -3.050  22.253  0.00  0.00    +0.048 A 
ATOM      4  C   UNL     1       8.016  -2.500  23.464  0.00  0.00    +0.029 A 
ATOM      5  C   UNL     1       7.684  -3.154  24.660  0.00  0.00    +0.126 A 
ATOM      6  O   UNL     1       8.063  -2.711  25.899  0.00  0.00    -0.492 OA
ATOM      7  C   UNL     1       8.493  -1.350  25.954  0.00  0.00    +0.232 C 
ATOM      8  C   UNL     1       9.497  -1.031  24.863  0.00  0.00    +0.081 C 
ATOM      9  C   UNL     1       6.956  -4.347  24.646  0.00  0.00    +0.049 A 
ATOM     10  C   UNL     1       8.831  -1.229  23.504  0.00  0.00    +0.144 C 
ATOM     11  C   UNL     1       9.908  -1.137  22.403  0.00  0.00    +0.249 C 
ATOM     12  O   UNL     1      10.855  -1.892  22.236  0.00  0.00    -0.273 OA
ATOM     13  N   UNL     1       9.634  -0.059  21.616  0.00  0.00    -0.238 N 
ATOM     14  H   UNL     1      10.158   0.203  20.800  0.00  0.00    +0.159 HD
ATOM     15  C   UNL     1       8.492   0.548  22.009  0.00  0.00    +0.307 C 
ATOM     16  O   UNL     1       7.947   1.485  21.455  0.00  0.00    -0.252 OA
ATOM     17  N   UNL     1       8.021  -0.085  23.133  0.00  0.00    -0.281 N 
ATOM     18  H   UNL     1       7.116   0.150  23.520  0.00  0.00    +0.152 HD
ATOM     19  C   UNL     1       6.525  -4.890  23.438  0.00  0.00    +0.042 A 
ENDROOT
TORSDOF 0
ENDMDL
MODEL 6
REMARK VINA RESULT:      -6.1      5.281      7.098
REMARK  Name = 
REMARK  0 active torsions:
REMARK  status: ('A' for Active; 'I' for Inactive)
REMARK                            x       y       z     vdW  Elec       q    Type
REMARK                         _______ _______ _______ _____ _____    ______ ____
ROOT
ATOM      1  F   UNL     1      13.364   4.633  23.026  0.00  0.00    -0.205 F 
ATOM      2  C   UNL     1      12.072   4.737  23.361  0.00  0.00    +0.124 A 
ATOM      3  C   UNL     1      11.282   3.592  23.397  0.00  0.00    +0.048 A 
ATOM      4  C   UNL     1       9.919   3.682  23.734  0.00  0.00    +0.029 A 
ATOM      5  C   UNL     1       9.396   4.941  24.063  0.00  0.00    +0.126 A 
ATOM      6  O   UNL     1       8.089   5.153  24.415  0.00  0.00    -0.492 OA
ATOM      7  C   UNL     1       7.365   3.985  24.799  0.00  0.00    +0.232 C 
ATOM      8  C   UNL     1       7.549   2.854  23.805  0.00  0.00    +0.081 C 
ATOM      9  C   UNL     1      10.198   6.085  24.014  0.00  0.00    +0.049 A 
ATOM     10  C   UNL     1       9.025   2.466  23.765  0.00  0.00    +0.144 C 
ATOM     11  C   UNL     1       9.250   1.488  22.591  0.00  0.00    +0.249 C 
ATOM     12  O   UNL     1       9.108   1.724  21.400  0.00  0.00    -0.273 OA
ATOM     13  N   UNL     1       9.653   0.289  23.097  0.00  0.00    -0.238 N 
ATOM     14  H   UNL     1       9.908  -0.510  22.543  0.00  0.00    +0.159 HD
ATOM     15  C   UNL     1       9.778   0.349  24.442  0.00  0.00    +0.307 C 
ATOM     16  O   UNL     1      10.195  -0.537  25.166  0.00  0.00    -0.252 OA
ATOM     17  N   UNL     1       9.379   1.592  24.866  0.00  0.00    -0.281 N 
ATOM     18  H   UNL     1       9.500   1.875  25.830  0.00  0.00    +0.152 HD
ATOM     19  C   UNL     1      11.541   5.984  23.661  0.00  0.00    +0.042 A 
ENDROOT
TORSDOF 0
ENDMDL
MODEL 7
REMARK VINA RESULT:      -6.1      3.150      4.312
REMARK  Name = 
REMARK  0 active torsions:
REMARK  status: ('A' for Active; 'I' for Inactive)
REMARK                            x       y       z     vdW  Elec       q    Type
REMARK                         _______ _______ _______ _____ _____    ______ ____
ROOT
ATOM      1  F   UNL     1       6.344   2.869  21.917  0.00  0.00    -0.205 F 
ATOM      2  C   UNL     1       7.358   2.031  22.167  0.00  0.00    +0.124 A 
ATOM      3  C   UNL     1       7.083   0.732  22.583  0.00  0.00    +0.048 A 
ATOM      4  C   UNL     1       8.132  -0.160  22.864  0.00  0.00    +0.029 A 
ATOM      5  C   UNL     1       9.451   0.283  22.681  0.00  0.00    +0.126 A 
ATOM      6  O   UNL     1      10.554  -0.494  22.912  0.00  0.00    -0.492 OA
ATOM      7  C   UNL     1      10.305  -1.898  22.990  0.00  0.00    +0.232 C 
ATOM      8  C   UNL     1       9.137  -2.213  23.905  0.00  0.00    +0.081 C 
ATOM      9  C   UNL     1       9.715   1.594  22.271  0.00  0.00    +0.049 A 
ATOM     10  C   UNL     1       7.875  -1.571  23.337  0.00  0.00    +0.144 C 
ATOM     11  C   UNL     1       6.743  -1.688  24.380  0.00  0.00    +0.249 C 
ATOM     12  O   UNL     1       6.708  -1.172  25.488  0.00  0.00    -0.273 OA
ATOM     13  N   UNL     1       5.755  -2.471  23.863  0.00  0.00    -0.238 N 
ATOM     14  H   UNL     1       4.884  -2.672  24.323  0.00  0.00    +0.159 HD
ATOM     15  C   UNL     1       6.049  -2.847  22.598  0.00  0.00    +0.307 C 
ATOM     16  O   UNL     1       5.326  -3.479  21.850  0.00  0.00    -0.252 OA
ATOM     17  N   UNL     1       7.296  -2.373  22.277  0.00  0.00    -0.281 N 
ATOM     18  H   UNL     1       7.655  -2.455  21.334  0.00  0.00    +0.152 HD
ATOM     19  C   UNL     1       8.665   2.472  22.014  0.00  0.00    +0.042 A 
ENDROOT
TORSDOF 0
ENDMDL
MODEL 8
REMARK VINA RESULT:      -6.0      3.966      5.934
REMARK  Name = 
REMARK  0 active torsions:
REMARK  status: ('A' for Active; 'I' for Inactive)
REMARK                            x       y       z     vdW  Elec       q    Type
REMARK                         _______ _______ _______ _____ _____    ______ ____
ROOT
ATOM      1  F   UNL     1       7.359   0.693  27.497  0.00  0.00    -0.205 F 
ATOM      2  C   UNL     1       7.915   0.000  26.494  0.00  0.00    +0.124 A 
ATOM      3  C   UNL     1       8.388   0.680  25.376  0.00  0.00    +0.048 A 
ATOM      4  C   UNL     1       8.962  -0.029  24.306  0.00  0.00    +0.029 A 
ATOM      5  C   UNL     1       9.075  -1.423  24.415  0.00  0.00    +0.126 A 
ATOM      6  O   UNL     1       9.622  -2.220  23.446  0.00  0.00    -0.492 OA
ATOM      7  C   UNL     1      10.418  -1.539  22.475  0.00  0.00    +0.232 C 
ATOM      8  C   UNL     1       9.712  -0.314  21.926  0.00  0.00    +0.081 C 
ATOM      9  C   UNL     1       8.587  -2.095  25.540  0.00  0.00    +0.049 A 
ATOM     10  C   UNL     1       9.468   0.670  23.068  0.00  0.00    +0.144 C 
ATOM     11  C   UNL     1       8.547   1.800  22.561  0.00  0.00    +0.249 C 
ATOM     12  O   UNL     1       7.389   1.692  22.185  0.00  0.00    -0.273 OA
ATOM     13  N   UNL     1       9.236   2.975  22.606  0.00  0.00    -0.238 N 
ATOM     14  H   UNL     1       8.852   3.874  22.370  0.00  0.00    +0.159 HD
ATOM     15  C   UNL     1      10.472   2.791  23.123  0.00  0.00    +0.307 C 
ATOM     16  O   UNL     1      11.288   3.661  23.362  0.00  0.00    -0.252 OA
ATOM     17  N   UNL     1      10.653   1.451  23.363  0.00  0.00    -0.281 N 
ATOM     18  H   UNL     1      11.474   1.119  23.852  0.00  0.00    +0.152 HD
ATOM     19  C   UNL     1       8.004  -1.382  26.584  0.00  0.00    +0.042 A 
ENDROOT
TORSDOF 0
ENDMDL
MODEL 9
REMARK VINA RESULT:      -6.0      3.118      4.274
REMARK  Name = 
REMARK  0 active torsions:
REMARK  status: ('A' for Active; 'I' for Inactive)
REMARK                            x       y       z     vdW  Elec       q    Type
REMARK                         _______ _______ _______ _____ _____    ______ ____
ROOT
ATOM      1  F   UNL     1       7.664  -6.016  27.433  0.00  0.00    -0.205 F 
ATOM      2  C   UNL     1       7.727  -5.087  26.470  0.00  0.00    +0.124 A 
ATOM      3  C   UNL     1       6.884  -5.189  25.368  0.00  0.00    +0.048 A 
ATOM      4  C   UNL     1       6.943  -4.231  24.340  0.00  0.00    +0.029 A 
ATOM      5  C   UNL     1       7.842  -3.162  24.476  0.00  0.00    +0.126 A 
ATOM      6  O   UNL     1       7.984  -2.165  23.548  0.00  0.00    -0.492 OA
ATOM      7  C   UNL     1       6.914  -2.049  22.610  0.00  0.00    +0.232 C 
ATOM      8  C   UNL     1       6.546  -3.391  22.006  0.00  0.00    +0.081 C 
ATOM      9  C   UNL     1       8.689  -3.076  25.585  0.00  0.00    +0.049 A 
ATOM     10  C   UNL     1       6.061  -4.318  23.118  0.00  0.00    +0.144 C 
ATOM     11  C   UNL     1       5.913  -5.745  22.548  0.00  0.00    +0.249 C 
ATOM     12  O   UNL     1       6.806  -6.459  22.114  0.00  0.00    -0.273 OA
ATOM     13  N   UNL     1       4.601  -6.104  22.610  0.00  0.00    -0.238 N 
ATOM     14  H   UNL     1       4.239  -7.002  22.341  0.00  0.00    +0.159 HD
ATOM     15  C   UNL     1       3.861  -5.133  23.193  0.00  0.00    +0.307 C 
ATOM     16  O   UNL     1       2.675  -5.195  23.460  0.00  0.00    -0.252 OA
ATOM     17  N   UNL     1       4.676  -4.062  23.463  0.00  0.00    -0.281 N 
ATOM     18  H   UNL     1       4.335  -3.274  23.998  0.00  0.00    +0.152 HD
ATOM     19  C   UNL     1       8.633  -4.042  26.586  0.00  0.00    +0.042 A 
ENDROOT
TORSDOF 0
ENDMDL
