MODEL 1
REMARK VINA RESULT:      -7.4      0.000      0.000
REMARK  Name = 
REMARK  14 active torsions:
REMARK  status: ('A' for Active; 'I' for Inactive)
REMARK    1  A    between atoms: C_2  and  C_24
REMARK    2  A    between atoms: C_5  and  C_6
REMARK    3  A    between atoms: C_5  and  C_7
REMARK    4  A    between atoms: C_7  and  C_8
REMARK    5  A    between atoms: C_8  and  C_9
REMARK    6  A    between atoms: C_10  and  C_11
REMARK    7  A    between atoms: C_11  and  O_12
REMARK    8  A    between atoms: C_11  and  C_13
REMARK    9  A    between atoms: C_11  and  C_17
REMARK   10  A    between atoms: C_21  and  C_22
REMARK   11  A    between atoms: C_21  and  C_23
REMARK   12  A    between atoms: C_25  and  C_26
REMARK   13  A    between atoms: C_29  and  O_30
REMARK   14  A    between atoms: C_33  and  O_34
REMARK                            x       y       z     vdW  Elec       q    Type
REMARK                         _______ _______ _______ _____ _____    ______ ____
ROOT
ATOM      1  C   UNL     1       7.846   0.412  25.253  0.00  0.00    +0.018 C 
ATOM      2  C   UNL     1       8.953   0.988  24.297  0.00  0.00    -0.023 C 
ATOM      3  C   UNL     1      10.344   0.395  24.613  0.00  0.00    +0.012 C 
ATOM      4  C   UNL     1       9.088   2.504  24.616  0.00  0.00    +0.012 C 
ATOM      5  C   UNL     1       8.399   0.717  22.809  0.00  0.00    -0.026 C 
ATOM      6  C   UNL     1       8.157   2.026  22.012  0.00  0.00    +0.012 C 
ATOM      7  C   UNL     1       7.023   0.036  23.030  0.00  0.00    +0.008 C 
ATOM      8  C   UNL     1       6.570   0.461  24.414  0.00  0.00    +0.009 C 
ENDROOT
BRANCH   1   9
ATOM      9  C   UNL     1       8.070  -0.990  25.803  0.00  0.00    -0.023 C 
ATOM     10  C   UNL     1       7.039  -1.827  25.990  0.00  0.00    -0.004 C 
BRANCH  10  11
ATOM     11  C   UNL     1       7.143  -3.194  26.455  0.00  0.00    -0.001 C 
ATOM     12  C   UNL     1       6.276  -3.805  27.291  0.00  0.00    -0.065 C 
ATOM     13  C   UNL     1       6.444  -5.260  27.680  0.00  0.00    +0.062 C 
ATOM     14  C   UNL     1       5.170  -6.083  27.414  0.00  0.00    +0.121 C 
ATOM     15  C   UNL     1       3.923  -5.436  28.022  0.00  0.00    +0.063 C 
ATOM     16  C   UNL     1       3.778  -3.978  27.595  0.00  0.00    +0.121 C 
ATOM     17  C   UNL     1       5.046  -3.174  27.917  0.00  0.00    +0.062 C 
BRANCH  14  18
ATOM     18  O   UNL     1       5.326  -7.396  27.956  0.00  0.00    -0.391 OA
ATOM     19  H   UNL     1       5.003  -8.036  27.301  0.00  0.00    +0.210 HD
ENDBRANCH  14  18
BRANCH  16  20
ATOM     20  O   UNL     1       3.471  -3.935  26.201  0.00  0.00    -0.391 OA
ATOM     21  H   UNL     1       2.679  -4.478  26.036  0.00  0.00    +0.210 HD
ENDBRANCH  16  20
ENDBRANCH  10  11
ENDBRANCH   1   9
BRANCH   5  22
ATOM     22  C   UNL     1       9.304  -0.221  21.952  0.00  0.00    +0.020 C 
BRANCH  22  23
ATOM     23  C   UNL     1       9.565  -1.603  22.573  0.00  0.00    +0.089 C 
BRANCH  23  24
ATOM     24  C   UNL     1       8.412  -2.496  22.416  0.00  0.00    -0.099 C 
ATOM     25  C   UNL     1       7.415  -3.317  22.232  0.00  0.00    -0.050 C 
BRANCH  25  26
ATOM     26  C   UNL     1       6.254  -4.273  22.019  0.00  0.00    +0.318 C 
BRANCH  26  27
ATOM     27  C   UNL     1       5.222  -4.106  23.163  0.00  0.00    +0.438 C 
ATOM     28  F   UNL     1       3.969  -4.518  22.888  0.00  0.00    -0.166 F 
ATOM     29  F   UNL     1       5.113  -2.804  23.543  0.00  0.00    -0.166 F 
ATOM     30  F   UNL     1       5.590  -4.781  24.286  0.00  0.00    -0.166 F 
ENDBRANCH  26  27
BRANCH  26  31
ATOM     31  C   UNL     1       6.773  -5.729  21.958  0.00  0.00    +0.438 C 
ATOM     32  F   UNL     1       7.160  -6.027  20.685  0.00  0.00    -0.166 F 
ATOM     33  F   UNL     1       5.913  -6.694  22.322  0.00  0.00    -0.166 F 
ATOM     34  F   UNL     1       7.889  -5.905  22.715  0.00  0.00    -0.166 F 
ENDBRANCH  26  31
BRANCH  26  35
ATOM     35  O   UNL     1       5.673  -3.872  20.739  0.00  0.00    -0.363 OA
ATOM     36  H   UNL     1       4.791  -4.285  20.683  0.00  0.00    +0.212 HD
ENDBRANCH  26  35
ENDBRANCH  25  26
ENDBRANCH  23  24
ENDBRANCH  22  23
ENDBRANCH   5  22
TORSDOF 11
ENDMDL
MODEL 2
REMARK VINA RESULT:      -7.2      2.167      3.103
REMARK  Name = 
REMARK  14 active torsions:
REMARK  status: ('A' for Active; 'I' for Inactive)
REMARK    1  A    between atoms: C_2  and  C_24
REMARK    2  A    between atoms: C_5  and  C_6
REMARK    3  A    between atoms: C_5  and  C_7
REMARK    4  A    between atoms: C_7  and  C_8
REMARK    5  A    between atoms: C_8  and  C_9
REMARK    6  A    between atoms: C_10  and  C_11
REMARK    7  A    between atoms: C_11  and  O_12
REMARK    8  A    between atoms: C_11  and  C_13
REMARK    9  A    between atoms: C_11  and  C_17
REMARK   10  A    between atoms: C_21  and  C_22
REMARK   11  A    between atoms: C_21  and  C_23
REMARK   12  A    between atoms: C_25  and  C_26
REMARK   13  A    between atoms: C_29  and  O_30
REMARK   14  A    between atoms: C_33  and  O_34
REMARK                            x       y       z     vdW  Elec       q    Type
REMARK                         _______ _______ _______ _____ _____    ______ ____
ROOT
ATOM      1  C   UNL     1       7.014   0.815  23.931  0.00  0.00    +0.018 C 
ATOM      2  C   UNL     1       8.355   1.204  24.652  0.00  0.00    -0.023 C 
ATOM      3  C   UNL     1       8.640   0.286  25.861  0.00  0.00    +0.012 C 
ATOM      4  C   UNL     1       8.149   2.617  25.268  0.00  0.00    +0.012 C 
ATOM      5  C   UNL     1       9.470   1.195  23.489  0.00  0.00    -0.026 C 
ATOM      6  C   UNL     1      10.115   2.588  23.266  0.00  0.00    +0.012 C 
ATOM      7  C   UNL     1       8.681   0.828  22.204  0.00  0.00    +0.008 C 
ATOM      8  C   UNL     1       7.242   1.224  22.476  0.00  0.00    +0.009 C 
ENDROOT
BRANCH   1   9
ATOM      9  C   UNL     1       6.583  -0.643  24.015  0.00  0.00    -0.023 C 
ATOM     10  C   UNL     1       5.564  -1.014  24.804  0.00  0.00    -0.004 C 
BRANCH  10  11
ATOM     11  C   UNL     1       5.039  -2.358  24.919  0.00  0.00    -0.001 C 
ATOM     12  C   UNL     1       4.737  -2.984  26.076  0.00  0.00    -0.065 C 
ATOM     13  C   UNL     1       4.141  -4.378  26.089  0.00  0.00    +0.062 C 
ATOM     14  C   UNL     1       2.841  -4.446  26.910  0.00  0.00    +0.121 C 
ATOM     15  C   UNL     1       3.004  -3.847  28.309  0.00  0.00    +0.063 C 
ATOM     16  C   UNL     1       3.591  -2.439  28.256  0.00  0.00    +0.121 C 
ATOM     17  C   UNL     1       4.910  -2.413  27.471  0.00  0.00    +0.062 C 
BRANCH  14  18
ATOM     18  O   UNL     1       2.421  -5.807  27.031  0.00  0.00    -0.391 OA
ATOM     19  H   UNL     1       2.982  -6.350  26.454  0.00  0.00    +0.210 HD
ENDBRANCH  14  18
BRANCH  16  20
ATOM     20  O   UNL     1       2.623  -1.559  27.681  0.00  0.00    -0.391 OA
ATOM     21  H   UNL     1       2.135  -2.038  26.988  0.00  0.00    +0.210 HD
ENDBRANCH  16  20
ENDBRANCH  10  11
ENDBRANCH   1   9
BRANCH   5  22
ATOM     22  C   UNL     1      10.610   0.153  23.706  0.00  0.00    +0.020 C 
BRANCH  22  23
ATOM     23  C   UNL     1      10.536  -1.079  22.790  0.00  0.00    +0.089 C 
BRANCH  23  24
ATOM     24  C   UNL     1       9.922  -2.225  23.470  0.00  0.00    -0.099 C 
ATOM     25  C   UNL     1       9.417  -3.279  24.050  0.00  0.00    -0.050 C 
BRANCH  25  26
ATOM     26  C   UNL     1       8.829  -4.505  24.726  0.00  0.00    +0.318 C 
BRANCH  26  27
ATOM     27  C   UNL     1       7.624  -5.029  23.904  0.00  0.00    +0.438 C 
ATOM     28  F   UNL     1       6.670  -5.671  24.606  0.00  0.00    -0.166 F 
ATOM     29  F   UNL     1       8.027  -5.898  22.938  0.00  0.00    -0.166 F 
ATOM     30  F   UNL     1       6.982  -4.027  23.244  0.00  0.00    -0.166 F 
ENDBRANCH  26  27
BRANCH  26  31
ATOM     31  C   UNL     1       8.396  -4.155  26.170  0.00  0.00    +0.438 C 
ATOM     32  F   UNL     1       9.459  -4.285  27.013  0.00  0.00    -0.166 F 
ATOM     33  F   UNL     1       7.406  -4.892  26.701  0.00  0.00    -0.166 F 
ATOM     34  F   UNL     1       8.011  -2.856  26.286  0.00  0.00    -0.166 F 
ENDBRANCH  26  31
BRANCH  26  35
ATOM     35  O   UNL     1       9.914  -5.484  24.730  0.00  0.00    -0.363 OA
ATOM     36  H   UNL     1       9.505  -6.365  24.648  0.00  0.00    +0.212 HD
ENDBRANCH  26  35
ENDBRANCH  25  26
ENDBRANCH  23  24
ENDBRANCH  22  23
ENDBRANCH   5  22
TORSDOF 11
ENDMDL
MODEL 3
REMARK VINA RESULT:      -7.2      3.579      7.547
REMARK  Name = 
REMARK  14 active torsions:
REMARK  status: ('A' for Active; 'I' for Inactive)
REMARK    1  A    between atoms: C_2  and  C_24
REMARK    2  A    between atoms: C_5  and  C_6
REMARK    3  A    between atoms: C_5  and  C_7
REMARK    4  A    between atoms: C_7  and  C_8
REMARK    5  A    between atoms: C_8  and  C_9
REMARK    6  A    between atoms: C_10  and  C_11
REMARK    7  A    between atoms: C_11  and  O_12
REMARK    8  A    between atoms: C_11  and  C_13
REMARK    9  A    between atoms: C_11  and  C_17
REMARK   10  A    between atoms: C_21  and  C_22
REMARK   11  A    between atoms: C_21  and  C_23
REMARK   12  A    between atoms: C_25  and  C_26
REMARK   13  A    between atoms: C_29  and  O_30
REMARK   14  A    between atoms: C_33  and  O_34
REMARK                            x       y       z     vdW  Elec       q    Type
REMARK                         _______ _______ _______ _____ _____    ______ ____
ROOT
ATOM      1  C   UNL     1       7.173  -3.563  22.161  0.00  0.00    +0.018 C 
ATOM      2  C   UNL     1       7.111  -4.858  23.050  0.00  0.00    -0.023 C 
ATOM      3  C   UNL     1       8.302  -4.934  24.031  0.00  0.00    +0.012 C 
ATOM      4  C   UNL     1       7.303  -6.074  22.101  0.00  0.00    +0.012 C 
ATOM      5  C   UNL     1       5.649  -4.827  23.726  0.00  0.00    -0.026 C 
ATOM      6  C   UNL     1       4.770  -6.036  23.308  0.00  0.00    +0.012 C 
ATOM      7  C   UNL     1       4.990  -3.543  23.157  0.00  0.00    +0.008 C 
ATOM      8  C   UNL     1       5.709  -3.253  21.853  0.00  0.00    +0.009 C 
ENDROOT
BRANCH   1   9
ATOM      9  C   UNL     1       7.862  -2.345  22.762  0.00  0.00    -0.023 C 
ATOM     10  C   UNL     1       8.924  -1.790  22.160  0.00  0.00    -0.004 C 
BRANCH  10  11
ATOM     11  C   UNL     1       9.619  -0.604  22.613  0.00  0.00    -0.001 C 
ATOM     12  C   UNL     1       9.408   0.649  22.157  0.00  0.00    -0.065 C 
ATOM     13  C   UNL     1      10.153   1.837  22.734  0.00  0.00    +0.062 C 
ATOM     14  C   UNL     1       9.198   2.951  23.200  0.00  0.00    +0.121 C 
ATOM     15  C   UNL     1       8.186   3.340  22.119  0.00  0.00    +0.063 C 
ATOM     16  C   UNL     1       7.445   2.122  21.575  0.00  0.00    +0.121 C 
ATOM     17  C   UNL     1       8.424   1.051  21.074  0.00  0.00    +0.062 C 
BRANCH  14  18
ATOM     18  O   UNL     1       9.954   4.106  23.571  0.00  0.00    -0.391 OA
ATOM     19  H   UNL     1       9.408   4.892  23.405  0.00  0.00    +0.210 HD
ENDBRANCH  14  18
BRANCH  16  20
ATOM     20  O   UNL     1       6.587   1.611  22.596  0.00  0.00    -0.391 OA
ATOM     21  H   UNL     1       7.017   0.843  23.013  0.00  0.00    +0.210 HD
ENDBRANCH  16  20
ENDBRANCH  10  11
ENDBRANCH   1   9
BRANCH   5  22
ATOM     22  C   UNL     1       5.667  -4.748  25.284  0.00  0.00    +0.020 C 
BRANCH  22  23
ATOM     23  C   UNL     1       4.906  -3.550  25.874  0.00  0.00    +0.089 C 
BRANCH  23  24
ATOM     24  C   UNL     1       5.774  -2.378  26.032  0.00  0.00    -0.099 C 
ATOM     25  C   UNL     1       6.572  -1.350  26.123  0.00  0.00    -0.050 C 
BRANCH  25  26
ATOM     26  C   UNL     1       7.501  -0.152  26.228  0.00  0.00    +0.318 C 
BRANCH  26  27
ATOM     27  C   UNL     1       8.972  -0.636  26.306  0.00  0.00    +0.438 C 
ATOM     28  F   UNL     1       9.888   0.186  25.760  0.00  0.00    -0.166 F 
ATOM     29  F   UNL     1       9.129  -1.837  25.687  0.00  0.00    -0.166 F 
ATOM     30  F   UNL     1       9.377  -0.835  27.590  0.00  0.00    -0.166 F 
ENDBRANCH  26  27
BRANCH  26  31
ATOM     31  C   UNL     1       7.135   0.690  27.473  0.00  0.00    +0.438 C 
ATOM     32  F   UNL     1       7.429   2.002  27.242  0.00  0.00    -0.166 F 
ATOM     33  F   UNL     1       7.747   0.368  28.624  0.00  0.00    -0.166 F 
ATOM     34  F   UNL     1       5.800   0.669  27.730  0.00  0.00    -0.166 F 
ENDBRANCH  26  31
BRANCH  26  35
ATOM     35  O   UNL     1       7.272   0.605  25.000  0.00  0.00    -0.363 OA
ATOM     36  H   UNL     1       7.213   1.545  25.250  0.00  0.00    +0.212 HD
ENDBRANCH  26  35
ENDBRANCH  25  26
ENDBRANCH  23  24
ENDBRANCH  22  23
ENDBRANCH   5  22
TORSDOF 11
ENDMDL
MODEL 4
REMARK VINA RESULT:      -7.1      3.905      7.314
REMARK  Name = 
REMARK  14 active torsions:
REMARK  status: ('A' for Active; 'I' for Inactive)
REMARK    1  A    between atoms: C_2  and  C_24
REMARK    2  A    between atoms: C_5  and  C_6
REMARK    3  A    between atoms: C_5  and  C_7
REMARK    4  A    between atoms: C_7  and  C_8
REMARK    5  A    between atoms: C_8  and  C_9
REMARK    6  A    between atoms: C_10  and  C_11
REMARK    7  A    between atoms: C_11  and  O_12
REMARK    8  A    between atoms: C_11  and  C_13
REMARK    9  A    between atoms: C_11  and  C_17
REMARK   10  A    between atoms: C_21  and  C_22
REMARK   11  A    between atoms: C_21  and  C_23
REMARK   12  A    between atoms: C_25  and  C_26
REMARK   13  A    between atoms: C_29  and  O_30
REMARK   14  A    between atoms: C_33  and  O_34
REMARK                            x       y       z     vdW  Elec       q    Type
REMARK                         _______ _______ _______ _____ _____    ______ ____
ROOT
ATOM      1  C   UNL     1       7.945  -4.514  25.722  0.00  0.00    +0.018 C 
ATOM      2  C   UNL     1       6.394  -4.669  25.525  0.00  0.00    -0.023 C 
ATOM      3  C   UNL     1       5.609  -3.593  26.308  0.00  0.00    +0.012 C 
ATOM      4  C   UNL     1       5.983  -6.016  26.183  0.00  0.00    +0.012 C 
ATOM      5  C   UNL     1       6.176  -4.670  23.929  0.00  0.00    -0.026 C 
ATOM      6  C   UNL     1       5.572  -6.001  23.407  0.00  0.00    +0.012 C 
ATOM      7  C   UNL     1       7.608  -4.540  23.346  0.00  0.00    +0.008 C 
ATOM      8  C   UNL     1       8.541  -5.058  24.424  0.00  0.00    +0.009 C 
ENDROOT
BRANCH   1   9
ATOM      9  C   UNL     1       8.469  -3.111  26.002  0.00  0.00    -0.023 C 
ATOM     10  C   UNL     1       9.123  -2.420  25.057  0.00  0.00    -0.004 C 
BRANCH  10  11
ATOM     11  C   UNL     1       9.614  -1.066  25.198  0.00  0.00    -0.001 C 
ATOM     12  C   UNL     1      10.165  -0.327  24.211  0.00  0.00    -0.065 C 
ATOM     13  C   UNL     1      10.604   1.105  24.446  0.00  0.00    +0.062 C 
ATOM     14  C   UNL     1       9.985   2.076  23.424  0.00  0.00    +0.121 C 
ATOM     15  C   UNL     1      10.192   1.612  21.981  0.00  0.00    +0.063 C 
ATOM     16  C   UNL     1       9.725   0.172  21.778  0.00  0.00    +0.121 C 
ATOM     17  C   UNL     1      10.395  -0.777  22.780  0.00  0.00    +0.062 C 
BRANCH  14  18
ATOM     18  O   UNL     1      10.565   3.374  23.585  0.00  0.00    -0.391 OA
ATOM     19  H   UNL     1      11.224   3.326  24.297  0.00  0.00    +0.210 HD
ENDBRANCH  14  18
BRANCH  16  20
ATOM     20  O   UNL     1       8.302   0.131  21.889  0.00  0.00    -0.391 OA
ATOM     21  H   UNL     1       7.969   1.039  22.001  0.00  0.00    +0.210 HD
ENDBRANCH  16  20
ENDBRANCH  10  11
ENDBRANCH   1   9
BRANCH   5  22
ATOM     22  C   UNL     1       5.299  -3.492  23.403  0.00  0.00    +0.020 C 
BRANCH  22  23
ATOM     23  C   UNL     1       6.090  -2.246  22.973  0.00  0.00    +0.089 C 
BRANCH  23  24
ATOM     24  C   UNL     1       6.021  -1.183  23.981  0.00  0.00    -0.099 C 
ATOM     25  C   UNL     1       5.913  -0.216  24.849  0.00  0.00    -0.050 C 
BRANCH  25  26
ATOM     26  C   UNL     1       5.788   0.910  25.862  0.00  0.00    +0.318 C 
BRANCH  26  27
ATOM     27  C   UNL     1       6.703   2.091  25.447  0.00  0.00    +0.438 C 
ATOM     28  F   UNL     1       7.943   2.083  25.972  0.00  0.00    -0.166 F 
ATOM     29  F   UNL     1       6.155   3.286  25.798  0.00  0.00    -0.166 F 
ATOM     30  F   UNL     1       6.876   2.154  24.099  0.00  0.00    -0.166 F 
ENDBRANCH  26  27
BRANCH  26  31
ATOM     31  C   UNL     1       6.163   0.396  27.272  0.00  0.00    +0.438 C 
ATOM     32  F   UNL     1       6.238   1.446  28.139  0.00  0.00    -0.166 F 
ATOM     33  F   UNL     1       7.325  -0.266  27.386  0.00  0.00    -0.166 F 
ATOM     34  F   UNL     1       5.205  -0.419  27.790  0.00  0.00    -0.166 F 
ENDBRANCH  26  31
BRANCH  26  35
ATOM     35  O   UNL     1       4.381   1.304  25.807  0.00  0.00    -0.363 OA
ATOM     36  H   UNL     1       3.872   0.610  26.265  0.00  0.00    +0.212 HD
ENDBRANCH  26  35
ENDBRANCH  25  26
ENDBRANCH  23  24
ENDBRANCH  22  23
ENDBRANCH   5  22
TORSDOF 11
ENDMDL
MODEL 5
REMARK VINA RESULT:      -6.9      3.943      6.552
REMARK  Name = 
REMARK  14 active torsions:
REMARK  status: ('A' for Active; 'I' for Inactive)
REMARK    1  A    between atoms: C_2  and  C_24
REMARK    2  A    between atoms: C_5  and  C_6
REMARK    3  A    between atoms: C_5  and  C_7
REMARK    4  A    between atoms: C_7  and  C_8
REMARK    5  A    between atoms: C_8  and  C_9
REMARK    6  A    between atoms: C_10  and  C_11
REMARK    7  A    between atoms: C_11  and  O_12
REMARK    8  A    between atoms: C_11  and  C_13
REMARK    9  A    between atoms: C_11  and  C_17
REMARK   10  A    between atoms: C_21  and  C_22
REMARK   11  A    between atoms: C_21  and  C_23
REMARK   12  A    between atoms: C_25  and  C_26
REMARK   13  A    between atoms: C_29  and  O_30
REMARK   14  A    between atoms: C_33  and  O_34
REMARK                            x       y       z     vdW  Elec       q    Type
REMARK                         _______ _______ _______ _____ _____    ______ ____
ROOT
ATOM      1  C   UNL     1       6.397  -4.467  25.601  0.00  0.00    +0.018 C 
ATOM      2  C   UNL     1       6.083  -4.309  24.070  0.00  0.00    -0.023 C 
ATOM      3  C   UNL     1       5.258  -3.034  23.785  0.00  0.00    +0.012 C 
ATOM      4  C   UNL     1       5.145  -5.483  23.672  0.00  0.00    +0.012 C 
ATOM      5  C   UNL     1       7.517  -4.391  23.341  0.00  0.00    -0.026 C 
ATOM      6  C   UNL     1       7.633  -5.602  22.379  0.00  0.00    +0.012 C 
ATOM      7  C   UNL     1       8.525  -4.610  24.501  0.00  0.00    +0.008 C 
ATOM      8  C   UNL     1       7.723  -5.225  25.633  0.00  0.00    +0.009 C 
ENDROOT
BRANCH   1   9
ATOM      9  C   UNL     1       6.493  -3.187  26.422  0.00  0.00    -0.023 C 
ATOM     10  C   UNL     1       7.527  -2.347  26.265  0.00  0.00    -0.004 C 
BRANCH  10  11
ATOM     11  C   UNL     1       7.690  -1.083  26.950  0.00  0.00    -0.001 C 
ATOM     12  C   UNL     1       7.209   0.105  26.527  0.00  0.00    -0.065 C 
ATOM     13  C   UNL     1       7.389   1.369  27.345  0.00  0.00    +0.062 C 
ATOM     14  C   UNL     1       6.053   2.086  27.608  0.00  0.00    +0.121 C 
ATOM     15  C   UNL     1       5.250   2.309  26.324  0.00  0.00    +0.063 C 
ATOM     16  C   UNL     1       5.075   1.013  25.536  0.00  0.00    +0.121 C 
ATOM     17  C   UNL     1       6.427   0.348  25.249  0.00  0.00    +0.062 C 
BRANCH  14  18
ATOM     18  O   UNL     1       6.301   3.350  28.228  0.00  0.00    -0.391 OA
ATOM     19  H   UNL     1       6.788   3.193  29.054  0.00  0.00    +0.210 HD
ENDBRANCH  14  18
BRANCH  16  20
ATOM     20  O   UNL     1       4.208   0.144  26.267  0.00  0.00    -0.391 OA
ATOM     21  H   UNL     1       4.322  -0.765  25.936  0.00  0.00    +0.210 HD
ENDBRANCH  16  20
ENDBRANCH  10  11
ENDBRANCH   1   9
BRANCH   5  22
ATOM     22  C   UNL     1       7.910  -3.100  22.558  0.00  0.00    +0.020 C 
BRANCH  22  23
ATOM     23  C   UNL     1       9.218  -2.441  23.024  0.00  0.00    +0.089 C 
BRANCH  23  24
ATOM     24  C   UNL     1       9.159  -0.979  22.913  0.00  0.00    -0.099 C 
ATOM     25  C   UNL     1       9.134   0.316  22.762  0.00  0.00    -0.050 C 
BRANCH  25  26
ATOM     26  C   UNL     1       9.104   1.826  22.587  0.00  0.00    +0.318 C 
BRANCH  26  27
ATOM     27  C   UNL     1       9.289   2.516  23.963  0.00  0.00    +0.438 C 
ATOM     28  F   UNL     1       8.171   3.018  24.522  0.00  0.00    -0.166 F 
ATOM     29  F   UNL     1      10.166   3.552  23.881  0.00  0.00    -0.166 F 
ATOM     30  F   UNL     1       9.813   1.670  24.892  0.00  0.00    -0.166 F 
ENDBRANCH  26  27
BRANCH  26  31
ATOM     31  C   UNL     1       7.768   2.254  21.935  0.00  0.00    +0.438 C 
ATOM     32  F   UNL     1       7.705   3.615  21.869  0.00  0.00    -0.166 F 
ATOM     33  F   UNL     1       6.640   1.858  22.547  0.00  0.00    -0.166 F 
ATOM     34  F   UNL     1       7.672   1.835  20.645  0.00  0.00    -0.166 F 
ENDBRANCH  26  31
BRANCH  26  35
ATOM     35  O   UNL     1      10.233   2.120  21.708  0.00  0.00    -0.363 OA
ATOM     36  H   UNL     1      10.018   2.945  21.234  0.00  0.00    +0.212 HD
ENDBRANCH  26  35
ENDBRANCH  25  26
ENDBRANCH  23  24
ENDBRANCH  22  23
ENDBRANCH   5  22
TORSDOF 11
ENDMDL
MODEL 6
REMARK VINA RESULT:      -6.8      4.032      5.774
REMARK  Name = 
REMARK  14 active torsions:
REMARK  status: ('A' for Active; 'I' for Inactive)
REMARK    1  A    between atoms: C_2  and  C_24
REMARK    2  A    between atoms: C_5  and  C_6
REMARK    3  A    between atoms: C_5  and  C_7
REMARK    4  A    between atoms: C_7  and  C_8
REMARK    5  A    between atoms: C_8  and  C_9
REMARK    6  A    between atoms: C_10  and  C_11
REMARK    7  A    between atoms: C_11  and  O_12
REMARK    8  A    between atoms: C_11  and  C_13
REMARK    9  A    between atoms: C_11  and  C_17
REMARK   10  A    between atoms: C_21  and  C_22
REMARK   11  A    between atoms: C_21  and  C_23
REMARK   12  A    between atoms: C_25  and  C_26
REMARK   13  A    between atoms: C_29  and  O_30
REMARK   14  A    between atoms: C_33  and  O_34
REMARK                            x       y       z     vdW  Elec       q    Type
REMARK                         _______ _______ _______ _____ _____    ______ ____
ROOT
ATOM      1  C   UNL     1       5.484   2.564  26.312  0.00  0.00    +0.018 C 
ATOM      2  C   UNL     1       5.779   4.068  25.967  0.00  0.00    -0.023 C 
ATOM      3  C   UNL     1       7.295   4.337  25.839  0.00  0.00    +0.012 C 
ATOM      4  C   UNL     1       5.330   4.914  27.192  0.00  0.00    +0.012 C 
ATOM      5  C   UNL     1       4.901   4.372  24.651  0.00  0.00    -0.026 C 
ATOM      6  C   UNL     1       3.826   5.466  24.887  0.00  0.00    +0.012 C 
ATOM      7  C   UNL     1       4.164   3.037  24.365  0.00  0.00    +0.008 C 
ATOM      8  C   UNL     1       4.113   2.302  25.691  0.00  0.00    +0.009 C 
ENDROOT
BRANCH   1   9
ATOM      9  C   UNL     1       6.496   1.533  25.828  0.00  0.00    -0.023 C 
ATOM     10  C   UNL     1       7.155   0.755  26.700  0.00  0.00    -0.004 C 
BRANCH  10  11
ATOM     11  C   UNL     1       8.093  -0.289  26.348  0.00  0.00    -0.001 C 
ATOM     12  C   UNL     1       7.790  -1.596  26.198  0.00  0.00    -0.065 C 
ATOM     13  C   UNL     1       8.837  -2.608  25.776  0.00  0.00    +0.062 C 
ATOM     14  C   UNL     1       8.394  -3.424  24.548  0.00  0.00    +0.121 C 
ATOM     15  C   UNL     1       7.003  -4.036  24.729  0.00  0.00    +0.063 C 
ATOM     16  C   UNL     1       5.973  -2.986  25.138  0.00  0.00    +0.121 C 
ATOM     17  C   UNL     1       6.422  -2.223  26.391  0.00  0.00    +0.062 C 
BRANCH  14  18
ATOM     18  O   UNL     1       9.336  -4.471  24.303  0.00  0.00    -0.391 OA
ATOM     19  H   UNL     1       9.375  -4.627  23.346  0.00  0.00    +0.210 HD
ENDBRANCH  14  18
BRANCH  16  20
ATOM     20  O   UNL     1       5.755  -2.103  24.036  0.00  0.00    -0.391 OA
ATOM     21  H   UNL     1       5.438  -2.621  23.275  0.00  0.00    +0.210 HD
ENDBRANCH  16  20
ENDBRANCH  10  11
ENDBRANCH   1   9
BRANCH   5  22
ATOM     22  C   UNL     1       5.743   4.772  23.400  0.00  0.00    +0.020 C 
BRANCH  22  23
ATOM     23  C   UNL     1       5.879   3.667  22.340  0.00  0.00    +0.089 C 
BRANCH  23  24
ATOM     24  C   UNL     1       7.161   2.963  22.450  0.00  0.00    -0.099 C 
ATOM     25  C   UNL     1       8.317   2.361  22.497  0.00  0.00    -0.050 C 
BRANCH  25  26
ATOM     26  C   UNL     1       9.664   1.659  22.552  0.00  0.00    +0.318 C 
BRANCH  26  27
ATOM     27  C   UNL     1       9.486   0.157  22.213  0.00  0.00    +0.438 C 
ATOM     28  F   UNL     1       8.570  -0.505  22.947  0.00  0.00    -0.166 F 
ATOM     29  F   UNL     1      10.654  -0.525  22.366  0.00  0.00    -0.166 F 
ATOM     30  F   UNL     1       9.123  -0.034  20.915  0.00  0.00    -0.166 F 
ENDBRANCH  26  27
BRANCH  26  31
ATOM     31  C   UNL     1      10.292   1.832  23.956  0.00  0.00    +0.438 C 
ATOM     32  F   UNL     1      11.390   2.637  23.872  0.00  0.00    -0.166 F 
ATOM     33  F   UNL     1      10.695   0.714  24.581  0.00  0.00    -0.166 F 
ATOM     34  F   UNL     1       9.453   2.471  24.815  0.00  0.00    -0.166 F 
ENDBRANCH  26  31
BRANCH  26  35
ATOM     35  O   UNL     1      10.472   2.325  21.533  0.00  0.00    -0.363 OA
ATOM     36  H   UNL     1      10.141   2.027  20.666  0.00  0.00    +0.212 HD
ENDBRANCH  26  35
ENDBRANCH  25  26
ENDBRANCH  23  24
ENDBRANCH  22  23
ENDBRANCH   5  22
TORSDOF 11
ENDMDL
MODEL 7
REMARK VINA RESULT:      -6.7      2.556      4.730
REMARK  Name = 
REMARK  14 active torsions:
REMARK  status: ('A' for Active; 'I' for Inactive)
REMARK    1  A    between atoms: C_2  and  C_24
REMARK    2  A    between atoms: C_5  and  C_6
REMARK    3  A    between atoms: C_5  and  C_7
REMARK    4  A    between atoms: C_7  and  C_8
REMARK    5  A    between atoms: C_8  and  C_9
REMARK    6  A    between atoms: C_10  and  C_11
REMARK    7  A    between atoms: C_11  and  O_12
REMARK    8  A    between atoms: C_11  and  C_13
REMARK    9  A    between atoms: C_11  and  C_17
REMARK   10  A    between atoms: C_21  and  C_22
REMARK   11  A    between atoms: C_21  and  C_23
REMARK   12  A    between atoms: C_25  and  C_26
REMARK   13  A    between atoms: C_29  and  O_30
REMARK   14  A    between atoms: C_33  and  O_34
REMARK                            x       y       z     vdW  Elec       q    Type
REMARK                         _______ _______ _______ _____ _____    ______ ____
ROOT
ATOM      1  C   UNL     1       9.116  -0.998  22.225  0.00  0.00    +0.018 C 
ATOM      2  C   UNL     1       8.506   0.364  22.715  0.00  0.00    -0.023 C 
ATOM      3  C   UNL     1       6.972   0.278  22.872  0.00  0.00    +0.012 C 
ATOM      4  C   UNL     1       8.729   1.400  21.576  0.00  0.00    +0.012 C 
ATOM      5  C   UNL     1       9.327   0.731  24.052  0.00  0.00    -0.026 C 
ATOM      6  C   UNL     1      10.129   2.053  23.919  0.00  0.00    +0.012 C 
ATOM      7  C   UNL     1      10.347  -0.428  24.206  0.00  0.00    +0.008 C 
ATOM      8  C   UNL     1      10.526  -1.007  22.815  0.00  0.00    +0.009 C 
ENDROOT
BRANCH   1   9
ATOM      9  C   UNL     1       8.369  -2.268  22.611  0.00  0.00    -0.023 C 
ATOM     10  C   UNL     1       8.772  -3.015  23.650  0.00  0.00    -0.004 C 
BRANCH  10  11
ATOM     11  C   UNL     1       8.108  -4.205  24.135  0.00  0.00    -0.001 C 
ATOM     12  C   UNL     1       6.771  -4.384  24.197  0.00  0.00    -0.065 C 
ATOM     13  C   UNL     1       6.170  -5.692  24.674  0.00  0.00    +0.062 C 
ATOM     14  C   UNL     1       5.163  -6.271  23.663  0.00  0.00    +0.121 C 
ATOM     15  C   UNL     1       4.112  -5.244  23.235  0.00  0.00    +0.063 C 
ATOM     16  C   UNL     1       4.754  -3.948  22.747  0.00  0.00    +0.121 C 
ATOM     17  C   UNL     1       5.714  -3.372  23.796  0.00  0.00    +0.062 C 
BRANCH  14  18
ATOM     18  O   UNL     1       4.505  -7.403  24.237  0.00  0.00    -0.391 OA
ATOM     19  H   UNL     1       3.549  -7.303  24.093  0.00  0.00    +0.210 HD
ENDBRANCH  14  18
BRANCH  16  20
ATOM     20  O   UNL     1       5.422  -4.204  21.510  0.00  0.00    -0.391 OA
ATOM     21  H   UNL     1       6.295  -3.774  21.530  0.00  0.00    +0.210 HD
ENDBRANCH  16  20
ENDBRANCH  10  11
ENDBRANCH   1   9
BRANCH   5  22
ATOM     22  C   UNL     1       8.448   0.815  25.337  0.00  0.00    +0.020 C 
BRANCH  22  23
ATOM     23  C   UNL     1       8.459  -0.453  26.206  0.00  0.00    +0.089 C 
BRANCH  23  24
ATOM     24  C   UNL     1       7.101  -0.920  26.503  0.00  0.00    -0.099 C 
ATOM     25  C   UNL     1       5.916  -1.384  26.792  0.00  0.00    -0.050 C 
BRANCH  25  26
ATOM     26  C   UNL     1       4.536  -1.923  27.128  0.00  0.00    +0.318 C 
BRANCH  26  27
ATOM     27  C   UNL     1       3.911  -1.084  28.272  0.00  0.00    +0.438 C 
ATOM     28  F   UNL     1       4.564  -1.119  29.449  0.00  0.00    -0.166 F 
ATOM     29  F   UNL     1       2.637  -1.483  28.537  0.00  0.00    -0.166 F 
ATOM     30  F   UNL     1       3.816   0.234  27.944  0.00  0.00    -0.166 F 
ENDBRANCH  26  27
BRANCH  26  31
ATOM     31  C   UNL     1       4.636  -3.413  27.535  0.00  0.00    +0.438 C 
ATOM     32  F   UNL     1       3.913  -4.176  26.666  0.00  0.00    -0.166 F 
ATOM     33  F   UNL     1       4.203  -3.735  28.764  0.00  0.00    -0.166 F 
ATOM     34  F   UNL     1       5.908  -3.883  27.441  0.00  0.00    -0.166 F 
ENDBRANCH  26  31
BRANCH  26  35
ATOM     35  O   UNL     1       3.766  -1.769  25.896  0.00  0.00    -0.363 OA
ATOM     36  H   UNL     1       2.928  -2.252  26.020  0.00  0.00    +0.212 HD
ENDBRANCH  26  35
ENDBRANCH  25  26
ENDBRANCH  23  24
ENDBRANCH  22  23
ENDBRANCH   5  22
TORSDOF 11
ENDMDL
MODEL 8
REMARK VINA RESULT:      -6.7      4.296      6.830
REMARK  Name = 
REMARK  14 active torsions:
REMARK  status: ('A' for Active; 'I' for Inactive)
REMARK    1  A    between atoms: C_2  and  C_24
REMARK    2  A    between atoms: C_5  and  C_6
REMARK    3  A    between atoms: C_5  and  C_7
REMARK    4  A    between atoms: C_7  and  C_8
REMARK    5  A    between atoms: C_8  and  C_9
REMARK    6  A    between atoms: C_10  and  C_11
REMARK    7  A    between atoms: C_11  and  O_12
REMARK    8  A    between atoms: C_11  and  C_13
REMARK    9  A    between atoms: C_11  and  C_17
REMARK   10  A    between atoms: C_21  and  C_22
REMARK   11  A    between atoms: C_21  and  C_23
REMARK   12  A    between atoms: C_25  and  C_26
REMARK   13  A    between atoms: C_29  and  O_30
REMARK   14  A    between atoms: C_33  and  O_34
REMARK                            x       y       z     vdW  Elec       q    Type
REMARK                         _______ _______ _______ _____ _____    ______ ____
ROOT
ATOM      1  C   UNL     1       5.932  -3.018  24.408  0.00  0.00    +0.018 C 
ATOM      2  C   UNL     1       7.073  -3.534  23.458  0.00  0.00    -0.023 C 
ATOM      3  C   UNL     1       7.294  -2.581  22.262  0.00  0.00    +0.012 C 
ATOM      4  C   UNL     1       6.572  -4.860  22.820  0.00  0.00    +0.012 C 
ATOM      5  C   UNL     1       8.346  -3.754  24.421  0.00  0.00    -0.026 C 
ATOM      6  C   UNL     1       8.811  -5.234  24.470  0.00  0.00    +0.012 C 
ATOM      7  C   UNL     1       7.829  -3.373  25.833  0.00  0.00    +0.008 C 
ATOM      8  C   UNL     1       6.324  -3.552  25.785  0.00  0.00    +0.009 C 
ENDROOT
BRANCH   1   9
ATOM      9  C   UNL     1       5.708  -1.512  24.464  0.00  0.00    -0.023 C 
ATOM     10  C   UNL     1       6.015  -0.813  25.566  0.00  0.00    -0.004 C 
BRANCH  10  11
ATOM     11  C   UNL     1       5.894   0.622  25.709  0.00  0.00    -0.001 C 
ATOM     12  C   UNL     1       5.767   1.285  26.878  0.00  0.00    -0.065 C 
ATOM     13  C   UNL     1       5.698   2.798  26.927  0.00  0.00    +0.062 C 
ATOM     14  C   UNL     1       6.744   3.397  27.886  0.00  0.00    +0.121 C 
ATOM     15  C   UNL     1       6.703   2.746  29.271  0.00  0.00    +0.063 C 
ATOM     16  C   UNL     1       6.790   1.225  29.183  0.00  0.00    +0.121 C 
ATOM     17  C   UNL     1       5.706   0.656  28.258  0.00  0.00    +0.062 C 
BRANCH  14  18
ATOM     18  O   UNL     1       6.520   4.802  28.022  0.00  0.00    -0.391 OA
ATOM     19  H   UNL     1       5.740   5.038  27.494  0.00  0.00    +0.210 HD
ENDBRANCH  14  18
BRANCH  16  20
ATOM     20  O   UNL     1       8.099   0.864  28.738  0.00  0.00    -0.391 OA
ATOM     21  H   UNL     1       8.236  -0.086  28.900  0.00  0.00    +0.210 HD
ENDBRANCH  16  20
ENDBRANCH  10  11
ENDBRANCH   1   9
BRANCH   5  22
ATOM     22  C   UNL     1       9.576  -2.863  24.066  0.00  0.00    +0.020 C 
BRANCH  22  23
ATOM     23  C   UNL     1       9.737  -1.613  24.946  0.00  0.00    +0.089 C 
BRANCH  23  24
ATOM     24  C   UNL     1       9.513  -0.380  24.185  0.00  0.00    -0.099 C 
ATOM     25  C   UNL     1       9.263   0.724  23.536  0.00  0.00    -0.050 C 
BRANCH  25  26
ATOM     26  C   UNL     1       8.974   2.011  22.781  0.00  0.00    +0.318 C 
BRANCH  26  27
ATOM     27  C   UNL     1       9.456   3.226  23.614  0.00  0.00    +0.438 C 
ATOM     28  F   UNL     1       9.006   4.430  23.208  0.00  0.00    -0.166 F 
ATOM     29  F   UNL     1      10.813   3.315  23.616  0.00  0.00    -0.166 F 
ATOM     30  F   UNL     1       9.097   3.123  24.923  0.00  0.00    -0.166 F 
ENDBRANCH  26  27
BRANCH  26  31
ATOM     31  C   UNL     1       7.459   2.118  22.482  0.00  0.00    +0.438 C 
ATOM     32  F   UNL     1       6.931   0.869  22.333  0.00  0.00    -0.166 F 
ATOM     33  F   UNL     1       7.106   2.806  21.385  0.00  0.00    -0.166 F 
ATOM     34  F   UNL     1       6.773   2.669  23.519  0.00  0.00    -0.166 F 
ENDBRANCH  26  31
BRANCH  26  35
ATOM     35  O   UNL     1       9.743   1.896  21.544  0.00  0.00    -0.363 OA
ATOM     36  H   UNL     1      10.460   2.555  21.591  0.00  0.00    +0.212 HD
ENDBRANCH  26  35
ENDBRANCH  25  26
ENDBRANCH  23  24
ENDBRANCH  22  23
ENDBRANCH   5  22
TORSDOF 11
ENDMDL
MODEL 9
REMARK VINA RESULT:      -6.6      4.221      7.545
REMARK  Name = 
REMARK  14 active torsions:
REMARK  status: ('A' for Active; 'I' for Inactive)
REMARK    1  A    between atoms: C_2  and  C_24
REMARK    2  A    between atoms: C_5  and  C_6
REMARK    3  A    between atoms: C_5  and  C_7
REMARK    4  A    between atoms: C_7  and  C_8
REMARK    5  A    between atoms: C_8  and  C_9
REMARK    6  A    between atoms: C_10  and  C_11
REMARK    7  A    between atoms: C_11  and  O_12
REMARK    8  A    between atoms: C_11  and  C_13
REMARK    9  A    between atoms: C_11  and  C_17
REMARK   10  A    between atoms: C_21  and  C_22
REMARK   11  A    between atoms: C_21  and  C_23
REMARK   12  A    between atoms: C_25  and  C_26
REMARK   13  A    between atoms: C_29  and  O_30
REMARK   14  A    between atoms: C_33  and  O_34
REMARK                            x       y       z     vdW  Elec       q    Type
REMARK                         _______ _______ _______ _____ _____    ______ ____
ROOT
ATOM      1  C   UNL     1       9.713  -2.382  24.327  0.00  0.00    +0.018 C 
ATOM      2  C   UNL     1       8.818  -3.494  24.983  0.00  0.00    -0.023 C 
ATOM      3  C   UNL     1       8.329  -3.077  26.388  0.00  0.00    +0.012 C 
ATOM      4  C   UNL     1       9.730  -4.728  25.232  0.00  0.00    +0.012 C 
ATOM      5  C   UNL     1       7.662  -3.790  23.901  0.00  0.00    -0.026 C 
ATOM      6  C   UNL     1       7.694  -5.249  23.373  0.00  0.00    +0.012 C 
ATOM      7  C   UNL     1       7.999  -2.850  22.713  0.00  0.00    +0.008 C 
ATOM      8  C   UNL     1       9.483  -2.558  22.826  0.00  0.00    +0.009 C 
ENDROOT
BRANCH   1   9
ATOM      9  C   UNL     1       9.442  -0.942  24.743  0.00  0.00    -0.023 C 
ATOM     10  C   UNL     1      10.129   0.072  24.195  0.00  0.00    -0.004 C 
BRANCH  10  11
ATOM     11  C   UNL     1       9.917   1.475  24.476  0.00  0.00    -0.001 C 
ATOM     12  C   UNL     1       9.404   2.378  23.613  0.00  0.00    -0.065 C 
ATOM     13  C   UNL     1       9.172   3.819  24.020  0.00  0.00    +0.062 C 
ATOM     14  C   UNL     1       7.726   4.274  23.750  0.00  0.00    +0.121 C 
ATOM     15  C   UNL     1       7.280   3.973  22.317  0.00  0.00    +0.063 C 
ATOM     16  C   UNL     1       7.514   2.510  21.948  0.00  0.00    +0.121 C 
ATOM     17  C   UNL     1       8.974   2.102  22.184  0.00  0.00    +0.062 C 
BRANCH  14  18
ATOM     18  O   UNL     1       7.613   5.679  23.989  0.00  0.00    -0.391 OA
ATOM     19  H   UNL     1       7.429   6.117  23.142  0.00  0.00    +0.210 HD
ENDBRANCH  14  18
BRANCH  16  20
ATOM     20  O   UNL     1       6.614   1.696  22.703  0.00  0.00    -0.391 OA
ATOM     21  H   UNL     1       6.138   2.260  23.338  0.00  0.00    +0.210 HD
ENDBRANCH  16  20
ENDBRANCH  10  11
ENDBRANCH   1   9
BRANCH   5  22
ATOM     22  C   UNL     1       6.219  -3.481  24.406  0.00  0.00    +0.020 C 
BRANCH  22  23
ATOM     23  C   UNL     1       5.629  -2.159  23.891  0.00  0.00    +0.089 C 
BRANCH  23  24
ATOM     24  C   UNL     1       5.637  -1.120  24.926  0.00  0.00    -0.099 C 
ATOM     25  C   UNL     1       5.615  -0.232  25.882  0.00  0.00    -0.050 C 
BRANCH  25  26
ATOM     26  C   UNL     1       5.591   0.802  26.995  0.00  0.00    +0.318 C 
BRANCH  26  27
ATOM     27  C   UNL     1       4.714   2.008  26.569  0.00  0.00    +0.438 C 
ATOM     28  F   UNL     1       4.860   3.127  27.304  0.00  0.00    -0.166 F 
ATOM     29  F   UNL     1       3.390   1.696  26.619  0.00  0.00    -0.166 F 
ATOM     30  F   UNL     1       4.950   2.382  25.282  0.00  0.00    -0.166 F 
ENDBRANCH  26  27
BRANCH  26  31
ATOM     31  C   UNL     1       7.032   1.261  27.321  0.00  0.00    +0.438 C 
ATOM     32  F   UNL     1       7.079   1.764  28.587  0.00  0.00    -0.166 F 
ATOM     33  F   UNL     1       7.562   2.204  26.525  0.00  0.00    -0.166 F 
ATOM     34  F   UNL     1       7.910   0.223  27.322  0.00  0.00    -0.166 F 
ENDBRANCH  26  31
BRANCH  26  35
ATOM     35  O   UNL     1       4.994   0.108  28.134  0.00  0.00    -0.363 OA
ATOM     36  H   UNL     1       4.150   0.555  28.331  0.00  0.00    +0.212 HD
ENDBRANCH  26  35
ENDBRANCH  25  26
ENDBRANCH  23  24
ENDBRANCH  22  23
ENDBRANCH   5  22
TORSDOF 11
ENDMDL
