MODEL 1
REMARK VINA RESULT:      -5.9      0.000      0.000
REMARK  Name = 
REMARK  9 active torsions:
REMARK  status: ('A' for Active; 'I' for Inactive)
REMARK    1  A    between atoms: C_1  and  O_2
REMARK    2  A    between atoms: O_2  and  C_3
REMARK    3  A    between atoms: C_5  and  N_6
REMARK    4  A    between atoms: N_6  and  C_7
REMARK    5  A    between atoms: C_7  and  C_8
REMARK    6  A    between atoms: C_7  and  C_9
REMARK    7  A    between atoms: C_9  and  C_10
REMARK    8  A    between atoms: C_10  and  C_11
REMARK    9  A    between atoms: C_11  and  N_12
REMARK                            x       y       z     vdW  Elec       q    Type
REMARK                         _______ _______ _______ _____ _____    ______ ____
ROOT
ATOM      1  C   UNL     1       7.226  -4.827  26.477  0.00  0.00    +0.123 A 
ATOM      2  C   UNL     1       6.398  -5.502  25.593  0.00  0.00    +0.055 A 
ATOM      3  C   UNL     1       6.510  -5.285  24.213  0.00  0.00    +0.006 A 
ATOM      4  C   UNL     1       7.504  -4.417  23.690  0.00  0.00    +0.092 A 
ATOM      5  N   UNL     1       7.586  -4.191  22.356  0.00  0.00    -0.253 NA
ATOM      6  C   UNL     1       6.678  -4.782  21.544  0.00  0.00    +0.111 A 
ATOM      7  C   UNL     1       5.688  -5.643  21.980  0.00  0.00    +0.020 A 
ATOM      8  C   UNL     1       8.388  -3.788  24.597  0.00  0.00    +0.057 A 
ATOM      9  C   UNL     1       5.606  -5.901  23.339  0.00  0.00    +0.011 A 
ATOM     10  C   UNL     1       8.212  -3.979  25.977  0.00  0.00    +0.070 A 
ENDROOT
BRANCH   1  12
ATOM     11  C   UNL     1       6.198  -5.827  28.353  0.00  0.00    +0.277 C 
ATOM     12  O   UNL     1       7.196  -4.950  27.838  0.00  0.00    -0.495 OA
ENDBRANCH   1  12
BRANCH   8  13
ATOM     13  N   UNL     1       9.464  -3.013  24.111  0.00  0.00    -0.340 N 
ATOM     14  H   UNL     1      10.054  -3.560  23.483  0.00  0.00    +0.146 HD
BRANCH  13  15
ATOM     15  C   UNL     1       9.294  -1.593  23.792  0.00  0.00    +0.067 C 
ATOM     16  C   UNL     1       9.738  -0.761  24.997  0.00  0.00    +0.028 C 
BRANCH  15  17
ATOM     17  C   UNL     1      10.162  -1.213  22.573  0.00  0.00    +0.023 C 
BRANCH  17  18
ATOM     18  C   UNL     1       9.445  -0.401  21.486  0.00  0.00    +0.017 C 
BRANCH  18  19
ATOM     19  C   UNL     1       8.935   0.975  21.917  0.00  0.00    +0.078 C 
BRANCH  19  20
ATOM     20  N   UNL     1       9.820   2.051  21.485  0.00  0.00    -0.330 NA
ATOM     21  H   UNL     1      10.496   1.678  20.818  0.00  0.00    +0.118 HD
ATOM     22  H   UNL     1       9.293   2.760  20.982  0.00  0.00    +0.118 HD
ENDBRANCH  19  20
ENDBRANCH  18  19
ENDBRANCH  17  18
ENDBRANCH  15  17
ENDBRANCH  13  15
ENDBRANCH   8  13
TORSDOF 7
ENDMDL
MODEL 2
REMARK VINA RESULT:      -5.9      1.855      3.471
REMARK  Name = 
REMARK  9 active torsions:
REMARK  status: ('A' for Active; 'I' for Inactive)
REMARK    1  A    between atoms: C_1  and  O_2
REMARK    2  A    between atoms: O_2  and  C_3
REMARK    3  A    between atoms: C_5  and  N_6
REMARK    4  A    between atoms: N_6  and  C_7
REMARK    5  A    between atoms: C_7  and  C_8
REMARK    6  A    between atoms: C_7  and  C_9
REMARK    7  A    between atoms: C_9  and  C_10
REMARK    8  A    between atoms: C_10  and  C_11
REMARK    9  A    between atoms: C_11  and  N_12
REMARK                            x       y       z     vdW  Elec       q    Type
REMARK                         _______ _______ _______ _____ _____    ______ ____
ROOT
ATOM      1  C   UNL     1       6.370  -4.653  22.346  0.00  0.00    +0.123 A 
ATOM      2  C   UNL     1       5.796  -5.201  23.483  0.00  0.00    +0.055 A 
ATOM      3  C   UNL     1       6.422  -5.058  24.729  0.00  0.00    +0.006 A 
ATOM      4  C   UNL     1       7.618  -4.307  24.862  0.00  0.00    +0.092 A 
ATOM      5  N   UNL     1       8.231  -4.198  26.066  0.00  0.00    -0.253 NA
ATOM      6  C   UNL     1       7.695  -4.851  27.124  0.00  0.00    +0.111 A 
ATOM      7  C   UNL     1       6.530  -5.593  27.073  0.00  0.00    +0.020 A 
ATOM      8  C   UNL     1       8.157  -3.695  23.707  0.00  0.00    +0.057 A 
ATOM      9  C   UNL     1       5.880  -5.695  25.852  0.00  0.00    +0.011 A 
ATOM     10  C   UNL     1       7.540  -3.906  22.463  0.00  0.00    +0.070 A 
ENDROOT
BRANCH   1  12
ATOM     11  C   UNL     1       6.083  -5.980  20.413  0.00  0.00    +0.277 C 
ATOM     12  O   UNL     1       5.857  -4.742  21.081  0.00  0.00    -0.495 OA
ENDBRANCH   1  12
BRANCH   8  13
ATOM     13  N   UNL     1       9.278  -2.843  23.816  0.00  0.00    -0.340 N 
ATOM     14  H   UNL     1      10.113  -3.289  23.435  0.00  0.00    +0.146 HD
BRANCH  13  15
ATOM     15  C   UNL     1       9.154  -1.395  23.627  0.00  0.00    +0.067 C 
ATOM     16  C   UNL     1       9.544  -0.693  24.930  0.00  0.00    +0.028 C 
BRANCH  15  17
ATOM     17  C   UNL     1      10.097  -0.922  22.500  0.00  0.00    +0.023 C 
BRANCH  17  18
ATOM     18  C   UNL     1       9.424  -0.125  21.374  0.00  0.00    +0.017 C 
BRANCH  18  19
ATOM     19  C   UNL     1       9.010   1.303  21.733  0.00  0.00    +0.078 C 
BRANCH  19  20
ATOM     20  N   UNL     1      10.136   2.229  21.696  0.00  0.00    -0.330 NA
ATOM     21  H   UNL     1      10.420   2.445  22.651  0.00  0.00    +0.118 HD
ATOM     22  H   UNL     1      10.941   1.788  21.258  0.00  0.00    +0.118 HD
ENDBRANCH  19  20
ENDBRANCH  18  19
ENDBRANCH  17  18
ENDBRANCH  15  17
ENDBRANCH  13  15
ENDBRANCH   8  13
TORSDOF 7
ENDMDL
MODEL 3
REMARK VINA RESULT:      -5.7      2.329      3.949
REMARK  Name = 
REMARK  9 active torsions:
REMARK  status: ('A' for Active; 'I' for Inactive)
REMARK    1  A    between atoms: C_1  and  O_2
REMARK    2  A    between atoms: O_2  and  C_3
REMARK    3  A    between atoms: C_5  and  N_6
REMARK    4  A    between atoms: N_6  and  C_7
REMARK    5  A    between atoms: C_7  and  C_8
REMARK    6  A    between atoms: C_7  and  C_9
REMARK    7  A    between atoms: C_9  and  C_10
REMARK    8  A    between atoms: C_10  and  C_11
REMARK    9  A    between atoms: C_11  and  N_12
REMARK                            x       y       z     vdW  Elec       q    Type
REMARK                         _______ _______ _______ _____ _____    ______ ____
ROOT
ATOM      1  C   UNL     1       6.559  -4.199  22.170  0.00  0.00    +0.123 A 
ATOM      2  C   UNL     1       6.342  -4.759  23.420  0.00  0.00    +0.055 A 
ATOM      3  C   UNL     1       7.099  -4.341  24.523  0.00  0.00    +0.006 A 
ATOM      4  C   UNL     1       8.059  -3.304  24.397  0.00  0.00    +0.092 A 
ATOM      5  N   UNL     1       8.806  -2.926  25.463  0.00  0.00    -0.253 NA
ATOM      6  C   UNL     1       8.640  -3.586  26.634  0.00  0.00    +0.111 A 
ATOM      7  C   UNL     1       7.722  -4.600  26.833  0.00  0.00    +0.020 A 
ATOM      8  C   UNL     1       8.222  -2.692  23.133  0.00  0.00    +0.057 A 
ATOM      9  C   UNL     1       6.935  -4.981  25.757  0.00  0.00    +0.011 A 
ATOM     10  C   UNL     1       7.492  -3.173  22.035  0.00  0.00    +0.070 A 
ENDROOT
BRANCH   1  12
ATOM     11  C   UNL     1       6.050  -5.889  20.601  0.00  0.00    +0.277 C 
ATOM     12  O   UNL     1       5.892  -4.538  21.026  0.00  0.00    -0.495 OA
ENDBRANCH   1  12
BRANCH   8  13
ATOM     13  N   UNL     1       9.079  -1.578  22.993  0.00  0.00    -0.340 N 
ATOM     14  H   UNL     1      10.053  -1.875  22.917  0.00  0.00    +0.146 HD
BRANCH  13  15
ATOM     15  C   UNL     1       8.681  -0.406  22.209  0.00  0.00    +0.067 C 
ATOM     16  C   UNL     1       7.516   0.288  22.919  0.00  0.00    +0.028 C 
BRANCH  15  17
ATOM     17  C   UNL     1       9.859   0.584  22.093  0.00  0.00    +0.023 C 
BRANCH  17  18
ATOM     18  C   UNL     1      10.097   1.467  23.326  0.00  0.00    +0.017 C 
BRANCH  18  19
ATOM     19  C   UNL     1      10.952   0.845  24.430  0.00  0.00    +0.078 C 
BRANCH  19  20
ATOM     20  N   UNL     1      10.145   0.160  25.433  0.00  0.00    -0.330 NA
ATOM     21  H   UNL     1      10.100  -0.833  25.204  0.00  0.00    +0.118 HD
ATOM     22  H   UNL     1      10.593   0.216  26.345  0.00  0.00    +0.118 HD
ENDBRANCH  19  20
ENDBRANCH  18  19
ENDBRANCH  17  18
ENDBRANCH  15  17
ENDBRANCH  13  15
ENDBRANCH   8  13
TORSDOF 7
ENDMDL
MODEL 4
REMARK VINA RESULT:      -5.6      2.231      3.918
REMARK  Name = 
REMARK  9 active torsions:
REMARK  status: ('A' for Active; 'I' for Inactive)
REMARK    1  A    between atoms: C_1  and  O_2
REMARK    2  A    between atoms: O_2  and  C_3
REMARK    3  A    between atoms: C_5  and  N_6
REMARK    4  A    between atoms: N_6  and  C_7
REMARK    5  A    between atoms: C_7  and  C_8
REMARK    6  A    between atoms: C_7  and  C_9
REMARK    7  A    between atoms: C_9  and  C_10
REMARK    8  A    between atoms: C_10  and  C_11
REMARK    9  A    between atoms: C_11  and  N_12
REMARK                            x       y       z     vdW  Elec       q    Type
REMARK                         _______ _______ _______ _____ _____    ______ ____
ROOT
ATOM      1  C   UNL     1       5.583  -5.568  23.448  0.00  0.00    +0.123 A 
ATOM      2  C   UNL     1       4.879  -6.168  24.481  0.00  0.00    +0.055 A 
ATOM      3  C   UNL     1       5.386  -6.145  25.788  0.00  0.00    +0.006 A 
ATOM      4  C   UNL     1       6.593  -5.465  26.089  0.00  0.00    +0.092 A 
ATOM      5  N   UNL     1       7.090  -5.473  27.351  0.00  0.00    -0.253 NA
ATOM      6  C   UNL     1       6.427  -6.173  28.301  0.00  0.00    +0.111 A 
ATOM      7  C   UNL     1       5.243  -6.852  28.084  0.00  0.00    +0.020 A 
ATOM      8  C   UNL     1       7.267  -4.798  25.040  0.00  0.00    +0.057 A 
ATOM      9  C   UNL     1       4.711  -6.834  26.803  0.00  0.00    +0.011 A 
ATOM     10  C   UNL     1       6.766  -4.890  23.732  0.00  0.00    +0.070 A 
ENDROOT
BRANCH   1  12
ATOM     11  C   UNL     1       6.224  -5.783  21.184  0.00  0.00    +0.277 C 
ATOM     12  O   UNL     1       5.193  -5.542  22.138  0.00  0.00    -0.495 OA
ENDBRANCH   1  12
BRANCH   8  13
ATOM     13  N   UNL     1       8.406  -4.012  25.319  0.00  0.00    -0.340 N 
ATOM     14  H   UNL     1       9.264  -4.542  25.159  0.00  0.00    +0.146 HD
BRANCH  13  15
ATOM     15  C   UNL     1       8.441  -2.583  24.997  0.00  0.00    +0.067 C 
ATOM     16  C   UNL     1       8.504  -1.786  26.302  0.00  0.00    +0.028 C 
BRANCH  15  17
ATOM     17  C   UNL     1       9.690  -2.258  24.150  0.00  0.00    +0.023 C 
BRANCH  17  18
ATOM     18  C   UNL     1       9.907  -0.768  23.848  0.00  0.00    +0.017 C 
BRANCH  18  19
ATOM     19  C   UNL     1      10.052  -0.408  22.369  0.00  0.00    +0.078 C 
BRANCH  19  20
ATOM     20  N   UNL     1       9.942  -1.578  21.504  0.00  0.00    -0.330 NA
ATOM     21  H   UNL     1      10.717  -1.576  20.842  0.00  0.00    +0.118 HD
ATOM     22  H   UNL     1      10.043  -2.430  22.050  0.00  0.00    +0.118 HD
ENDBRANCH  19  20
ENDBRANCH  18  19
ENDBRANCH  17  18
ENDBRANCH  15  17
ENDBRANCH  13  15
ENDBRANCH   8  13
TORSDOF 7
ENDMDL
MODEL 5
REMARK VINA RESULT:      -5.6      2.631      5.784
REMARK  Name = 
REMARK  9 active torsions:
REMARK  status: ('A' for Active; 'I' for Inactive)
REMARK    1  A    between atoms: C_1  and  O_2
REMARK    2  A    between atoms: O_2  and  C_3
REMARK    3  A    between atoms: C_5  and  N_6
REMARK    4  A    between atoms: N_6  and  C_7
REMARK    5  A    between atoms: C_7  and  C_8
REMARK    6  A    between atoms: C_7  and  C_9
REMARK    7  A    between atoms: C_9  and  C_10
REMARK    8  A    between atoms: C_10  and  C_11
REMARK    9  A    between atoms: C_11  and  N_12
REMARK                            x       y       z     vdW  Elec       q    Type
REMARK                         _______ _______ _______ _____ _____    ______ ____
ROOT
ATOM      1  C   UNL     1       5.880  -0.528  24.577  0.00  0.00    +0.123 A 
ATOM      2  C   UNL     1       6.573   0.608  24.186  0.00  0.00    +0.055 A 
ATOM      3  C   UNL     1       7.632   0.510  23.273  0.00  0.00    +0.006 A 
ATOM      4  C   UNL     1       7.979  -0.737  22.691  0.00  0.00    +0.092 A 
ATOM      5  N   UNL     1       9.023  -0.826  21.830  0.00  0.00    -0.253 NA
ATOM      6  C   UNL     1       9.743   0.290  21.571  0.00  0.00    +0.111 A 
ATOM      7  C   UNL     1       9.460   1.538  22.094  0.00  0.00    +0.020 A 
ATOM      8  C   UNL     1       7.220  -1.876  23.045  0.00  0.00    +0.057 A 
ATOM      9  C   UNL     1       8.382   1.649  22.958  0.00  0.00    +0.011 A 
ATOM     10  C   UNL     1       6.205  -1.756  24.008  0.00  0.00    +0.070 A 
ENDROOT
BRANCH   1  12
ATOM     11  C   UNL     1       4.728   0.594  26.307  0.00  0.00    +0.277 C 
ATOM     12  O   UNL     1       4.844  -0.552  25.469  0.00  0.00    -0.495 OA
ENDBRANCH   1  12
BRANCH   8  13
ATOM     13  N   UNL     1       7.456  -3.110  22.400  0.00  0.00    -0.340 N 
ATOM     14  H   UNL     1       8.397  -3.141  22.004  0.00  0.00    +0.146 HD
BRANCH  13  15
ATOM     15  C   UNL     1       6.924  -4.364  22.939  0.00  0.00    +0.067 C 
ATOM     16  C   UNL     1       6.515  -5.267  21.773  0.00  0.00    +0.028 C 
BRANCH  15  17
ATOM     17  C   UNL     1       8.001  -5.084  23.778  0.00  0.00    +0.023 C 
BRANCH  17  18
ATOM     18  C   UNL     1       7.883  -4.896  25.297  0.00  0.00    +0.017 C 
BRANCH  18  19
ATOM     19  C   UNL     1       9.207  -4.825  26.058  0.00  0.00    +0.078 C 
BRANCH  19  20
ATOM     20  N   UNL     1      10.279  -5.533  25.367  0.00  0.00    -0.330 NA
ATOM     21  H   UNL     1      11.177  -5.180  25.695  0.00  0.00    +0.118 HD
ATOM     22  H   UNL     1      10.262  -6.521  25.609  0.00  0.00    +0.118 HD
ENDBRANCH  19  20
ENDBRANCH  18  19
ENDBRANCH  17  18
ENDBRANCH  15  17
ENDBRANCH  13  15
ENDBRANCH   8  13
TORSDOF 7
ENDMDL
MODEL 6
REMARK VINA RESULT:      -5.5      2.473      5.609
REMARK  Name = 
REMARK  9 active torsions:
REMARK  status: ('A' for Active; 'I' for Inactive)
REMARK    1  A    between atoms: C_1  and  O_2
REMARK    2  A    between atoms: O_2  and  C_3
REMARK    3  A    between atoms: C_5  and  N_6
REMARK    4  A    between atoms: N_6  and  C_7
REMARK    5  A    between atoms: C_7  and  C_8
REMARK    6  A    between atoms: C_7  and  C_9
REMARK    7  A    between atoms: C_9  and  C_10
REMARK    8  A    between atoms: C_10  and  C_11
REMARK    9  A    between atoms: C_11  and  N_12
REMARK                            x       y       z     vdW  Elec       q    Type
REMARK                         _______ _______ _______ _____ _____    ______ ____
ROOT
ATOM      1  C   UNL     1       9.382  -2.864  23.956  0.00  0.00    +0.123 A 
ATOM      2  C   UNL     1      10.053  -1.806  23.362  0.00  0.00    +0.055 A 
ATOM      3  C   UNL     1       9.347  -0.678  22.924  0.00  0.00    +0.006 A 
ATOM      4  C   UNL     1       7.947  -0.571  23.126  0.00  0.00    +0.092 A 
ATOM      5  N   UNL     1       7.268   0.511  22.672  0.00  0.00    -0.253 NA
ATOM      6  C   UNL     1       7.950   1.463  21.994  0.00  0.00    +0.111 A 
ATOM      7  C   UNL     1       9.313   1.431  21.766  0.00  0.00    +0.020 A 
ATOM      8  C   UNL     1       7.284  -1.626  23.794  0.00  0.00    +0.057 A 
ATOM      9  C   UNL     1      10.024   0.341  22.243  0.00  0.00    +0.011 A 
ATOM     10  C   UNL     1       8.009  -2.769  24.168  0.00  0.00    +0.070 A 
ENDROOT
BRANCH   1  12
ATOM     11  C   UNL     1       9.150  -4.831  25.244  0.00  0.00    +0.277 C 
ATOM     12  O   UNL     1       9.965  -4.016  24.407  0.00  0.00    -0.495 OA
ENDBRANCH   1  12
BRANCH   8  13
ATOM     13  N   UNL     1       5.915  -1.506  24.120  0.00  0.00    -0.340 N 
ATOM     14  H   UNL     1       5.337  -1.525  23.278  0.00  0.00    +0.146 HD
BRANCH  13  15
ATOM     15  C   UNL     1       5.360  -2.140  25.318  0.00  0.00    +0.067 C 
ATOM     16  C   UNL     1       4.778  -1.054  26.225  0.00  0.00    +0.028 C 
BRANCH  15  17
ATOM     17  C   UNL     1       4.237  -3.125  24.930  0.00  0.00    +0.023 C 
BRANCH  17  18
ATOM     18  C   UNL     1       4.704  -4.541  24.565  0.00  0.00    +0.017 C 
BRANCH  18  19
ATOM     19  C   UNL     1       4.514  -4.942  23.101  0.00  0.00    +0.078 C 
BRANCH  19  20
ATOM     20  N   UNL     1       5.077  -3.958  22.183  0.00  0.00    -0.330 NA
ATOM     21  H   UNL     1       4.327  -3.568  21.613  0.00  0.00    +0.118 HD
ATOM     22  H   UNL     1       5.470  -3.177  22.702  0.00  0.00    +0.118 HD
ENDBRANCH  19  20
ENDBRANCH  18  19
ENDBRANCH  17  18
ENDBRANCH  15  17
ENDBRANCH  13  15
ENDBRANCH   8  13
TORSDOF 7
ENDMDL
MODEL 7
REMARK VINA RESULT:      -5.3      2.459      2.907
REMARK  Name = 
REMARK  9 active torsions:
REMARK  status: ('A' for Active; 'I' for Inactive)
REMARK    1  A    between atoms: C_1  and  O_2
REMARK    2  A    between atoms: O_2  and  C_3
REMARK    3  A    between atoms: C_5  and  N_6
REMARK    4  A    between atoms: N_6  and  C_7
REMARK    5  A    between atoms: C_7  and  C_8
REMARK    6  A    between atoms: C_7  and  C_9
REMARK    7  A    between atoms: C_9  and  C_10
REMARK    8  A    between atoms: C_10  and  C_11
REMARK    9  A    between atoms: C_11  and  N_12
REMARK                            x       y       z     vdW  Elec       q    Type
REMARK                         _______ _______ _______ _____ _____    ______ ____
ROOT
ATOM      1  C   UNL     1       5.484  -1.846  24.505  0.00  0.00    +0.123 A 
ATOM      2  C   UNL     1       5.053  -3.163  24.539  0.00  0.00    +0.055 A 
ATOM      3  C   UNL     1       5.618  -4.114  23.678  0.00  0.00    +0.006 A 
ATOM      4  C   UNL     1       6.674  -3.764  22.798  0.00  0.00    +0.092 A 
ATOM      5  N   UNL     1       7.194  -4.683  21.949  0.00  0.00    -0.253 NA
ATOM      6  C   UNL     1       6.659  -5.927  21.937  0.00  0.00    +0.111 A 
ATOM      7  C   UNL     1       5.636  -6.342  22.769  0.00  0.00    +0.020 A 
ATOM      8  C   UNL     1       7.151  -2.433  22.821  0.00  0.00    +0.057 A 
ATOM      9  C   UNL     1       5.110  -5.419  23.659  0.00  0.00    +0.011 A 
ATOM     10  C   UNL     1       6.525  -1.490  23.651  0.00  0.00    +0.070 A 
ENDROOT
BRANCH   1  12
ATOM     11  C   UNL     1       5.642   0.426  25.134  0.00  0.00    +0.277 C 
ATOM     12  O   UNL     1       4.996  -0.835  25.286  0.00  0.00    -0.495 OA
ENDBRANCH   1  12
BRANCH   8  13
ATOM     13  N   UNL     1       8.277  -2.073  22.047  0.00  0.00    -0.340 N 
ATOM     14  H   UNL     1       8.057  -2.098  21.050  0.00  0.00    +0.146 HD
BRANCH  13  15
ATOM     15  C   UNL     1       9.206  -1.033  22.494  0.00  0.00    +0.067 C 
ATOM     16  C   UNL     1      10.537  -1.689  22.867  0.00  0.00    +0.028 C 
BRANCH  15  17
ATOM     17  C   UNL     1       9.449  -0.012  21.362  0.00  0.00    +0.023 C 
BRANCH  17  18
ATOM     18  C   UNL     1       9.436   1.461  21.795  0.00  0.00    +0.017 C 
BRANCH  18  19
ATOM     19  C   UNL     1       8.060   2.127  21.830  0.00  0.00    +0.078 C 
BRANCH  19  20
ATOM     20  N   UNL     1       8.136   3.530  22.224  0.00  0.00    -0.330 NA
ATOM     21  H   UNL     1       7.226   3.966  22.081  0.00  0.00    +0.118 HD
ATOM     22  H   UNL     1       8.330   3.606  23.220  0.00  0.00    +0.118 HD
ENDBRANCH  19  20
ENDBRANCH  18  19
ENDBRANCH  17  18
ENDBRANCH  15  17
ENDBRANCH  13  15
ENDBRANCH   8  13
TORSDOF 7
ENDMDL
MODEL 8
REMARK VINA RESULT:      -5.2      4.539      6.504
REMARK  Name = 
REMARK  9 active torsions:
REMARK  status: ('A' for Active; 'I' for Inactive)
REMARK    1  A    between atoms: C_1  and  O_2
REMARK    2  A    between atoms: O_2  and  C_3
REMARK    3  A    between atoms: C_5  and  N_6
REMARK    4  A    between atoms: N_6  and  C_7
REMARK    5  A    between atoms: C_7  and  C_8
REMARK    6  A    between atoms: C_7  and  C_9
REMARK    7  A    between atoms: C_9  and  C_10
REMARK    8  A    between atoms: C_10  and  C_11
REMARK    9  A    between atoms: C_11  and  N_12
REMARK                            x       y       z     vdW  Elec       q    Type
REMARK                         _______ _______ _______ _____ _____    ______ ____
ROOT
ATOM      1  C   UNL     1       7.782   2.064  25.654  0.00  0.00    +0.123 A 
ATOM      2  C   UNL     1       7.852   0.777  25.141  0.00  0.00    +0.055 A 
ATOM      3  C   UNL     1       8.450   0.544  23.895  0.00  0.00    +0.006 A 
ATOM      4  C   UNL     1       9.041   1.605  23.161  0.00  0.00    +0.092 A 
ATOM      5  N   UNL     1       9.591   1.374  21.944  0.00  0.00    -0.253 NA
ATOM      6  C   UNL     1       9.529   0.122  21.434  0.00  0.00    +0.111 A 
ATOM      7  C   UNL     1       8.977  -0.960  22.093  0.00  0.00    +0.020 A 
ATOM      8  C   UNL     1       9.025   2.901  23.725  0.00  0.00    +0.057 A 
ATOM      9  C   UNL     1       8.431  -0.744  23.349  0.00  0.00    +0.011 A 
ATOM     10  C   UNL     1       8.366   3.113  24.947  0.00  0.00    +0.070 A 
ENDROOT
BRANCH   1  12
ATOM     11  C   UNL     1       6.894   1.322  27.713  0.00  0.00    +0.277 C 
ATOM     12  O   UNL     1       7.212   2.409  26.848  0.00  0.00    -0.495 OA
ENDBRANCH   1  12
BRANCH   8  13
ATOM     13  N   UNL     1       9.705   3.959  23.084  0.00  0.00    -0.340 N 
ATOM     14  H   UNL     1       9.264   4.188  22.191  0.00  0.00    +0.146 HD
BRANCH  13  15
ATOM     15  C   UNL     1      10.271   5.074  23.848  0.00  0.00    +0.067 C 
ATOM     16  C   UNL     1      11.781   5.122  23.603  0.00  0.00    +0.028 C 
BRANCH  15  17
ATOM     17  C   UNL     1       9.645   6.408  23.389  0.00  0.00    +0.023 C 
BRANCH  17  18
ATOM     18  C   UNL     1       8.113   6.475  23.468  0.00  0.00    +0.017 C 
BRANCH  18  19
ATOM     19  C   UNL     1       7.380   6.406  22.128  0.00  0.00    +0.078 C 
BRANCH  19  20
ATOM     20  N   UNL     1       6.880   5.066  21.841  0.00  0.00    -0.330 NA
ATOM     21  H   UNL     1       6.433   4.692  22.677  0.00  0.00    +0.118 HD
ATOM     22  H   UNL     1       6.154   5.105  21.130  0.00  0.00    +0.118 HD
ENDBRANCH  19  20
ENDBRANCH  18  19
ENDBRANCH  17  18
ENDBRANCH  15  17
ENDBRANCH  13  15
ENDBRANCH   8  13
TORSDOF 7
ENDMDL
MODEL 9
REMARK VINA RESULT:      -5.2      2.786      6.058
REMARK  Name = 
REMARK  9 active torsions:
REMARK  status: ('A' for Active; 'I' for Inactive)
REMARK    1  A    between atoms: C_1  and  O_2
REMARK    2  A    between atoms: O_2  and  C_3
REMARK    3  A    between atoms: C_5  and  N_6
REMARK    4  A    between atoms: N_6  and  C_7
REMARK    5  A    between atoms: C_7  and  C_8
REMARK    6  A    between atoms: C_7  and  C_9
REMARK    7  A    between atoms: C_9  and  C_10
REMARK    8  A    between atoms: C_10  and  C_11
REMARK    9  A    between atoms: C_11  and  N_12
REMARK                            x       y       z     vdW  Elec       q    Type
REMARK                         _______ _______ _______ _____ _____    ______ ____
ROOT
ATOM      1  C   UNL     1       5.810  -0.437  24.672  0.00  0.00    +0.123 A 
ATOM      2  C   UNL     1       6.564   0.434  23.900  0.00  0.00    +0.055 A 
ATOM      3  C   UNL     1       7.563  -0.060  23.049  0.00  0.00    +0.006 A 
ATOM      4  C   UNL     1       7.785  -1.455  22.919  0.00  0.00    +0.092 A 
ATOM      5  N   UNL     1       8.773  -1.920  22.116  0.00  0.00    -0.253 NA
ATOM      6  C   UNL     1       9.559  -1.025  21.474  0.00  0.00    +0.111 A 
ATOM      7  C   UNL     1       9.397   0.346  21.546  0.00  0.00    +0.020 A 
ATOM      8  C   UNL     1       6.965  -2.336  23.660  0.00  0.00    +0.057 A 
ATOM      9  C   UNL     1       8.377   0.836  22.346  0.00  0.00    +0.011 A 
ATOM     10  C   UNL     1       6.013  -1.810  24.548  0.00  0.00    +0.070 A 
ENDROOT
BRANCH   1  12
ATOM     11  C   UNL     1       4.779  -0.798  26.766  0.00  0.00    +0.277 C 
ATOM     12  O   UNL     1       4.824  -0.068  25.544  0.00  0.00    -0.495 OA
ENDBRANCH   1  12
BRANCH   8  13
ATOM     13  N   UNL     1       7.074  -3.731  23.470  0.00  0.00    -0.340 N 
ATOM     14  H   UNL     1       7.260  -4.206  24.354  0.00  0.00    +0.146 HD
BRANCH  13  15
ATOM     15  C   UNL     1       6.228  -4.436  22.504  0.00  0.00    +0.067 C 
ATOM     16  C   UNL     1       7.041  -5.566  21.869  0.00  0.00    +0.028 C 
BRANCH  15  17
ATOM     17  C   UNL     1       4.998  -5.040  23.214  0.00  0.00    +0.023 C 
BRANCH  17  18
ATOM     18  C   UNL     1       5.228  -5.471  24.670  0.00  0.00    +0.017 C 
BRANCH  18  19
ATOM     19  C   UNL     1       4.633  -6.825  25.060  0.00  0.00    +0.078 C 
BRANCH  19  20
ATOM     20  N   UNL     1       4.015  -7.503  23.925  0.00  0.00    -0.330 NA
ATOM     21  H   UNL     1       4.213  -8.501  23.985  0.00  0.00    +0.118 HD
ATOM     22  H   UNL     1       3.002  -7.415  23.971  0.00  0.00    +0.118 HD
ENDBRANCH  19  20
ENDBRANCH  18  19
ENDBRANCH  17  18
ENDBRANCH  15  17
ENDBRANCH  13  15
ENDBRANCH   8  13
TORSDOF 7
ENDMDL
