MODEL 1
REMARK VINA RESULT:      -7.0      0.000      0.000
REMARK  Name = 
REMARK  8 active torsions:
REMARK  status: ('A' for Active; 'I' for Inactive)
REMARK    1  A    between atoms: C_1  and  C_2
REMARK    2  A    between atoms: C_3  and  C_4
REMARK    3  A    between atoms: C_4  and  C_5
REMARK    4  A    between atoms: C_5  and  O_6
REMARK    5  A    between atoms: O_6  and  P_7
REMARK    6  A    between atoms: N_13  and  C_14
REMARK    7  A    between atoms: C_14  and  C_15
REMARK    8  A    between atoms: C_18  and  C_22
REMARK                            x       y       z     vdW  Elec       q    Type
REMARK                         _______ _______ _______ _____ _____    ______ ____
ROOT
ATOM      1  C   UNL     1       9.884  -2.639  23.743  0.00  0.00    +0.399 C 
ENDROOT
BRANCH   1   2
ATOM      2  C   UNL     1       9.609  -1.176  23.678  0.00  0.00    +0.075 A 
ATOM      3  C   UNL     1       9.723  -0.408  22.535  0.00  0.00    +0.129 A 
ATOM      4  N   UNL     1       9.827  -0.992  21.270  0.00  0.00    -0.343 N 
ATOM      5  H   UNL     1       8.944  -1.425  21.013  0.00  0.00    +0.144 HD
ATOM      6  H   UNL     1       9.975  -0.202  20.631  0.00  0.00    +0.144 HD
ATOM      7  N   UNL     1       9.651   0.929  22.534  0.00  0.00    -0.209 NA
ATOM      8  C   UNL     1       9.398   1.544  23.719  0.00  0.00    +0.236 A 
ATOM      9  N   UNL     1       9.060   0.858  24.834  0.00  0.00    -0.232 NA
ATOM     10  C   UNL     1       9.207  -0.473  24.797  0.00  0.00    +0.126 A 
BRANCH   8  11
ATOM     11  C   UNL     1       9.538   3.069  23.809  0.00  0.00    +0.452 C 
ATOM     12  F   UNL     1       8.819   3.726  22.846  0.00  0.00    -0.163 F 
ATOM     13  F   UNL     1      10.826   3.499  23.654  0.00  0.00    -0.163 F 
ATOM     14  F   UNL     1       9.110   3.601  24.994  0.00  0.00    -0.163 F 
ENDBRANCH   8  11
ENDBRANCH   1   2
BRANCH   1  17
ATOM     15  C   UNL     1       9.424  -4.499  26.020  0.00  0.00    +0.122 C 
ATOM     16  C   UNL     1       8.393  -4.282  24.985  0.00  0.00    +0.191 A 
ATOM     17  N   UNL     1       8.666  -3.458  23.893  0.00  0.00    -0.190 N 
ATOM     18  C   UNL     1       7.671  -3.342  23.032  0.00  0.00    +0.357 A 
ATOM     19  S   UNL     1       6.279  -4.184  23.551  0.00  0.00    -0.027 S 
ATOM     20  C   UNL     1       7.076  -4.733  24.969  0.00  0.00    +0.064 A 
BRANCH  20  21
ATOM     21  C   UNL     1       6.324  -5.548  25.997  0.00  0.00    +0.077 C 
BRANCH  21  22
ATOM     22  C   UNL     1       6.019  -4.791  27.286  0.00  0.00    +0.169 C 
BRANCH  22  23
ATOM     23  O   UNL     1       6.630  -5.415  28.385  0.00  0.00    -0.367 OA
BRANCH  23  24
ATOM     24  P   UNL     1       5.589  -6.281  29.462  0.00  0.00    -0.015 P 
ATOM     25  O   UNL     1       4.656  -7.056  30.426  0.00  0.00    -0.638 OA
ATOM     26  O   UNL     1       6.044  -5.217  30.485  0.00  0.00    -0.577 OA
ATOM     27  O   UNL     1       6.420  -7.498  29.032  0.00  0.00    -0.577 OA
ENDBRANCH  23  24
ENDBRANCH  22  23
ENDBRANCH  21  22
ENDBRANCH  20  21
ENDBRANCH   1  17
TORSDOF 7
ENDMDL
MODEL 2
REMARK VINA RESULT:      -6.9      1.117      1.944
REMARK  Name = 
REMARK  8 active torsions:
REMARK  status: ('A' for Active; 'I' for Inactive)
REMARK    1  A    between atoms: C_1  and  C_2
REMARK    2  A    between atoms: C_3  and  C_4
REMARK    3  A    between atoms: C_4  and  C_5
REMARK    4  A    between atoms: C_5  and  O_6
REMARK    5  A    between atoms: O_6  and  P_7
REMARK    6  A    between atoms: N_13  and  C_14
REMARK    7  A    between atoms: C_14  and  C_15
REMARK    8  A    between atoms: C_18  and  C_22
REMARK                            x       y       z     vdW  Elec       q    Type
REMARK                         _______ _______ _______ _____ _____    ______ ____
ROOT
ATOM      1  C   UNL     1       9.865  -2.633  23.762  0.00  0.00    +0.399 C 
ENDROOT
BRANCH   1   2
ATOM      2  C   UNL     1       9.781  -1.175  24.053  0.00  0.00    +0.075 A 
ATOM      3  C   UNL     1       9.159  -0.631  25.161  0.00  0.00    +0.129 A 
ATOM      4  N   UNL     1       8.803  -1.420  26.258  0.00  0.00    -0.343 N 
ATOM      5  H   UNL     1       9.637  -1.726  26.751  0.00  0.00    +0.144 HD
ATOM      6  H   UNL     1       8.299  -0.781  26.884  0.00  0.00    +0.144 HD
ATOM      7  N   UNL     1       8.934   0.679  25.312  0.00  0.00    -0.209 NA
ATOM      8  C   UNL     1       9.396   1.511  24.342  0.00  0.00    +0.236 A 
ATOM      9  N   UNL     1      10.199   1.084  23.344  0.00  0.00    -0.232 NA
ATOM     10  C   UNL     1      10.342  -0.242  23.203  0.00  0.00    +0.126 A 
BRANCH   8  11
ATOM     11  C   UNL     1       8.961   2.983  24.356  0.00  0.00    +0.452 C 
ATOM     12  F   UNL     1       9.980   3.841  24.038  0.00  0.00    -0.163 F 
ATOM     13  F   UNL     1       8.509   3.396  25.578  0.00  0.00    -0.163 F 
ATOM     14  F   UNL     1       7.961   3.278  23.471  0.00  0.00    -0.163 F 
ENDBRANCH   8  11
ENDBRANCH   1   2
BRANCH   1  17
ATOM     15  C   UNL     1       8.955  -5.143  25.078  0.00  0.00    +0.122 C 
ATOM     16  C   UNL     1       8.071  -4.391  24.164  0.00  0.00    +0.191 A 
ATOM     17  N   UNL     1       8.552  -3.257  23.508  0.00  0.00    -0.190 N 
ATOM     18  C   UNL     1       7.673  -2.669  22.715  0.00  0.00    +0.357 A 
ATOM     19  S   UNL     1       6.147  -3.431  22.781  0.00  0.00    -0.027 S 
ATOM     20  C   UNL     1       6.720  -4.600  23.901  0.00  0.00    +0.064 A 
BRANCH  20  21
ATOM     21  C   UNL     1       5.775  -5.630  24.476  0.00  0.00    +0.077 C 
BRANCH  21  22
ATOM     22  C   UNL     1       5.356  -5.351  25.916  0.00  0.00    +0.169 C 
BRANCH  22  23
ATOM     23  O   UNL     1       5.737  -6.407  26.758  0.00  0.00    -0.367 OA
BRANCH  23  24
ATOM     24  P   UNL     1       5.916  -6.034  28.438  0.00  0.00    -0.015 P 
ATOM     25  O   UNL     1       6.076  -5.698  29.942  0.00  0.00    -0.638 OA
ATOM     26  O   UNL     1       7.127  -5.209  27.951  0.00  0.00    -0.577 OA
ATOM     27  O   UNL     1       5.906  -7.559  28.616  0.00  0.00    -0.577 OA
ENDBRANCH  23  24
ENDBRANCH  22  23
ENDBRANCH  21  22
ENDBRANCH  20  21
ENDBRANCH   1  17
TORSDOF 7
ENDMDL
MODEL 3
REMARK VINA RESULT:      -6.8      3.558      4.413
REMARK  Name = 
REMARK  8 active torsions:
REMARK  status: ('A' for Active; 'I' for Inactive)
REMARK    1  A    between atoms: C_1  and  C_2
REMARK    2  A    between atoms: C_3  and  C_4
REMARK    3  A    between atoms: C_4  and  C_5
REMARK    4  A    between atoms: C_5  and  O_6
REMARK    5  A    between atoms: O_6  and  P_7
REMARK    6  A    between atoms: N_13  and  C_14
REMARK    7  A    between atoms: C_14  and  C_15
REMARK    8  A    between atoms: C_18  and  C_22
REMARK                            x       y       z     vdW  Elec       q    Type
REMARK                         _______ _______ _______ _____ _____    ______ ____
ROOT
ATOM      1  C   UNL     1       8.491  -2.108  26.477  0.00  0.00    +0.399 C 
ENDROOT
BRANCH   1   2
ATOM      2  C   UNL     1       8.863  -1.177  25.374  0.00  0.00    +0.075 A 
ATOM      3  C   UNL     1       8.540   0.166  25.341  0.00  0.00    +0.129 A 
ATOM      4  N   UNL     1       8.083   0.835  26.480  0.00  0.00    -0.343 N 
ATOM      5  H   UNL     1       8.839   0.930  27.153  0.00  0.00    +0.144 HD
ATOM      6  H   UNL     1       7.852   1.780  26.150  0.00  0.00    +0.144 HD
ATOM      7  N   UNL     1       8.720   0.942  24.266  0.00  0.00    -0.209 NA
ATOM      8  C   UNL     1       9.303   0.377  23.176  0.00  0.00    +0.236 A 
ATOM      9  N   UNL     1       9.843  -0.861  23.202  0.00  0.00    -0.232 NA
ATOM     10  C   UNL     1       9.581  -1.616  24.279  0.00  0.00    +0.126 A 
BRANCH   8  11
ATOM     11  C   UNL     1       9.316   1.156  21.853  0.00  0.00    +0.452 C 
ATOM     12  F   UNL     1       8.249   2.006  21.728  0.00  0.00    -0.163 F 
ATOM     13  F   UNL     1       9.264   0.347  20.754  0.00  0.00    -0.163 F 
ATOM     14  F   UNL     1      10.419   1.946  21.681  0.00  0.00    -0.163 F 
ENDBRANCH   8  11
ENDBRANCH   1   2
BRANCH   1  17
ATOM     15  C   UNL     1       8.399  -4.871  25.375  0.00  0.00    +0.122 C 
ATOM     16  C   UNL     1       7.166  -4.164  25.778  0.00  0.00    +0.191 A 
ATOM     17  N   UNL     1       7.237  -2.843  26.225  0.00  0.00    -0.190 N 
ATOM     18  C   UNL     1       6.072  -2.314  26.554  0.00  0.00    +0.357 A 
ATOM     19  S   UNL     1       4.798  -3.442  26.413  0.00  0.00    -0.027 S 
ATOM     20  C   UNL     1       5.871  -4.666  25.867  0.00  0.00    +0.064 A 
BRANCH  20  21
ATOM     21  C   UNL     1       5.359  -6.063  25.599  0.00  0.00    +0.077 C 
BRANCH  21  22
ATOM     22  C   UNL     1       4.762  -6.248  24.209  0.00  0.00    +0.169 C 
BRANCH  22  23
ATOM     23  O   UNL     1       5.767  -6.226  23.228  0.00  0.00    -0.367 OA
BRANCH  23  24
ATOM     24  P   UNL     1       5.739  -4.899  22.119  0.00  0.00    -0.015 P 
ATOM     25  O   UNL     1       5.714  -3.711  21.126  0.00  0.00    -0.638 OA
ATOM     26  O   UNL     1       4.277  -4.753  22.595  0.00  0.00    -0.577 OA
ATOM     27  O   UNL     1       6.232  -5.942  21.106  0.00  0.00    -0.577 OA
ENDBRANCH  23  24
ENDBRANCH  22  23
ENDBRANCH  21  22
ENDBRANCH  20  21
ENDBRANCH   1  17
TORSDOF 7
ENDMDL
MODEL 4
REMARK VINA RESULT:      -6.7      1.743      2.531
REMARK  Name = 
REMARK  8 active torsions:
REMARK  status: ('A' for Active; 'I' for Inactive)
REMARK    1  A    between atoms: C_1  and  C_2
REMARK    2  A    between atoms: C_3  and  C_4
REMARK    3  A    between atoms: C_4  and  C_5
REMARK    4  A    between atoms: C_5  and  O_6
REMARK    5  A    between atoms: O_6  and  P_7
REMARK    6  A    between atoms: N_13  and  C_14
REMARK    7  A    between atoms: C_14  and  C_15
REMARK    8  A    between atoms: C_18  and  C_22
REMARK                            x       y       z     vdW  Elec       q    Type
REMARK                         _______ _______ _______ _____ _____    ______ ____
ROOT
ATOM      1  C   UNL     1       8.362  -2.284  26.170  0.00  0.00    +0.399 C 
ENDROOT
BRANCH   1   2
ATOM      2  C   UNL     1       8.779  -1.261  25.171  0.00  0.00    +0.075 A 
ATOM      3  C   UNL     1       8.539   0.095  25.291  0.00  0.00    +0.129 A 
ATOM      4  N   UNL     1       8.136   0.660  26.504  0.00  0.00    -0.343 N 
ATOM      5  H   UNL     1       8.903   0.634  27.170  0.00  0.00    +0.144 HD
ATOM      6  H   UNL     1       7.960   1.647  26.284  0.00  0.00    +0.144 HD
ATOM      7  N   UNL     1       8.756   0.972  24.304  0.00  0.00    -0.209 NA
ATOM      8  C   UNL     1       9.291   0.498  23.149  0.00  0.00    +0.236 A 
ATOM      9  N   UNL     1       9.754  -0.766  23.030  0.00  0.00    -0.232 NA
ATOM     10  C   UNL     1       9.458  -1.618  24.022  0.00  0.00    +0.126 A 
BRANCH   8  11
ATOM     11  C   UNL     1       9.338   1.416  21.920  0.00  0.00    +0.452 C 
ATOM     12  F   UNL     1       9.018   0.765  20.759  0.00  0.00    -0.163 F 
ATOM     13  F   UNL     1      10.574   1.957  21.702  0.00  0.00    -0.163 F 
ATOM     14  F   UNL     1       8.475   2.475  21.981  0.00  0.00    -0.163 F 
ENDBRANCH   8  11
ENDBRANCH   1   2
BRANCH   1  17
ATOM     15  C   UNL     1       8.303  -5.243  25.858  0.00  0.00    +0.122 C 
ATOM     16  C   UNL     1       7.082  -4.428  25.687  0.00  0.00    +0.191 A 
ATOM     17  N   UNL     1       7.158  -3.037  25.771  0.00  0.00    -0.190 N 
ATOM     18  C   UNL     1       6.005  -2.415  25.598  0.00  0.00    +0.357 A 
ATOM     19  S   UNL     1       4.713  -3.513  25.399  0.00  0.00    -0.027 S 
ATOM     20  C   UNL     1       5.769  -4.861  25.529  0.00  0.00    +0.064 A 
BRANCH  20  21
ATOM     21  C   UNL     1       5.215  -6.267  25.502  0.00  0.00    +0.077 C 
BRANCH  21  22
ATOM     22  C   UNL     1       4.477  -6.666  26.776  0.00  0.00    +0.169 C 
BRANCH  22  23
ATOM     23  O   UNL     1       5.369  -7.188  27.725  0.00  0.00    -0.367 OA
BRANCH  23  24
ATOM     24  P   UNL     1       5.674  -6.213  29.121  0.00  0.00    -0.015 P 
ATOM     25  O   UNL     1       5.948  -5.339  30.370  0.00  0.00    -0.638 OA
ATOM     26  O   UNL     1       7.144  -6.619  28.872  0.00  0.00    -0.577 OA
ATOM     27  O   UNL     1       4.616  -7.108  29.782  0.00  0.00    -0.577 OA
ENDBRANCH  23  24
ENDBRANCH  22  23
ENDBRANCH  21  22
ENDBRANCH  20  21
ENDBRANCH   1  17
TORSDOF 7
ENDMDL
MODEL 5
REMARK VINA RESULT:      -6.6      2.547      3.316
REMARK  Name = 
REMARK  8 active torsions:
REMARK  status: ('A' for Active; 'I' for Inactive)
REMARK    1  A    between atoms: C_1  and  C_2
REMARK    2  A    between atoms: C_3  and  C_4
REMARK    3  A    between atoms: C_4  and  C_5
REMARK    4  A    between atoms: C_5  and  O_6
REMARK    5  A    between atoms: O_6  and  P_7
REMARK    6  A    between atoms: N_13  and  C_14
REMARK    7  A    between atoms: C_14  and  C_15
REMARK    8  A    between atoms: C_18  and  C_22
REMARK                            x       y       z     vdW  Elec       q    Type
REMARK                         _______ _______ _______ _____ _____    ______ ____
ROOT
ATOM      1  C   UNL     1       9.544  -3.688  24.599  0.00  0.00    +0.399 C 
ENDROOT
BRANCH   1   2
ATOM      2  C   UNL     1       9.628  -2.292  24.084  0.00  0.00    +0.075 A 
ATOM      3  C   UNL     1       9.095  -1.188  24.722  0.00  0.00    +0.129 A 
ATOM      4  N   UNL     1       8.680  -1.246  26.055  0.00  0.00    -0.343 N 
ATOM      5  H   UNL     1       9.487  -1.336  26.666  0.00  0.00    +0.144 HD
ATOM      6  H   UNL     1       8.264  -0.325  26.237  0.00  0.00    +0.144 HD
ATOM      7  N   UNL     1       9.019   0.024  24.160  0.00  0.00    -0.209 NA
ATOM      8  C   UNL     1       9.548   0.173  22.917  0.00  0.00    +0.236 A 
ATOM      9  N   UNL     1      10.276  -0.795  22.318  0.00  0.00    -0.232 NA
ATOM     10  C   UNL     1      10.268  -2.006  22.894  0.00  0.00    +0.126 A 
BRANCH   8  11
ATOM     11  C   UNL     1       9.277   1.472  22.146  0.00  0.00    +0.452 C 
ATOM     12  F   UNL     1       8.496   1.278  21.037  0.00  0.00    -0.163 F 
ATOM     13  F   UNL     1      10.417   2.069  21.685  0.00  0.00    -0.163 F 
ATOM     14  F   UNL     1       8.626   2.428  22.874  0.00  0.00    -0.163 F 
ENDBRANCH   8  11
ENDBRANCH   1   2
BRANCH   1  17
ATOM     15  C   UNL     1       8.019  -5.076  26.744  0.00  0.00    +0.122 C 
ATOM     16  C   UNL     1       7.456  -4.905  25.389  0.00  0.00    +0.191 A 
ATOM     17  N   UNL     1       8.224  -4.312  24.387  0.00  0.00    -0.190 N 
ATOM     18  C   UNL     1       7.617  -4.215  23.217  0.00  0.00    +0.357 A 
ATOM     19  S   UNL     1       6.007  -4.780  23.287  0.00  0.00    -0.027 S 
ATOM     20  C   UNL     1       6.165  -5.184  24.948  0.00  0.00    +0.064 A 
BRANCH  20  21
ATOM     21  C   UNL     1       4.979  -5.719  25.717  0.00  0.00    +0.077 C 
BRANCH  21  22
ATOM     22  C   UNL     1       3.963  -4.652  26.110  0.00  0.00    +0.169 C 
BRANCH  22  23
ATOM     23  O   UNL     1       4.548  -3.694  26.953  0.00  0.00    -0.367 OA
BRANCH  23  24
ATOM     24  P   UNL     1       4.331  -2.035  26.511  0.00  0.00    -0.015 P 
ATOM     25  O   UNL     1       4.137  -0.551  26.115  0.00  0.00    -0.638 OA
ATOM     26  O   UNL     1       3.460  -2.628  25.381  0.00  0.00    -0.577 OA
ATOM     27  O   UNL     1       5.867  -2.001  26.510  0.00  0.00    -0.577 OA
ENDBRANCH  23  24
ENDBRANCH  22  23
ENDBRANCH  21  22
ENDBRANCH  20  21
ENDBRANCH   1  17
TORSDOF 7
ENDMDL
MODEL 6
REMARK VINA RESULT:      -6.3      3.548      4.117
REMARK  Name = 
REMARK  8 active torsions:
REMARK  status: ('A' for Active; 'I' for Inactive)
REMARK    1  A    between atoms: C_1  and  C_2
REMARK    2  A    between atoms: C_3  and  C_4
REMARK    3  A    between atoms: C_4  and  C_5
REMARK    4  A    between atoms: C_5  and  O_6
REMARK    5  A    between atoms: O_6  and  P_7
REMARK    6  A    between atoms: N_13  and  C_14
REMARK    7  A    between atoms: C_14  and  C_15
REMARK    8  A    between atoms: C_18  and  C_22
REMARK                            x       y       z     vdW  Elec       q    Type
REMARK                         _______ _______ _______ _____ _____    ______ ____
ROOT
ATOM      1  C   UNL     1       9.465  -3.718  24.635  0.00  0.00    +0.399 C 
ENDROOT
BRANCH   1   2
ATOM      2  C   UNL     1       9.541  -2.325  24.111  0.00  0.00    +0.075 A 
ATOM      3  C   UNL     1       8.894  -1.240  24.672  0.00  0.00    +0.129 A 
ATOM      4  N   UNL     1       8.341  -1.304  25.954  0.00  0.00    -0.343 N 
ATOM      5  H   UNL     1       9.081  -1.351  26.650  0.00  0.00    +0.144 HD
ATOM      6  H   UNL     1       7.867  -0.401  26.077  0.00  0.00    +0.144 HD
ATOM      7  N   UNL     1       8.825  -0.039  24.088  0.00  0.00    -0.209 NA
ATOM      8  C   UNL     1       9.477   0.122  22.906  0.00  0.00    +0.236 A 
ATOM      9  N   UNL     1      10.307  -0.817  22.403  0.00  0.00    -0.232 NA
ATOM     10  C   UNL     1      10.292  -2.021  22.992  0.00  0.00    +0.126 A 
BRANCH   8  11
ATOM     11  C   UNL     1       9.233   1.400  22.091  0.00  0.00    +0.452 C 
ATOM     12  F   UNL     1      10.395   1.989  21.669  0.00  0.00    -0.163 F 
ATOM     13  F   UNL     1       8.572   2.366  22.795  0.00  0.00    -0.163 F 
ATOM     14  F   UNL     1       8.501   1.205  20.953  0.00  0.00    -0.163 F 
ENDBRANCH   8  11
ENDBRANCH   1   2
BRANCH   1  17
ATOM     15  C   UNL     1       7.885  -5.221  26.660  0.00  0.00    +0.122 C 
ATOM     16  C   UNL     1       7.388  -5.035  25.282  0.00  0.00    +0.191 A 
ATOM     17  N   UNL     1       8.184  -4.386  24.337  0.00  0.00    -0.190 N 
ATOM     18  C   UNL     1       7.636  -4.282  23.139  0.00  0.00    +0.357 A 
ATOM     19  S   UNL     1       6.049  -4.909  23.108  0.00  0.00    -0.027 S 
ATOM     20  C   UNL     1       6.135  -5.352  24.765  0.00  0.00    +0.064 A 
BRANCH  20  21
ATOM     21  C   UNL     1       4.932  -5.952  25.455  0.00  0.00    +0.077 C 
BRANCH  21  22
ATOM     22  C   UNL     1       4.104  -6.875  24.568  0.00  0.00    +0.169 C 
BRANCH  22  23
ATOM     23  O   UNL     1       2.735  -6.593  24.695  0.00  0.00    -0.367 OA
BRANCH  23  24
ATOM     24  P   UNL     1       1.780  -6.716  23.258  0.00  0.00    -0.015 P 
ATOM     25  O   UNL     1       0.927  -6.826  21.970  0.00  0.00    -0.638 OA
ATOM     26  O   UNL     1       2.517  -5.418  22.862  0.00  0.00    -0.577 OA
ATOM     27  O   UNL     1       0.601  -6.792  24.238  0.00  0.00    -0.577 OA
ENDBRANCH  23  24
ENDBRANCH  22  23
ENDBRANCH  21  22
ENDBRANCH  20  21
ENDBRANCH   1  17
TORSDOF 7
ENDMDL
MODEL 7
REMARK VINA RESULT:      -6.3      2.639      3.761
REMARK  Name = 
REMARK  8 active torsions:
REMARK  status: ('A' for Active; 'I' for Inactive)
REMARK    1  A    between atoms: C_1  and  C_2
REMARK    2  A    between atoms: C_3  and  C_4
REMARK    3  A    between atoms: C_4  and  C_5
REMARK    4  A    between atoms: C_5  and  O_6
REMARK    5  A    between atoms: O_6  and  P_7
REMARK    6  A    between atoms: N_13  and  C_14
REMARK    7  A    between atoms: C_14  and  C_15
REMARK    8  A    between atoms: C_18  and  C_22
REMARK                            x       y       z     vdW  Elec       q    Type
REMARK                         _______ _______ _______ _____ _____    ______ ____
ROOT
ATOM      1  C   UNL     1       9.538   0.595  24.515  0.00  0.00    +0.399 C 
ENDROOT
BRANCH   1   2
ATOM      2  C   UNL     1       9.211   2.012  24.190  0.00  0.00    +0.075 A 
ATOM      3  C   UNL     1       9.548   2.643  23.008  0.00  0.00    +0.129 A 
ATOM      4  N   UNL     1       9.974   1.920  21.891  0.00  0.00    -0.343 N 
ATOM      5  H   UNL     1       9.199   1.389  21.504  0.00  0.00    +0.144 HD
ATOM      6  H   UNL     1      10.226   2.636  21.199  0.00  0.00    +0.144 HD
ATOM      7  N   UNL     1       9.410   3.959  22.808  0.00  0.00    -0.209 NA
ATOM      8  C   UNL     1       8.856   4.691  23.811  0.00  0.00    +0.236 A 
ATOM      9  N   UNL     1       8.303   4.121  24.904  0.00  0.00    -0.232 NA
ATOM     10  C   UNL     1       8.523   2.811  25.084  0.00  0.00    +0.126 A 
BRANCH   8  11
ATOM     11  C   UNL     1       8.893   6.222  23.720  0.00  0.00    +0.452 C 
ATOM     12  F   UNL     1       8.114   6.829  24.669  0.00  0.00    -0.163 F 
ATOM     13  F   UNL     1       8.440   6.699  22.522  0.00  0.00    -0.163 F 
ATOM     14  F   UNL     1      10.138   6.762  23.887  0.00  0.00    -0.163 F 
ENDBRANCH   8  11
ENDBRANCH   1   2
BRANCH   1  17
ATOM     15  C   UNL     1      10.142  -1.640  22.646  0.00  0.00    +0.122 C 
ATOM     16  C   UNL     1       8.792  -1.463  23.220  0.00  0.00    +0.191 A 
ATOM     17  N   UNL     1       8.524  -0.364  24.037  0.00  0.00    -0.190 N 
ATOM     18  C   UNL     1       7.284  -0.309  24.490  0.00  0.00    +0.357 A 
ATOM     19  S   UNL     1       6.367  -1.664  24.003  0.00  0.00    -0.027 S 
ATOM     20  C   UNL     1       7.698  -2.319  23.137  0.00  0.00    +0.064 A 
BRANCH  20  21
ATOM     21  C   UNL     1       7.578  -3.665  22.461  0.00  0.00    +0.077 C 
BRANCH  21  22
ATOM     22  C   UNL     1       7.568  -4.845  23.427  0.00  0.00    +0.169 C 
BRANCH  22  23
ATOM     23  O   UNL     1       8.571  -4.703  24.398  0.00  0.00    -0.367 OA
BRANCH  23  24
ATOM     24  P   UNL     1       8.119  -5.033  26.035  0.00  0.00    -0.015 P 
ATOM     25  O   UNL     1       7.714  -5.329  27.500  0.00  0.00    -0.638 OA
ATOM     26  O   UNL     1       6.756  -5.397  25.405  0.00  0.00    -0.577 OA
ATOM     27  O   UNL     1       8.612  -3.602  26.293  0.00  0.00    -0.577 OA
ENDBRANCH  23  24
ENDBRANCH  22  23
ENDBRANCH  21  22
ENDBRANCH  20  21
ENDBRANCH   1  17
TORSDOF 7
ENDMDL
MODEL 8
REMARK VINA RESULT:      -6.3      3.763      5.192
REMARK  Name = 
REMARK  8 active torsions:
REMARK  status: ('A' for Active; 'I' for Inactive)
REMARK    1  A    between atoms: C_1  and  C_2
REMARK    2  A    between atoms: C_3  and  C_4
REMARK    3  A    between atoms: C_4  and  C_5
REMARK    4  A    between atoms: C_5  and  O_6
REMARK    5  A    between atoms: O_6  and  P_7
REMARK    6  A    between atoms: N_13  and  C_14
REMARK    7  A    between atoms: C_14  and  C_15
REMARK    8  A    between atoms: C_18  and  C_22
REMARK                            x       y       z     vdW  Elec       q    Type
REMARK                         _______ _______ _______ _____ _____    ______ ____
ROOT
ATOM      1  C   UNL     1       8.116   1.862  23.256  0.00  0.00    +0.399 C 
ENDROOT
BRANCH   1   2
ATOM      2  C   UNL     1       9.255   2.802  23.454  0.00  0.00    +0.075 A 
ATOM      3  C   UNL     1       9.119   4.143  23.761  0.00  0.00    +0.129 A 
ATOM      4  N   UNL     1       7.902   4.671  24.199  0.00  0.00    -0.343 N 
ATOM      5  H   UNL     1       7.692   4.332  25.134  0.00  0.00    +0.144 HD
ATOM      6  H   UNL     1       8.070   5.681  24.274  0.00  0.00    +0.144 HD
ATOM      7  N   UNL     1      10.140   5.008  23.754  0.00  0.00    -0.209 NA
ATOM      8  C   UNL     1      11.377   4.516  23.482  0.00  0.00    +0.236 A 
ATOM      9  N   UNL     1      11.626   3.192  23.387  0.00  0.00    -0.232 NA
ATOM     10  C   UNL     1      10.564   2.375  23.340  0.00  0.00    +0.126 A 
BRANCH   8  11
ATOM     11  C   UNL     1      12.529   5.500  23.235  0.00  0.00    +0.452 C 
ATOM     12  F   UNL     1      13.761   4.934  23.430  0.00  0.00    -0.163 F 
ATOM     13  F   UNL     1      12.495   6.585  24.064  0.00  0.00    -0.163 F 
ATOM     14  F   UNL     1      12.569   6.004  21.964  0.00  0.00    -0.163 F 
ENDBRANCH   8  11
ENDBRANCH   1   2
BRANCH   1  17
ATOM     15  C   UNL     1       9.013  -0.649  21.934  0.00  0.00    +0.122 C 
ATOM     16  C   UNL     1       8.771  -0.592  23.391  0.00  0.00    +0.191 A 
ATOM     17  N   UNL     1       8.284   0.581  23.969  0.00  0.00    -0.190 N 
ATOM     18  C   UNL     1       8.104   0.513  25.276  0.00  0.00    +0.357 A 
ATOM     19  S   UNL     1       8.605  -0.991  25.910  0.00  0.00    -0.027 S 
ATOM     20  C   UNL     1       9.050  -1.559  24.352  0.00  0.00    +0.064 A 
BRANCH  20  21
ATOM     21  C   UNL     1       9.687  -2.921  24.192  0.00  0.00    +0.077 C 
BRANCH  21  22
ATOM     22  C   UNL     1       8.827  -4.071  24.702  0.00  0.00    +0.169 C 
BRANCH  22  23
ATOM     23  O   UNL     1       7.523  -3.984  24.189  0.00  0.00    -0.367 OA
BRANCH  23  24
ATOM     24  P   UNL     1       7.150  -5.002  22.841  0.00  0.00    -0.015 P 
ATOM     25  O   UNL     1       6.815  -5.914  21.635  0.00  0.00    -0.638 OA
ATOM     26  O   UNL     1       8.371  -5.810  23.331  0.00  0.00    -0.577 OA
ATOM     27  O   UNL     1       7.225  -3.696  22.037  0.00  0.00    -0.577 OA
ENDBRANCH  23  24
ENDBRANCH  22  23
ENDBRANCH  21  22
ENDBRANCH  20  21
ENDBRANCH   1  17
TORSDOF 7
ENDMDL
MODEL 9
REMARK VINA RESULT:      -6.3      7.248      8.973
REMARK  Name = 
REMARK  8 active torsions:
REMARK  status: ('A' for Active; 'I' for Inactive)
REMARK    1  A    between atoms: C_1  and  C_2
REMARK    2  A    between atoms: C_3  and  C_4
REMARK    3  A    between atoms: C_4  and  C_5
REMARK    4  A    between atoms: C_5  and  O_6
REMARK    5  A    between atoms: O_6  and  P_7
REMARK    6  A    between atoms: N_13  and  C_14
REMARK    7  A    between atoms: C_14  and  C_15
REMARK    8  A    between atoms: C_18  and  C_22
REMARK                            x       y       z     vdW  Elec       q    Type
REMARK                         _______ _______ _______ _____ _____    ______ ____
ROOT
ATOM      1  C   UNL     1       8.720  -2.343  25.807  0.00  0.00    +0.399 C 
ENDROOT
BRANCH   1   2
ATOM      2  C   UNL     1       8.123  -3.433  24.985  0.00  0.00    +0.075 A 
ATOM      3  C   UNL     1       8.779  -4.597  24.632  0.00  0.00    +0.129 A 
ATOM      4  N   UNL     1       9.966  -4.985  25.260  0.00  0.00    -0.343 N 
ATOM      5  H   UNL     1       9.777  -5.262  26.219  0.00  0.00    +0.144 HD
ATOM      6  H   UNL     1      10.263  -5.827  24.754  0.00  0.00    +0.144 HD
ATOM      7  N   UNL     1       8.296  -5.477  23.746  0.00  0.00    -0.209 NA
ATOM      8  C   UNL     1       7.071  -5.224  23.216  0.00  0.00    +0.236 A 
ATOM      9  N   UNL     1       6.276  -4.230  23.669  0.00  0.00    -0.232 NA
ATOM     10  C   UNL     1       6.829  -3.344  24.509  0.00  0.00    +0.126 A 
BRANCH   8  11
ATOM     11  C   UNL     1       6.584  -6.073  22.033  0.00  0.00    +0.452 C 
ATOM     12  F   UNL     1       6.779  -7.415  22.228  0.00  0.00    -0.163 F 
ATOM     13  F   UNL     1       7.227  -5.780  20.864  0.00  0.00    -0.163 F 
ATOM     14  F   UNL     1       5.250  -5.945  21.766  0.00  0.00    -0.163 F 
ENDBRANCH   8  11
ENDBRANCH   1   2
BRANCH   1  17
ATOM     15  C   UNL     1       7.538   0.315  26.434  0.00  0.00    +0.122 C 
ATOM     16  C   UNL     1       8.529   0.151  25.350  0.00  0.00    +0.191 A 
ATOM     17  N   UNL     1       9.011  -1.120  25.036  0.00  0.00    -0.190 N 
ATOM     18  C   UNL     1       9.889  -1.143  24.048  0.00  0.00    +0.357 A 
ATOM     19  S   UNL     1      10.252   0.426  23.482  0.00  0.00    -0.027 S 
ATOM     20  C   UNL     1       9.161   1.139  24.601  0.00  0.00    +0.064 A 
BRANCH  20  21
ATOM     21  C   UNL     1       9.034   2.643  24.687  0.00  0.00    +0.077 C 
BRANCH  21  22
ATOM     22  C   UNL     1       9.838   3.394  23.631  0.00  0.00    +0.169 C 
BRANCH  22  23
ATOM     23  O   UNL     1       9.983   4.745  23.984  0.00  0.00    -0.367 OA
BRANCH  23  24
ATOM     24  P   UNL     1      11.467   5.510  23.532  0.00  0.00    -0.015 P 
ATOM     25  O   UNL     1      12.796   6.194  23.126  0.00  0.00    -0.638 OA
ATOM     26  O   UNL     1      11.984   4.058  23.423  0.00  0.00    -0.577 OA
ATOM     27  O   UNL     1      11.286   6.282  24.847  0.00  0.00    -0.577 OA
ENDBRANCH  23  24
ENDBRANCH  22  23
ENDBRANCH  21  22
ENDBRANCH  20  21
ENDBRANCH   1  17
TORSDOF 7
ENDMDL
