MODEL 1
REMARK VINA RESULT:      -6.4      0.000      0.000
REMARK  Name = 
REMARK  5 active torsions:
REMARK  status: ('A' for Active; 'I' for Inactive)
REMARK    1  A    between atoms: C_2  and  C_3
REMARK    2  A    between atoms: C_5  and  N_7
REMARK    3  A    between atoms: C_12  and  N_13
REMARK    4  A    between atoms: C_18  and  O_20
REMARK    5  A    between atoms: C_21  and  O_23
REMARK                            x       y       z     vdW  Elec       q    Type
REMARK                         _______ _______ _______ _____ _____    ______ ____
ROOT
ATOM      1  N   UNL     1       8.149  -1.910  23.935  0.00  0.00    -0.302 N 
ATOM      2  C   UNL     1       8.554  -3.126  24.443  0.00  0.00    +0.149 A 
ATOM      3  C   UNL     1       7.430  -3.801  24.921  0.00  0.00    +0.071 A 
ATOM      4  C   UNL     1       7.652  -5.065  25.492  0.00  0.00    +0.130 A 
ATOM      5  N   UNL     1       8.902  -5.563  25.502  0.00  0.00    -0.220 NA
ATOM      6  C   UNL     1       9.897  -4.811  25.003  0.00  0.00    +0.225 A 
ATOM      7  C   UNL     1       6.328  -2.942  24.686  0.00  0.00    +0.044 A 
ATOM      8  I   UNL     1       4.376  -3.251  25.151  0.00  0.00    -0.041 I 
ATOM      9  N   UNL     1       9.824  -3.573  24.477  0.00  0.00    -0.218 NA
ATOM     10  C   UNL     1       6.780  -1.796  24.084  0.00  0.00    +0.105 A 
ENDROOT
BRANCH   1  15
ATOM     11  C   UNL     1       9.514   1.385  23.777  0.00  0.00    +0.149 C 
ATOM     12  C   UNL     1       9.102   2.650  24.509  0.00  0.00    +0.041 C 
ATOM     13  C   UNL     1       8.977   1.311  22.352  0.00  0.00    +0.176 C 
ATOM     14  C   UNL     1       8.674  -0.174  22.134  0.00  0.00    +0.195 C 
ATOM     15  C   UNL     1       9.016  -0.828  23.483  0.00  0.00    +0.252 C 
ATOM     16  O   UNL     1       8.987   0.237  24.453  0.00  0.00    -0.348 OA
BRANCH  13  17
ATOM     17  O   UNL     1       9.929   1.821  21.421  0.00  0.00    -0.387 OA
ATOM     18  H   UNL     1       9.405   2.135  20.655  0.00  0.00    +0.210 HD
ENDBRANCH  13  17
BRANCH  14  19
ATOM     19  O   UNL     1       9.472  -0.691  21.059  0.00  0.00    -0.385 OA
ATOM     20  H   UNL     1       9.929  -1.476  21.430  0.00  0.00    +0.210 HD
ENDBRANCH  14  19
ENDBRANCH   1  15
BRANCH   4  21
ATOM     21  N   UNL     1       6.661  -5.851  26.057  0.00  0.00    -0.343 N 
ATOM     22  H   UNL     1       7.040  -6.633  26.573  0.00  0.00    +0.144 HD
ATOM     23  H   UNL     1       5.847  -6.021  25.483  0.00  0.00    +0.144 HD
ENDBRANCH   4  21
TORSDOF 4
ENDMDL
MODEL 2
REMARK VINA RESULT:      -6.1      3.841      5.922
REMARK  Name = 
REMARK  5 active torsions:
REMARK  status: ('A' for Active; 'I' for Inactive)
REMARK    1  A    between atoms: C_2  and  C_3
REMARK    2  A    between atoms: C_5  and  N_7
REMARK    3  A    between atoms: C_12  and  N_13
REMARK    4  A    between atoms: C_18  and  O_20
REMARK    5  A    between atoms: C_21  and  O_23
REMARK                            x       y       z     vdW  Elec       q    Type
REMARK                         _______ _______ _______ _____ _____    ______ ____
ROOT
ATOM      1  N   UNL     1       7.837  -2.958  23.489  0.00  0.00    -0.302 N 
ATOM      2  C   UNL     1       8.182  -2.323  24.663  0.00  0.00    +0.149 A 
ATOM      3  C   UNL     1       8.729  -1.078  24.346  0.00  0.00    +0.071 A 
ATOM      4  C   UNL     1       9.154  -0.286  25.425  0.00  0.00    +0.130 A 
ATOM      5  N   UNL     1       8.970  -0.742  26.678  0.00  0.00    -0.220 NA
ATOM      6  C   UNL     1       8.426  -1.959  26.845  0.00  0.00    +0.225 A 
ATOM      7  C   UNL     1       8.705  -0.988  22.932  0.00  0.00    +0.044 A 
ATOM      8  I   UNL     1       9.370   0.531  21.762  0.00  0.00    -0.041 I 
ATOM      9  N   UNL     1       8.024  -2.830  25.900  0.00  0.00    -0.218 NA
ATOM     10  C   UNL     1       8.157  -2.138  22.424  0.00  0.00    +0.105 A 
ENDROOT
BRANCH   1  15
ATOM     11  C   UNL     1       6.563  -5.873  21.869  0.00  0.00    +0.149 C 
ATOM     12  C   UNL     1       6.089  -6.069  20.439  0.00  0.00    +0.041 C 
ATOM     13  C   UNL     1       5.422  -5.668  22.859  0.00  0.00    +0.176 C 
ATOM     14  C   UNL     1       5.976  -4.667  23.877  0.00  0.00    +0.195 C 
ATOM     15  C   UNL     1       7.383  -4.337  23.352  0.00  0.00    +0.252 C 
ATOM     16  O   UNL     1       7.373  -4.695  21.956  0.00  0.00    -0.348 OA
BRANCH  13  17
ATOM     17  O   UNL     1       5.036  -6.903  23.456  0.00  0.00    -0.387 OA
ATOM     18  H   UNL     1       5.318  -6.842  24.393  0.00  0.00    +0.210 HD
ENDBRANCH  13  17
BRANCH  14  19
ATOM     19  O   UNL     1       6.005  -5.254  25.186  0.00  0.00    -0.385 OA
ATOM     20  H   UNL     1       5.066  -5.426  25.413  0.00  0.00    +0.210 HD
ENDBRANCH  14  19
ENDBRANCH   1  15
BRANCH   4  21
ATOM     21  N   UNL     1       9.761   0.952  25.293  0.00  0.00    -0.343 N 
ATOM     22  H   UNL     1      10.499   1.091  25.970  0.00  0.00    +0.144 HD
ATOM     23  H   UNL     1       9.145   1.732  25.106  0.00  0.00    +0.144 HD
ENDBRANCH   4  21
TORSDOF 4
ENDMDL
MODEL 3
REMARK VINA RESULT:      -6.1      3.293      5.841
REMARK  Name = 
REMARK  5 active torsions:
REMARK  status: ('A' for Active; 'I' for Inactive)
REMARK    1  A    between atoms: C_2  and  C_3
REMARK    2  A    between atoms: C_5  and  N_7
REMARK    3  A    between atoms: C_12  and  N_13
REMARK    4  A    between atoms: C_18  and  O_20
REMARK    5  A    between atoms: C_21  and  O_23
REMARK                            x       y       z     vdW  Elec       q    Type
REMARK                         _______ _______ _______ _____ _____    ______ ____
ROOT
ATOM      1  N   UNL     1       8.182  -0.751  23.084  0.00  0.00    -0.302 N 
ATOM      2  C   UNL     1       9.190   0.114  23.455  0.00  0.00    +0.149 A 
ATOM      3  C   UNL     1       8.686   1.415  23.432  0.00  0.00    +0.071 A 
ATOM      4  C   UNL     1       9.581   2.442  23.773  0.00  0.00    +0.130 A 
ATOM      5  N   UNL     1      10.834   2.116  24.141  0.00  0.00    -0.220 NA
ATOM      6  C   UNL     1      11.191   0.821  24.125  0.00  0.00    +0.225 A 
ATOM      7  C   UNL     1       7.332   1.304  23.027  0.00  0.00    +0.044 A 
ATOM      8  I   UNL     1       5.982   2.793  22.744  0.00  0.00    -0.041 I 
ATOM      9  N   UNL     1      10.448  -0.246  23.774  0.00  0.00    -0.218 NA
ATOM     10  C   UNL     1       7.039  -0.020  22.821  0.00  0.00    +0.105 A 
ENDROOT
BRANCH   1  15
ATOM     11  C   UNL     1       7.151  -4.096  22.383  0.00  0.00    +0.149 C 
ATOM     12  C   UNL     1       5.757  -4.682  22.254  0.00  0.00    +0.041 C 
ATOM     13  C   UNL     1       7.790  -4.354  23.742  0.00  0.00    +0.176 C 
ATOM     14  C   UNL     1       8.603  -3.088  24.028  0.00  0.00    +0.195 C 
ATOM     15  C   UNL     1       8.319  -2.178  22.822  0.00  0.00    +0.252 C 
ATOM     16  O   UNL     1       7.095  -2.672  22.240  0.00  0.00    -0.348 OA
BRANCH  13  17
ATOM     17  O   UNL     1       8.595  -5.530  23.713  0.00  0.00    -0.387 OA
ATOM     18  H   UNL     1       8.455  -5.966  24.579  0.00  0.00    +0.210 HD
ENDBRANCH  13  17
BRANCH  14  19
ATOM     19  O   UNL     1       9.996  -3.410  24.153  0.00  0.00    -0.385 OA
ATOM     20  H   UNL     1      10.372  -3.284  23.255  0.00  0.00    +0.210 HD
ENDBRANCH  14  19
ENDBRANCH   1  15
BRANCH   4  21
ATOM     21  N   UNL     1       9.265   3.790  23.757  0.00  0.00    -0.343 N 
ATOM     22  H   UNL     1       9.129   4.141  22.819  0.00  0.00    +0.144 HD
ATOM     23  H   UNL     1       9.776   4.374  24.405  0.00  0.00    +0.144 HD
ENDBRANCH   4  21
TORSDOF 4
ENDMDL
MODEL 4
REMARK VINA RESULT:      -6.0      2.016      2.243
REMARK  Name = 
REMARK  5 active torsions:
REMARK  status: ('A' for Active; 'I' for Inactive)
REMARK    1  A    between atoms: C_2  and  C_3
REMARK    2  A    between atoms: C_5  and  N_7
REMARK    3  A    between atoms: C_12  and  N_13
REMARK    4  A    between atoms: C_18  and  O_20
REMARK    5  A    between atoms: C_21  and  O_23
REMARK                            x       y       z     vdW  Elec       q    Type
REMARK                         _______ _______ _______ _____ _____    ______ ____
ROOT
ATOM      1  N   UNL     1       7.866  -2.096  23.338  0.00  0.00    -0.302 N 
ATOM      2  C   UNL     1       7.415  -2.681  24.502  0.00  0.00    +0.149 A 
ATOM      3  C   UNL     1       6.858  -3.921  24.186  0.00  0.00    +0.071 A 
ATOM      4  C   UNL     1       6.331  -4.663  25.255  0.00  0.00    +0.130 A 
ATOM      5  N   UNL     1       6.434  -4.169  26.503  0.00  0.00    -0.220 NA
ATOM      6  C   UNL     1       6.999  -2.962  26.671  0.00  0.00    +0.225 A 
ATOM      7  C   UNL     1       6.985  -4.061  22.782  0.00  0.00    +0.044 A 
ATOM      8  I   UNL     1       6.366  -5.603  21.615  0.00  0.00    -0.041 I 
ATOM      9  N   UNL     1       7.495  -2.135  25.730  0.00  0.00    -0.218 NA
ATOM     10  C   UNL     1       7.602  -2.945  22.279  0.00  0.00    +0.105 A 
ENDROOT
BRANCH   1  15
ATOM     11  C   UNL     1       7.758   1.418  22.720  0.00  0.00    +0.149 C 
ATOM     12  C   UNL     1       6.596   2.302  22.301  0.00  0.00    +0.041 C 
ATOM     13  C   UNL     1       8.667   1.029  21.560  0.00  0.00    +0.176 C 
ATOM     14  C   UNL     1       9.109  -0.401  21.885  0.00  0.00    +0.195 C 
ATOM     15  C   UNL     1       8.368  -0.735  23.190  0.00  0.00    +0.252 C 
ATOM     16  O   UNL     1       7.263   0.187  23.259  0.00  0.00    -0.348 OA
BRANCH  13  17
ATOM     17  O   UNL     1       9.764   1.932  21.447  0.00  0.00    -0.387 OA
ATOM     18  H   UNL     1      10.373   1.700  22.179  0.00  0.00    +0.210 HD
ENDBRANCH  13  17
BRANCH  14  19
ATOM     19  O   UNL     1      10.536  -0.457  22.037  0.00  0.00    -0.385 OA
ATOM     20  H   UNL     1      10.805   0.454  22.285  0.00  0.00    +0.210 HD
ENDBRANCH  14  19
ENDBRANCH   1  15
BRANCH   4  21
ATOM     21  N   UNL     1       5.700  -5.888  25.119  0.00  0.00    -0.343 N 
ATOM     22  H   UNL     1       5.270  -6.000  24.210  0.00  0.00    +0.144 HD
ATOM     23  H   UNL     1       5.181  -6.214  25.923  0.00  0.00    +0.144 HD
ENDBRANCH   4  21
TORSDOF 4
ENDMDL
MODEL 5
REMARK VINA RESULT:      -6.0      3.252      5.727
REMARK  Name = 
REMARK  5 active torsions:
REMARK  status: ('A' for Active; 'I' for Inactive)
REMARK    1  A    between atoms: C_2  and  C_3
REMARK    2  A    between atoms: C_5  and  N_7
REMARK    3  A    between atoms: C_12  and  N_13
REMARK    4  A    between atoms: C_18  and  O_20
REMARK    5  A    between atoms: C_21  and  O_23
REMARK                            x       y       z     vdW  Elec       q    Type
REMARK                         _______ _______ _______ _____ _____    ______ ____
ROOT
ATOM      1  N   UNL     1       7.542  -1.656  24.310  0.00  0.00    -0.302 N 
ATOM      2  C   UNL     1       8.366  -1.180  23.313  0.00  0.00    +0.149 A 
ATOM      3  C   UNL     1       8.020   0.146  23.050  0.00  0.00    +0.071 A 
ATOM      4  C   UNL     1       8.752   0.799  22.045  0.00  0.00    +0.130 A 
ATOM      5  N   UNL     1       9.756   0.138  21.439  0.00  0.00    -0.220 NA
ATOM      6  C   UNL     1       9.989  -1.137  21.790  0.00  0.00    +0.225 A 
ATOM      7  C   UNL     1       6.948   0.452  23.925  0.00  0.00    +0.044 A 
ATOM      8  I   UNL     1       5.917   2.193  24.081  0.00  0.00    -0.041 I 
ATOM      9  N   UNL     1       9.333  -1.887  22.697  0.00  0.00    -0.218 NA
ATOM     10  C   UNL     1       6.670  -0.652  24.687  0.00  0.00    +0.105 A 
ENDROOT
BRANCH   1  15
ATOM     11  C   UNL     1       6.584  -4.381  26.409  0.00  0.00    +0.149 C 
ATOM     12  C   UNL     1       5.803  -4.384  27.711  0.00  0.00    +0.041 C 
ATOM     13  C   UNL     1       8.092  -4.481  26.609  0.00  0.00    +0.176 C 
ATOM     14  C   UNL     1       8.684  -3.610  25.497  0.00  0.00    +0.195 C 
ATOM     15  C   UNL     1       7.453  -3.035  24.776  0.00  0.00    +0.252 C 
ATOM     16  O   UNL     1       6.363  -3.149  25.712  0.00  0.00    -0.348 OA
BRANCH  13  17
ATOM     17  O   UNL     1       8.527  -5.836  26.538  0.00  0.00    -0.387 OA
ATOM     18  H   UNL     1       7.852  -6.355  27.023  0.00  0.00    +0.210 HD
ENDBRANCH  13  17
BRANCH  14  19
ATOM     19  O   UNL     1       9.504  -4.404  24.628  0.00  0.00    -0.385 OA
ATOM     20  H   UNL     1       9.357  -5.333  24.911  0.00  0.00    +0.210 HD
ENDBRANCH  14  19
ENDBRANCH   1  15
BRANCH   4  21
ATOM     21  N   UNL     1       8.513   2.096  21.622  0.00  0.00    -0.343 N 
ATOM     22  H   UNL     1       7.598   2.201  21.204  0.00  0.00    +0.144 HD
ATOM     23  H   UNL     1       9.287   2.568  21.176  0.00  0.00    +0.144 HD
ENDBRANCH   4  21
TORSDOF 4
ENDMDL
MODEL 6
REMARK VINA RESULT:      -6.0      2.235      2.890
REMARK  Name = 
REMARK  5 active torsions:
REMARK  status: ('A' for Active; 'I' for Inactive)
REMARK    1  A    between atoms: C_2  and  C_3
REMARK    2  A    between atoms: C_5  and  N_7
REMARK    3  A    between atoms: C_12  and  N_13
REMARK    4  A    between atoms: C_18  and  O_20
REMARK    5  A    between atoms: C_21  and  O_23
REMARK                            x       y       z     vdW  Elec       q    Type
REMARK                         _______ _______ _______ _____ _____    ______ ____
ROOT
ATOM      1  N   UNL     1       7.555  -2.439  24.103  0.00  0.00    -0.302 N 
ATOM      2  C   UNL     1       6.940  -3.164  25.102  0.00  0.00    +0.149 A 
ATOM      3  C   UNL     1       6.457  -4.352  24.551  0.00  0.00    +0.071 A 
ATOM      4  C   UNL     1       5.784  -5.221  25.425  0.00  0.00    +0.130 A 
ATOM      5  N   UNL     1       5.687  -4.888  26.726  0.00  0.00    -0.220 NA
ATOM      6  C   UNL     1       6.201  -3.714  27.128  0.00  0.00    +0.225 A 
ATOM      7  C   UNL     1       6.800  -4.315  23.177  0.00  0.00    +0.044 A 
ATOM      8  I   UNL     1       6.392  -5.695  21.746  0.00  0.00    -0.041 I 
ATOM      9  N   UNL     1       6.822  -2.777  26.387  0.00  0.00    -0.218 NA
ATOM     10  C   UNL     1       7.469  -3.146  22.919  0.00  0.00    +0.105 A 
ENDROOT
BRANCH   1  15
ATOM     11  C   UNL     1       9.076   0.613  23.047  0.00  0.00    +0.149 C 
ATOM     12  C   UNL     1       9.720   0.976  21.720  0.00  0.00    +0.041 C 
ATOM     13  C   UNL     1      10.087   0.236  24.124  0.00  0.00    +0.176 C 
ATOM     14  C   UNL     1       9.395  -0.869  24.927  0.00  0.00    +0.195 C 
ATOM     15  C   UNL     1       8.052  -1.072  24.206  0.00  0.00    +0.252 C 
ATOM     16  O   UNL     1       8.235  -0.535  22.881  0.00  0.00    -0.348 OA
BRANCH  13  17
ATOM     17  O   UNL     1      10.428   1.366  24.922  0.00  0.00    -0.387 OA
ATOM     18  H   UNL     1      10.590   2.096  24.288  0.00  0.00    +0.210 HD
ENDBRANCH  13  17
BRANCH  14  19
ATOM     19  O   UNL     1       9.225  -0.457  26.292  0.00  0.00    -0.385 OA
ATOM     20  H   UNL     1       9.248   0.524  26.271  0.00  0.00    +0.210 HD
ENDBRANCH  14  19
ENDBRANCH   1  15
BRANCH   4  21
ATOM     21  N   UNL     1       5.201  -6.417  25.041  0.00  0.00    -0.343 N 
ATOM     22  H   UNL     1       5.635  -6.807  24.215  0.00  0.00    +0.144 HD
ATOM     23  H   UNL     1       4.193  -6.461  25.104  0.00  0.00    +0.144 HD
ENDBRANCH   4  21
TORSDOF 4
ENDMDL
MODEL 7
REMARK VINA RESULT:      -5.7      3.463      5.592
REMARK  Name = 
REMARK  5 active torsions:
REMARK  status: ('A' for Active; 'I' for Inactive)
REMARK    1  A    between atoms: C_2  and  C_3
REMARK    2  A    between atoms: C_5  and  N_7
REMARK    3  A    between atoms: C_12  and  N_13
REMARK    4  A    between atoms: C_18  and  O_20
REMARK    5  A    between atoms: C_21  and  O_23
REMARK                            x       y       z     vdW  Elec       q    Type
REMARK                         _______ _______ _______ _____ _____    ______ ____
ROOT
ATOM      1  N   UNL     1       7.016  -2.442  23.914  0.00  0.00    -0.302 N 
ATOM      2  C   UNL     1       8.226  -1.881  23.568  0.00  0.00    +0.149 A 
ATOM      3  C   UNL     1       8.570  -0.940  24.539  0.00  0.00    +0.071 A 
ATOM      4  C   UNL     1       9.778  -0.251  24.347  0.00  0.00    +0.130 A 
ATOM      5  N   UNL     1      10.543  -0.564  23.284  0.00  0.00    -0.220 NA
ATOM      6  C   UNL     1      10.097  -1.496  22.425  0.00  0.00    +0.225 A 
ATOM      7  C   UNL     1       7.516  -0.951  25.486  0.00  0.00    +0.044 A 
ATOM      8  I   UNL     1       7.320   0.184  27.157  0.00  0.00    -0.041 I 
ATOM      9  N   UNL     1       8.943  -2.189  22.470  0.00  0.00    -0.218 NA
ATOM     10  C   UNL     1       6.578  -1.871  25.094  0.00  0.00    +0.105 A 
ENDROOT
BRANCH   1  15
ATOM     11  C   UNL     1       4.281  -4.567  23.047  0.00  0.00    +0.149 C 
ATOM     12  C   UNL     1       3.072  -4.986  23.864  0.00  0.00    +0.041 C 
ATOM     13  C   UNL     1       5.383  -5.620  23.017  0.00  0.00    +0.176 C 
ATOM     14  C   UNL     1       6.684  -4.812  23.016  0.00  0.00    +0.195 C 
ATOM     15  C   UNL     1       6.217  -3.349  23.099  0.00  0.00    +0.252 C 
ATOM     16  O   UNL     1       4.874  -3.396  23.621  0.00  0.00    -0.348 OA
BRANCH  13  17
ATOM     17  O   UNL     1       5.256  -6.459  21.872  0.00  0.00    -0.387 OA
ATOM     18  H   UNL     1       4.379  -6.250  21.488  0.00  0.00    +0.210 HD
ENDBRANCH  13  17
BRANCH  14  19
ATOM     19  O   UNL     1       7.433  -5.079  21.821  0.00  0.00    -0.385 OA
ATOM     20  H   UNL     1       7.082  -5.930  21.480  0.00  0.00    +0.210 HD
ENDBRANCH  14  19
ENDBRANCH   1  15
BRANCH   4  21
ATOM     21  N   UNL     1      10.250   0.747  25.183  0.00  0.00    -0.343 N 
ATOM     22  H   UNL     1      10.161   1.666  24.772  0.00  0.00    +0.144 HD
ATOM     23  H   UNL     1      11.104   0.540  25.685  0.00  0.00    +0.144 HD
ENDBRANCH   4  21
TORSDOF 4
ENDMDL
MODEL 8
REMARK VINA RESULT:      -5.7      2.261      3.137
REMARK  Name = 
REMARK  5 active torsions:
REMARK  status: ('A' for Active; 'I' for Inactive)
REMARK    1  A    between atoms: C_2  and  C_3
REMARK    2  A    between atoms: C_5  and  N_7
REMARK    3  A    between atoms: C_12  and  N_13
REMARK    4  A    between atoms: C_18  and  O_20
REMARK    5  A    between atoms: C_21  and  O_23
REMARK                            x       y       z     vdW  Elec       q    Type
REMARK                         _______ _______ _______ _____ _____    ______ ____
ROOT
ATOM      1  N   UNL     1       7.472   0.400  23.618  0.00  0.00    -0.302 N 
ATOM      2  C   UNL     1       8.442  -0.557  23.410  0.00  0.00    +0.149 A 
ATOM      3  C   UNL     1       7.923  -1.799  23.779  0.00  0.00    +0.071 A 
ATOM      4  C   UNL     1       8.780  -2.903  23.647  0.00  0.00    +0.130 A 
ATOM      5  N   UNL     1      10.012  -2.712  23.138  0.00  0.00    -0.220 NA
ATOM      6  C   UNL     1      10.387  -1.462  22.817  0.00  0.00    +0.225 A 
ATOM      7  C   UNL     1       6.599  -1.554  24.223  0.00  0.00    +0.044 A 
ATOM      8  I   UNL     1       5.250  -2.891  24.938  0.00  0.00    -0.041 I 
ATOM      9  N   UNL     1       9.682  -0.321  22.941  0.00  0.00    -0.218 NA
ATOM     10  C   UNL     1       6.338  -0.213  24.117  0.00  0.00    +0.105 A 
ENDROOT
BRANCH   1  15
ATOM     11  C   UNL     1       6.568   3.852  23.725  0.00  0.00    +0.149 C 
ATOM     12  C   UNL     1       5.221   4.502  23.986  0.00  0.00    +0.041 C 
ATOM     13  C   UNL     1       6.924   3.774  22.245  0.00  0.00    +0.176 C 
ATOM     14  C   UNL     1       7.676   2.448  22.102  0.00  0.00    +0.195 C 
ATOM     15  C   UNL     1       7.644   1.844  23.516  0.00  0.00    +0.252 C 
ATOM     16  O   UNL     1       6.555   2.499  24.196  0.00  0.00    -0.348 OA
BRANCH  13  17
ATOM     17  O   UNL     1       7.707   4.896  21.848  0.00  0.00    -0.387 OA
ATOM     18  H   UNL     1       7.518   5.596  22.508  0.00  0.00    +0.210 HD
ENDBRANCH  13  17
BRANCH  14  19
ATOM     19  O   UNL     1       9.014   2.683  21.639  0.00  0.00    -0.385 OA
ATOM     20  H   UNL     1       9.552   2.800  22.451  0.00  0.00    +0.210 HD
ENDBRANCH  14  19
ENDBRANCH   1  15
BRANCH   4  21
ATOM     21  N   UNL     1       8.448  -4.198  24.009  0.00  0.00    -0.343 N 
ATOM     22  H   UNL     1       7.729  -4.225  24.719  0.00  0.00    +0.144 HD
ATOM     23  H   UNL     1       9.218  -4.846  24.099  0.00  0.00    +0.144 HD
ENDBRANCH   4  21
TORSDOF 4
ENDMDL
MODEL 9
REMARK VINA RESULT:      -5.7      2.296      2.497
REMARK  Name = 
REMARK  5 active torsions:
REMARK  status: ('A' for Active; 'I' for Inactive)
REMARK    1  A    between atoms: C_2  and  C_3
REMARK    2  A    between atoms: C_5  and  N_7
REMARK    3  A    between atoms: C_12  and  N_13
REMARK    4  A    between atoms: C_18  and  O_20
REMARK    5  A    between atoms: C_21  and  O_23
REMARK                            x       y       z     vdW  Elec       q    Type
REMARK                         _______ _______ _______ _____ _____    ______ ____
ROOT
ATOM      1  N   UNL     1       6.869  -2.722  23.659  0.00  0.00    -0.302 N 
ATOM      2  C   UNL     1       6.712  -3.927  23.008  0.00  0.00    +0.149 A 
ATOM      3  C   UNL     1       5.491  -4.481  23.396  0.00  0.00    +0.071 A 
ATOM      4  C   UNL     1       5.161  -5.727  22.838  0.00  0.00    +0.130 A 
ATOM      5  N   UNL     1       6.000  -6.281  21.944  0.00  0.00    -0.220 NA
ATOM      6  C   UNL     1       7.144  -5.639  21.653  0.00  0.00    +0.225 A 
ATOM      7  C   UNL     1       4.918  -3.565  24.313  0.00  0.00    +0.044 A 
ATOM      8  I   UNL     1       3.158  -3.725  25.311  0.00  0.00    -0.041 I 
ATOM      9  N   UNL     1       7.597  -4.472  22.152  0.00  0.00    -0.218 NA
ATOM     10  C   UNL     1       5.767  -2.498  24.461  0.00  0.00    +0.105 A 
ENDROOT
BRANCH   1  15
ATOM     11  C   UNL     1       8.915   0.124  24.336  0.00  0.00    +0.149 C 
ATOM     12  C   UNL     1       8.561   1.451  24.983  0.00  0.00    +0.041 C 
ATOM     13  C   UNL     1       8.962   0.189  22.814  0.00  0.00    +0.176 C 
ATOM     14  C   UNL     1       8.430  -1.172  22.357  0.00  0.00    +0.195 C 
ATOM     15  C   UNL     1       8.069  -1.892  23.666  0.00  0.00    +0.252 C 
ATOM     16  O   UNL     1       7.919  -0.854  24.655  0.00  0.00    -0.348 OA
BRANCH  13  17
ATOM     17  O   UNL     1      10.287   0.444  22.354  0.00  0.00    -0.387 OA
ATOM     18  H   UNL     1      10.880   0.040  23.023  0.00  0.00    +0.210 HD
ENDBRANCH  13  17
BRANCH  14  19
ATOM     19  O   UNL     1       9.434  -1.872  21.607  0.00  0.00    -0.385 OA
ATOM     20  H   UNL     1       9.690  -1.260  20.884  0.00  0.00    +0.210 HD
ENDBRANCH  14  19
ENDBRANCH   1  15
BRANCH   4  21
ATOM     21  N   UNL     1       4.016  -6.442  23.146  0.00  0.00    -0.343 N 
ATOM     22  H   UNL     1       3.175  -5.896  23.012  0.00  0.00    +0.144 HD
ATOM     23  H   UNL     1       4.065  -7.028  23.968  0.00  0.00    +0.144 HD
ENDBRANCH   4  21
TORSDOF 4
ENDMDL
