MODEL 1
REMARK VINA RESULT:      -6.1      0.000      0.000
REMARK  Name = 
REMARK  8 active torsions:
REMARK  status: ('A' for Active; 'I' for Inactive)
REMARK    1  A    between atoms: C_2  and  S_3
REMARK    2  A    between atoms: C_5  and  N_16
REMARK    3  A    between atoms: C_8  and  C_10
REMARK    4  A    between atoms: C_10  and  O_11
REMARK    5  A    between atoms: O_11  and  P_12
REMARK    6  A    between atoms: P_12  and  O_13
REMARK    7  A    between atoms: P_12  and  O_14
REMARK    8  A    between atoms: C_18  and  C_19
REMARK                            x       y       z     vdW  Elec       q    Type
REMARK                         _______ _______ _______ _____ _____    ______ ____
ROOT
ATOM      1  C   UNL     1       6.735  -4.393  22.487  0.00  0.00    +0.079 C 
ATOM      2  C   UNL     1       5.889  -4.327  23.755  0.00  0.00    +0.160 C 
ATOM      3  O   UNL     1       5.619  -2.923  24.001  0.00  0.00    -0.350 OA
ATOM      4  C   UNL     1       6.320  -2.141  23.011  0.00  0.00    +0.225 C 
ATOM      5  C   UNL     1       6.375  -3.089  21.818  0.00  0.00    +0.071 C 
ENDROOT
BRANCH   4   6
ATOM      6  N   UNL     1       7.583  -1.661  23.611  0.00  0.00    -0.274 N 
ATOM      7  C   UNL     1       8.644  -1.267  22.804  0.00  0.00    +0.331 A 
ATOM      8  O   UNL     1       8.669  -1.357  21.578  0.00  0.00    -0.246 OA
ATOM      9  N   UNL     1       9.729  -0.741  23.447  0.00  0.00    -0.275 N 
ATOM     10  H   UNL     1      10.487  -0.433  22.859  0.00  0.00    +0.173 HD
ATOM     11  C   UNL     1       9.786  -0.370  24.757  0.00  0.00    +0.257 A 
ATOM     12  O   UNL     1      10.725   0.271  25.213  0.00  0.00    -0.267 OA
ATOM     13  C   UNL     1       8.632  -0.774  25.585  0.00  0.00    +0.030 A 
ATOM     14  C   UNL     1       8.690  -0.461  27.043  0.00  0.00    +0.051 C 
ATOM     15  C   UNL     1       7.601  -1.373  24.972  0.00  0.00    +0.101 A 
ENDBRANCH   4   6
BRANCH   1  16
ATOM     16  S   UNL     1       6.384  -5.843  21.450  0.00  0.00    -0.172 S 
ATOM     17  H   UNL     1       5.079  -5.599  21.254  0.00  0.00    +0.102 HD
ENDBRANCH   1  16
BRANCH   2  18
ATOM     18  C   UNL     1       6.597  -4.937  24.963  0.00  0.00    +0.205 C 
BRANCH  18  19
ATOM     19  O   UNL     1       7.910  -5.300  24.569  0.00  0.00    -0.284 OA
BRANCH  19  20
ATOM     20  P   UNL     1       9.122  -4.815  25.483  0.00  0.00    +0.472 P 
ATOM     21  O   UNL     1       8.755  -4.170  26.774  0.00  0.00    -0.228 OA
BRANCH  20  22
ATOM     22  O   UNL     1       9.965  -3.897  24.492  0.00  0.00    -0.303 OA
ATOM     23  H   UNL     1      10.915  -4.097  24.543  0.00  0.00    +0.222 HD
ENDBRANCH  20  22
BRANCH  20  24
ATOM     24  O   UNL     1      10.023  -6.123  25.632  0.00  0.00    -0.303 OA
ATOM     25  H   UNL     1       9.482  -6.932  25.661  0.00  0.00    +0.222 HD
ENDBRANCH  20  24
ENDBRANCH  19  20
ENDBRANCH  18  19
ENDBRANCH   2  18
TORSDOF 7
ENDMDL
MODEL 2
REMARK VINA RESULT:      -5.9      2.706      4.062
REMARK  Name = 
REMARK  8 active torsions:
REMARK  status: ('A' for Active; 'I' for Inactive)
REMARK    1  A    between atoms: C_2  and  S_3
REMARK    2  A    between atoms: C_5  and  N_16
REMARK    3  A    between atoms: C_8  and  C_10
REMARK    4  A    between atoms: C_10  and  O_11
REMARK    5  A    between atoms: O_11  and  P_12
REMARK    6  A    between atoms: P_12  and  O_13
REMARK    7  A    between atoms: P_12  and  O_14
REMARK    8  A    between atoms: C_18  and  C_19
REMARK                            x       y       z     vdW  Elec       q    Type
REMARK                         _______ _______ _______ _____ _____    ______ ____
ROOT
ATOM      1  C   UNL     1       7.295  -3.860  25.139  0.00  0.00    +0.079 C 
ATOM      2  C   UNL     1       8.120  -4.258  23.920  0.00  0.00    +0.160 C 
ATOM      3  O   UNL     1       9.445  -3.698  24.112  0.00  0.00    -0.350 OA
ATOM      4  C   UNL     1       9.439  -2.918  25.327  0.00  0.00    +0.225 C 
ATOM      5  C   UNL     1       8.375  -3.618  26.166  0.00  0.00    +0.071 C 
ENDROOT
BRANCH   4   6
ATOM      6  N   UNL     1       9.254  -1.497  24.964  0.00  0.00    -0.274 N 
ATOM      7  C   UNL     1       9.069  -0.535  25.949  0.00  0.00    +0.331 A 
ATOM      8  O   UNL     1       8.958  -0.767  27.151  0.00  0.00    -0.246 OA
ATOM      9  N   UNL     1       9.010   0.762  25.523  0.00  0.00    -0.275 N 
ATOM     10  H   UNL     1       8.902   1.462  26.241  0.00  0.00    +0.173 HD
ATOM     11  C   UNL     1       9.327   1.215  24.276  0.00  0.00    +0.257 A 
ATOM     12  O   UNL     1       9.438   2.408  24.025  0.00  0.00    -0.267 OA
ATOM     13  C   UNL     1       9.550   0.171  23.257  0.00  0.00    +0.030 A 
ATOM     14  C   UNL     1       9.818   0.621  21.860  0.00  0.00    +0.051 C 
ATOM     15  C   UNL     1       9.518  -1.110  23.654  0.00  0.00    +0.101 A 
ENDBRANCH   4   6
BRANCH   1  16
ATOM     16  S   UNL     1       6.096  -5.124  25.655  0.00  0.00    -0.172 S 
ATOM     17  H   UNL     1       4.991  -4.376  25.515  0.00  0.00    +0.102 HD
ENDBRANCH   1  16
BRANCH   2  18
ATOM     18  C   UNL     1       7.522  -3.736  22.614  0.00  0.00    +0.205 C 
BRANCH  18  19
ATOM     19  O   UNL     1       7.458  -4.814  21.696  0.00  0.00    -0.284 OA
BRANCH  19  20
ATOM     20  P   UNL     1       6.074  -5.594  21.560  0.00  0.00    +0.472 P 
ATOM     21  O   UNL     1       4.901  -4.974  22.235  0.00  0.00    -0.228 OA
BRANCH  20  22
ATOM     22  O   UNL     1       6.443  -7.057  22.070  0.00  0.00    -0.303 OA
ATOM     23  H   UNL     1       5.647  -7.602  22.191  0.00  0.00    +0.222 HD
ENDBRANCH  20  22
BRANCH  20  24
ATOM     24  O   UNL     1       5.906  -5.782  19.985  0.00  0.00    -0.303 OA
ATOM     25  H   UNL     1       6.624  -6.319  19.608  0.00  0.00    +0.222 HD
ENDBRANCH  20  24
ENDBRANCH  19  20
ENDBRANCH  18  19
ENDBRANCH   2  18
TORSDOF 7
ENDMDL
MODEL 3
REMARK VINA RESULT:      -5.8      1.373      1.985
REMARK  Name = 
REMARK  8 active torsions:
REMARK  status: ('A' for Active; 'I' for Inactive)
REMARK    1  A    between atoms: C_2  and  S_3
REMARK    2  A    between atoms: C_5  and  N_16
REMARK    3  A    between atoms: C_8  and  C_10
REMARK    4  A    between atoms: C_10  and  O_11
REMARK    5  A    between atoms: O_11  and  P_12
REMARK    6  A    between atoms: P_12  and  O_13
REMARK    7  A    between atoms: P_12  and  O_14
REMARK    8  A    between atoms: C_18  and  C_19
REMARK                            x       y       z     vdW  Elec       q    Type
REMARK                         _______ _______ _______ _____ _____    ______ ____
ROOT
ATOM      1  C   UNL     1       6.508  -4.631  22.303  0.00  0.00    +0.079 C 
ATOM      2  C   UNL     1       5.663  -4.677  23.572  0.00  0.00    +0.160 C 
ATOM      3  O   UNL     1       5.131  -3.341  23.767  0.00  0.00    -0.350 OA
ATOM      4  C   UNL     1       5.673  -2.479  22.744  0.00  0.00    +0.225 C 
ATOM      5  C   UNL     1       5.909  -3.444  21.588  0.00  0.00    +0.071 C 
ENDROOT
BRANCH   4   6
ATOM      6  N   UNL     1       6.821  -1.746  23.319  0.00  0.00    -0.274 N 
ATOM      7  C   UNL     1       6.736  -1.181  24.586  0.00  0.00    +0.331 A 
ATOM      8  O   UNL     1       5.724  -1.159  25.282  0.00  0.00    -0.246 OA
ATOM      9  N   UNL     1       7.881  -0.615  25.072  0.00  0.00    -0.275 N 
ATOM     10  H   UNL     1       7.825  -0.228  26.002  0.00  0.00    +0.173 HD
ATOM     11  C   UNL     1       9.130  -0.739  24.540  0.00  0.00    +0.257 A 
ATOM     12  O   UNL     1      10.133  -0.367  25.136  0.00  0.00    -0.267 OA
ATOM     13  C   UNL     1       9.194  -1.372  23.208  0.00  0.00    +0.030 A 
ATOM     14  C   UNL     1      10.531  -1.453  22.550  0.00  0.00    +0.051 C 
ATOM     15  C   UNL     1       8.055  -1.849  22.684  0.00  0.00    +0.101 A 
ENDBRANCH   4   6
BRANCH   1  16
ATOM     16  S   UNL     1       6.440  -6.159  21.323  0.00  0.00    -0.172 S 
ATOM     17  H   UNL     1       5.105  -6.296  21.317  0.00  0.00    +0.102 HD
ENDBRANCH   1  16
BRANCH   2  18
ATOM     18  C   UNL     1       6.472  -5.096  24.798  0.00  0.00    +0.205 C 
BRANCH  18  19
ATOM     19  O   UNL     1       7.844  -4.868  24.522  0.00  0.00    -0.284 OA
BRANCH  19  20
ATOM     20  P   UNL     1       8.835  -4.705  25.760  0.00  0.00    +0.472 P 
ATOM     21  O   UNL     1       8.829  -3.379  26.436  0.00  0.00    -0.228 OA
BRANCH  20  22
ATOM     22  O   UNL     1      10.239  -5.137  25.145  0.00  0.00    -0.303 OA
ATOM     23  H   UNL     1      10.649  -4.408  24.649  0.00  0.00    +0.222 HD
ENDBRANCH  20  22
BRANCH  20  24
ATOM     24  O   UNL     1       8.453  -5.930  26.706  0.00  0.00    -0.303 OA
ATOM     25  H   UNL     1       7.552  -5.844  27.062  0.00  0.00    +0.222 HD
ENDBRANCH  20  24
ENDBRANCH  19  20
ENDBRANCH  18  19
ENDBRANCH   2  18
TORSDOF 7
ENDMDL
MODEL 4
REMARK VINA RESULT:      -5.8      2.552      4.997
REMARK  Name = 
REMARK  8 active torsions:
REMARK  status: ('A' for Active; 'I' for Inactive)
REMARK    1  A    between atoms: C_2  and  S_3
REMARK    2  A    between atoms: C_5  and  N_16
REMARK    3  A    between atoms: C_8  and  C_10
REMARK    4  A    between atoms: C_10  and  O_11
REMARK    5  A    between atoms: O_11  and  P_12
REMARK    6  A    between atoms: P_12  and  O_13
REMARK    7  A    between atoms: P_12  and  O_14
REMARK    8  A    between atoms: C_18  and  C_19
REMARK                            x       y       z     vdW  Elec       q    Type
REMARK                         _______ _______ _______ _____ _____    ______ ____
ROOT
ATOM      1  C   UNL     1       7.755  -1.363  25.548  0.00  0.00    +0.079 C 
ATOM      2  C   UNL     1       8.693  -1.458  24.349  0.00  0.00    +0.160 C 
ATOM      3  O   UNL     1       7.864  -1.357  23.162  0.00  0.00    -0.350 OA
ATOM      4  C   UNL     1       6.482  -1.295  23.574  0.00  0.00    +0.225 C 
ATOM      5  C   UNL     1       6.574  -0.640  24.947  0.00  0.00    +0.071 C 
ENDROOT
BRANCH   4   6
ATOM      6  N   UNL     1       5.904  -2.651  23.458  0.00  0.00    -0.274 N 
ATOM      7  C   UNL     1       4.784  -3.007  24.200  0.00  0.00    +0.331 A 
ATOM      8  O   UNL     1       4.243  -2.298  25.046  0.00  0.00    -0.246 OA
ATOM      9  N   UNL     1       4.261  -4.244  23.948  0.00  0.00    -0.275 N 
ATOM     10  H   UNL     1       3.434  -4.491  24.468  0.00  0.00    +0.173 HD
ATOM     11  C   UNL     1       4.592  -5.061  22.908  0.00  0.00    +0.257 A 
ATOM     12  O   UNL     1       3.946  -6.066  22.637  0.00  0.00    -0.267 OA
ATOM     13  C   UNL     1       5.766  -4.643  22.117  0.00  0.00    +0.030 A 
ATOM     14  C   UNL     1       6.215  -5.550  21.021  0.00  0.00    +0.051 C 
ATOM     15  C   UNL     1       6.340  -3.469  22.420  0.00  0.00    +0.101 A 
ENDBRANCH   4   6
BRANCH   1  16
ATOM     16  S   UNL     1       8.473  -0.492  26.971  0.00  0.00    -0.172 S 
ATOM     17  H   UNL     1       8.732  -1.575  27.720  0.00  0.00    +0.102 HD
ENDBRANCH   1  16
BRANCH   2  18
ATOM     18  C   UNL     1       9.478  -2.769  24.323  0.00  0.00    +0.205 C 
BRANCH  18  19
ATOM     19  O   UNL     1       8.991  -3.596  25.366  0.00  0.00    -0.284 OA
BRANCH  19  20
ATOM     20  P   UNL     1       9.081  -5.175  25.166  0.00  0.00    +0.472 P 
ATOM     21  O   UNL     1       8.624  -5.698  23.849  0.00  0.00    -0.228 OA
BRANCH  20  22
ATOM     22  O   UNL     1       8.280  -5.735  26.424  0.00  0.00    -0.303 OA
ATOM     23  H   UNL     1       7.930  -5.013  26.972  0.00  0.00    +0.222 HD
ENDBRANCH  20  22
BRANCH  20  24
ATOM     24  O   UNL     1      10.600  -5.509  25.517  0.00  0.00    -0.303 OA
ATOM     25  H   UNL     1      11.090  -4.714  25.792  0.00  0.00    +0.222 HD
ENDBRANCH  20  24
ENDBRANCH  19  20
ENDBRANCH  18  19
ENDBRANCH   2  18
TORSDOF 7
ENDMDL
MODEL 5
REMARK VINA RESULT:      -5.7      2.791      4.704
REMARK  Name = 
REMARK  8 active torsions:
REMARK  status: ('A' for Active; 'I' for Inactive)
REMARK    1  A    between atoms: C_2  and  S_3
REMARK    2  A    between atoms: C_5  and  N_16
REMARK    3  A    between atoms: C_8  and  C_10
REMARK    4  A    between atoms: C_10  and  O_11
REMARK    5  A    between atoms: O_11  and  P_12
REMARK    6  A    between atoms: P_12  and  O_13
REMARK    7  A    between atoms: P_12  and  O_14
REMARK    8  A    between atoms: C_18  and  C_19
REMARK                            x       y       z     vdW  Elec       q    Type
REMARK                         _______ _______ _______ _____ _____    ______ ____
ROOT
ATOM      1  C   UNL     1       7.279  -1.780  24.050  0.00  0.00    +0.079 C 
ATOM      2  C   UNL     1       8.417  -2.475  23.308  0.00  0.00    +0.160 C 
ATOM      3  O   UNL     1       7.836  -3.075  22.122  0.00  0.00    -0.350 OA
ATOM      4  C   UNL     1       6.409  -2.857  22.151  0.00  0.00    +0.225 C 
ATOM      5  C   UNL     1       6.288  -1.554  22.934  0.00  0.00    +0.071 C 
ENDROOT
BRANCH   4   6
ATOM      6  N   UNL     1       5.766  -4.079  22.680  0.00  0.00    -0.274 N 
ATOM      7  C   UNL     1       6.094  -5.328  22.166  0.00  0.00    +0.331 A 
ATOM      8  O   UNL     1       6.845  -5.525  21.213  0.00  0.00    -0.246 OA
ATOM      9  N   UNL     1       5.527  -6.404  22.788  0.00  0.00    -0.275 N 
ATOM     10  H   UNL     1       5.785  -7.311  22.431  0.00  0.00    +0.173 HD
ATOM     11  C   UNL     1       4.856  -6.387  23.975  0.00  0.00    +0.257 A 
ATOM     12  O   UNL     1       4.546  -7.415  24.564  0.00  0.00    -0.267 OA
ATOM     13  C   UNL     1       4.549  -5.047  24.514  0.00  0.00    +0.030 A 
ATOM     14  C   UNL     1       3.744  -4.980  25.769  0.00  0.00    +0.051 C 
ATOM     15  C   UNL     1       5.028  -3.982  23.855  0.00  0.00    +0.101 A 
ENDBRANCH   4   6
BRANCH   1  16
ATOM     16  S   UNL     1       7.778  -0.243  24.879  0.00  0.00    -0.172 S 
ATOM     17  H   UNL     1       9.103  -0.381  24.709  0.00  0.00    +0.102 HD
ENDBRANCH   1  16
BRANCH   2  18
ATOM     18  C   UNL     1       9.095  -3.551  24.153  0.00  0.00    +0.205 C 
BRANCH  18  19
ATOM     19  O   UNL     1       8.204  -3.927  25.189  0.00  0.00    -0.284 OA
BRANCH  19  20
ATOM     20  P   UNL     1       8.539  -5.247  26.018  0.00  0.00    +0.472 P 
ATOM     21  O   UNL     1       7.372  -6.042  26.488  0.00  0.00    -0.228 OA
BRANCH  20  22
ATOM     22  O   UNL     1       9.490  -4.704  27.175  0.00  0.00    -0.303 OA
ATOM     23  H   UNL     1       9.881  -3.846  26.940  0.00  0.00    +0.222 HD
ENDBRANCH  20  22
BRANCH  20  24
ATOM     24  O   UNL     1       9.538  -6.042  25.062  0.00  0.00    -0.303 OA
ATOM     25  H   UNL     1       9.608  -5.625  24.186  0.00  0.00    +0.222 HD
ENDBRANCH  20  24
ENDBRANCH  19  20
ENDBRANCH  18  19
ENDBRANCH   2  18
TORSDOF 7
ENDMDL
MODEL 6
REMARK VINA RESULT:      -5.6      2.766      4.229
REMARK  Name = 
REMARK  8 active torsions:
REMARK  status: ('A' for Active; 'I' for Inactive)
REMARK    1  A    between atoms: C_2  and  S_3
REMARK    2  A    between atoms: C_5  and  N_16
REMARK    3  A    between atoms: C_8  and  C_10
REMARK    4  A    between atoms: C_10  and  O_11
REMARK    5  A    between atoms: O_11  and  P_12
REMARK    6  A    between atoms: P_12  and  O_13
REMARK    7  A    between atoms: P_12  and  O_14
REMARK    8  A    between atoms: C_18  and  C_19
REMARK                            x       y       z     vdW  Elec       q    Type
REMARK                         _______ _______ _______ _____ _____    ______ ____
ROOT
ATOM      1  C   UNL     1       8.857  -2.756  24.074  0.00  0.00    +0.079 C 
ATOM      2  C   UNL     1       8.142  -2.696  22.728  0.00  0.00    +0.160 C 
ATOM      3  O   UNL     1       8.840  -1.706  21.929  0.00  0.00    -0.350 OA
ATOM      4  C   UNL     1       9.872  -1.108  22.742  0.00  0.00    +0.225 C 
ATOM      5  C   UNL     1      10.225  -2.231  23.710  0.00  0.00    +0.071 C 
ENDROOT
BRANCH   4   6
ATOM      6  N   UNL     1       9.357   0.171  23.276  0.00  0.00    -0.274 N 
ATOM      7  C   UNL     1       9.977   0.786  24.357  0.00  0.00    +0.331 A 
ATOM      8  O   UNL     1      10.912   0.311  24.998  0.00  0.00    -0.246 OA
ATOM      9  N   UNL     1       9.493   2.014  24.712  0.00  0.00    -0.275 N 
ATOM     10  H   UNL     1       9.961   2.470  25.480  0.00  0.00    +0.173 HD
ATOM     11  C   UNL     1       8.623   2.776  23.990  0.00  0.00    +0.257 A 
ATOM     12  O   UNL     1       8.387   3.943  24.276  0.00  0.00    -0.267 OA
ATOM     13  C   UNL     1       8.003   2.107  22.830  0.00  0.00    +0.030 A 
ATOM     14  C   UNL     1       6.982   2.876  22.060  0.00  0.00    +0.051 C 
ATOM     15  C   UNL     1       8.410   0.865  22.530  0.00  0.00    +0.101 A 
ENDBRANCH   4   6
BRANCH   1  16
ATOM     16  S   UNL     1       8.905  -4.419  24.804  0.00  0.00    -0.172 S 
ATOM     17  H   UNL     1       9.236  -5.084  23.686  0.00  0.00    +0.102 HD
ENDBRANCH   1  16
BRANCH   2  18
ATOM     18  C   UNL     1       6.671  -2.309  22.864  0.00  0.00    +0.205 C 
BRANCH  18  19
ATOM     19  O   UNL     1       5.963  -3.429  23.367  0.00  0.00    -0.284 OA
BRANCH  19  20
ATOM     20  P   UNL     1       5.623  -4.611  22.353  0.00  0.00    +0.472 P 
ATOM     21  O   UNL     1       6.513  -5.803  22.411  0.00  0.00    -0.228 OA
BRANCH  20  22
ATOM     22  O   UNL     1       5.589  -3.868  20.945  0.00  0.00    -0.303 OA
ATOM     23  H   UNL     1       5.383  -2.924  21.046  0.00  0.00    +0.222 HD
ENDBRANCH  20  22
BRANCH  20  24
ATOM     24  O   UNL     1       4.086  -4.920  22.645  0.00  0.00    -0.303 OA
ATOM     25  H   UNL     1       3.497  -4.358  22.112  0.00  0.00    +0.222 HD
ENDBRANCH  20  24
ENDBRANCH  19  20
ENDBRANCH  18  19
ENDBRANCH   2  18
TORSDOF 7
ENDMDL
MODEL 7
REMARK VINA RESULT:      -5.5      2.661      3.861
REMARK  Name = 
REMARK  8 active torsions:
REMARK  status: ('A' for Active; 'I' for Inactive)
REMARK    1  A    between atoms: C_2  and  S_3
REMARK    2  A    between atoms: C_5  and  N_16
REMARK    3  A    between atoms: C_8  and  C_10
REMARK    4  A    between atoms: C_10  and  O_11
REMARK    5  A    between atoms: O_11  and  P_12
REMARK    6  A    between atoms: P_12  and  O_13
REMARK    7  A    between atoms: P_12  and  O_14
REMARK    8  A    between atoms: C_18  and  C_19
REMARK                            x       y       z     vdW  Elec       q    Type
REMARK                         _______ _______ _______ _____ _____    ______ ____
ROOT
ATOM      1  C   UNL     1       7.378  -3.112  25.091  0.00  0.00    +0.079 C 
ATOM      2  C   UNL     1       8.174  -3.970  24.113  0.00  0.00    +0.160 C 
ATOM      3  O   UNL     1       9.488  -3.363  24.001  0.00  0.00    -0.350 OA
ATOM      4  C   UNL     1       9.499  -2.150  24.783  0.00  0.00    +0.225 C 
ATOM      5  C   UNL     1       8.483  -2.451  25.879  0.00  0.00    +0.071 C 
ENDROOT
BRANCH   4   6
ATOM      6  N   UNL     1       9.261  -1.011  23.871  0.00  0.00    -0.274 N 
ATOM      7  C   UNL     1       9.897  -0.950  22.636  0.00  0.00    +0.331 A 
ATOM      8  O   UNL     1      10.742  -1.748  22.237  0.00  0.00    -0.246 OA
ATOM      9  N   UNL     1       9.535   0.086  21.822  0.00  0.00    -0.275 N 
ATOM     10  H   UNL     1       9.977   0.115  20.917  0.00  0.00    +0.173 HD
ATOM     11  C   UNL     1       8.475   0.924  22.008  0.00  0.00    +0.257 A 
ATOM     12  O   UNL     1       8.099   1.701  21.139  0.00  0.00    -0.267 OA
ATOM     13  C   UNL     1       7.799   0.815  23.315  0.00  0.00    +0.030 A 
ATOM     14  C   UNL     1       6.686   1.770  23.594  0.00  0.00    +0.051 C 
ATOM     15  C   UNL     1       8.212  -0.143  24.157  0.00  0.00    +0.101 A 
ENDBRANCH   4   6
BRANCH   1  16
ATOM     16  S   UNL     1       6.233  -4.063  26.133  0.00  0.00    -0.172 S 
ATOM     17  H   UNL     1       5.285  -4.264  25.204  0.00  0.00    +0.102 HD
ENDBRANCH   1  16
BRANCH   2  18
ATOM     18  C   UNL     1       7.520  -4.045  22.734  0.00  0.00    +0.205 C 
BRANCH  18  19
ATOM     19  O   UNL     1       7.116  -5.385  22.509  0.00  0.00    -0.284 OA
BRANCH  19  20
ATOM     20  P   UNL     1       5.554  -5.702  22.517  0.00  0.00    +0.472 P 
ATOM     21  O   UNL     1       5.056  -6.527  23.652  0.00  0.00    -0.228 OA
BRANCH  20  22
ATOM     22  O   UNL     1       5.316  -6.335  21.075  0.00  0.00    -0.303 OA
ATOM     23  H   UNL     1       4.640  -5.845  20.578  0.00  0.00    +0.222 HD
ENDBRANCH  20  22
BRANCH  20  24
ATOM     24  O   UNL     1       4.881  -4.261  22.403  0.00  0.00    -0.303 OA
ATOM     25  H   UNL     1       3.960  -4.315  22.096  0.00  0.00    +0.222 HD
ENDBRANCH  20  24
ENDBRANCH  19  20
ENDBRANCH  18  19
ENDBRANCH   2  18
TORSDOF 7
ENDMDL
MODEL 8
REMARK VINA RESULT:      -5.5      2.953      4.919
REMARK  Name = 
REMARK  8 active torsions:
REMARK  status: ('A' for Active; 'I' for Inactive)
REMARK    1  A    between atoms: C_2  and  S_3
REMARK    2  A    between atoms: C_5  and  N_16
REMARK    3  A    between atoms: C_8  and  C_10
REMARK    4  A    between atoms: C_10  and  O_11
REMARK    5  A    between atoms: O_11  and  P_12
REMARK    6  A    between atoms: P_12  and  O_13
REMARK    7  A    between atoms: P_12  and  O_14
REMARK    8  A    between atoms: C_18  and  C_19
REMARK                            x       y       z     vdW  Elec       q    Type
REMARK                         _______ _______ _______ _____ _____    ______ ____
ROOT
ATOM      1  C   UNL     1       8.885   0.319  22.683  0.00  0.00    +0.079 C 
ATOM      2  C   UNL     1      10.188   0.095  23.444  0.00  0.00    +0.160 C 
ATOM      3  O   UNL     1      10.587  -1.277  23.191  0.00  0.00    -0.350 OA
ATOM      4  C   UNL     1       9.563  -1.913  22.398  0.00  0.00    +0.225 C 
ATOM      5  C   UNL     1       8.976  -0.744  21.615  0.00  0.00    +0.071 C 
ENDROOT
BRANCH   4   6
ATOM      6  N   UNL     1       8.688  -2.685  23.306  0.00  0.00    -0.274 N 
ATOM      7  C   UNL     1       7.439  -3.122  22.881  0.00  0.00    +0.331 A 
ATOM      8  O   UNL     1       6.927  -2.851  21.797  0.00  0.00    -0.246 OA
ATOM      9  N   UNL     1       6.748  -3.915  23.754  0.00  0.00    -0.275 N 
ATOM     10  H   UNL     1       5.853  -4.253  23.434  0.00  0.00    +0.173 HD
ATOM     11  C   UNL     1       7.244  -4.488  24.887  0.00  0.00    +0.257 A 
ATOM     12  O   UNL     1       6.625  -5.339  25.513  0.00  0.00    -0.267 OA
ATOM     13  C   UNL     1       8.585  -4.028  25.298  0.00  0.00    +0.030 A 
ATOM     14  C   UNL     1       9.133  -4.566  26.578  0.00  0.00    +0.051 C 
ATOM     15  C   UNL     1       9.232  -3.177  24.488  0.00  0.00    +0.101 A 
ENDBRANCH   4   6
BRANCH   1  16
ATOM     16  S   UNL     1       8.715   1.996  22.003  0.00  0.00    -0.172 S 
ATOM     17  H   UNL     1       9.863   2.493  22.490  0.00  0.00    +0.102 HD
ENDBRANCH   1  16
BRANCH   2  18
ATOM     18  C   UNL     1      10.033   0.320  24.947  0.00  0.00    +0.205 C 
BRANCH  18  19
ATOM     19  O   UNL     1       8.679   0.649  25.207  0.00  0.00    -0.284 OA
BRANCH  19  20
ATOM     20  P   UNL     1       7.965  -0.064  26.442  0.00  0.00    +0.472 P 
ATOM     21  O   UNL     1       6.888  -1.036  26.106  0.00  0.00    -0.228 OA
BRANCH  20  22
ATOM     22  O   UNL     1       7.499   1.167  27.338  0.00  0.00    -0.303 OA
ATOM     23  H   UNL     1       7.933   1.159  28.207  0.00  0.00    +0.222 HD
ENDBRANCH  20  22
BRANCH  20  24
ATOM     24  O   UNL     1       9.180  -0.684  27.268  0.00  0.00    -0.303 OA
ATOM     25  H   UNL     1       8.989  -1.590  27.565  0.00  0.00    +0.222 HD
ENDBRANCH  20  24
ENDBRANCH  19  20
ENDBRANCH  18  19
ENDBRANCH   2  18
TORSDOF 7
ENDMDL
MODEL 9
REMARK VINA RESULT:      -5.5      2.773      3.753
REMARK  Name = 
REMARK  8 active torsions:
REMARK  status: ('A' for Active; 'I' for Inactive)
REMARK    1  A    between atoms: C_2  and  S_3
REMARK    2  A    between atoms: C_5  and  N_16
REMARK    3  A    between atoms: C_8  and  C_10
REMARK    4  A    between atoms: C_10  and  O_11
REMARK    5  A    between atoms: O_11  and  P_12
REMARK    6  A    between atoms: P_12  and  O_13
REMARK    7  A    between atoms: P_12  and  O_14
REMARK    8  A    between atoms: C_18  and  C_19
REMARK                            x       y       z     vdW  Elec       q    Type
REMARK                         _______ _______ _______ _____ _____    ______ ____
ROOT
ATOM      1  C   UNL     1       7.970  -3.676  25.374  0.00  0.00    +0.079 C 
ATOM      2  C   UNL     1       6.548  -3.166  25.159  0.00  0.00    +0.160 C 
ATOM      3  O   UNL     1       6.431  -2.839  23.750  0.00  0.00    -0.350 OA
ATOM      4  C   UNL     1       7.717  -3.040  23.126  0.00  0.00    +0.225 C 
ATOM      5  C   UNL     1       8.335  -4.138  23.984  0.00  0.00    +0.071 C 
ENDROOT
BRANCH   4   6
ATOM      6  N   UNL     1       8.395  -1.729  23.033  0.00  0.00    -0.274 N 
ATOM      7  C   UNL     1       9.782  -1.653  22.990  0.00  0.00    +0.331 A 
ATOM      8  O   UNL     1      10.546  -2.609  23.106  0.00  0.00    -0.246 OA
ATOM      9  N   UNL     1      10.313  -0.408  22.799  0.00  0.00    -0.275 N 
ATOM     10  H   UNL     1      11.318  -0.357  22.742  0.00  0.00    +0.173 HD
ATOM     11  C   UNL     1       9.626   0.713  22.437  0.00  0.00    +0.257 A 
ATOM     12  O   UNL     1      10.194   1.743  22.097  0.00  0.00    -0.267 OA
ATOM     13  C   UNL     1       8.155   0.594  22.462  0.00  0.00    +0.030 A 
ATOM     14  C   UNL     1       7.362   1.820  22.153  0.00  0.00    +0.051 C 
ATOM     15  C   UNL     1       7.627  -0.607  22.738  0.00  0.00    +0.101 A 
ENDBRANCH   4   6
BRANCH   1  16
ATOM     16  S   UNL     1       8.093  -4.996  26.616  0.00  0.00    -0.172 S 
ATOM     17  H   UNL     1       6.940  -5.617  26.319  0.00  0.00    +0.102 HD
ENDBRANCH   1  16
BRANCH   2  18
ATOM     18  C   UNL     1       6.236  -1.933  26.004  0.00  0.00    +0.205 C 
BRANCH  18  19
ATOM     19  O   UNL     1       7.448  -1.465  26.569  0.00  0.00    -0.284 OA
BRANCH  19  20
ATOM     20  P   UNL     1       7.736   0.102  26.522  0.00  0.00    +0.472 P 
ATOM     21  O   UNL     1       6.718   0.936  25.825  0.00  0.00    -0.228 OA
BRANCH  20  22
ATOM     22  O   UNL     1       9.200   0.173  25.898  0.00  0.00    -0.303 OA
ATOM     23  H   UNL     1       9.444   1.085  25.666  0.00  0.00    +0.222 HD
ENDBRANCH  20  22
BRANCH  20  24
ATOM     24  O   UNL     1       7.967   0.485  28.053  0.00  0.00    -0.303 OA
ATOM     25  H   UNL     1       8.347  -0.256  28.556  0.00  0.00    +0.222 HD
ENDBRANCH  20  24
ENDBRANCH  19  20
ENDBRANCH  18  19
ENDBRANCH   2  18
TORSDOF 7
ENDMDL
