MODEL 1
REMARK VINA RESULT:      -4.6      0.000      0.000
REMARK  Name = 
REMARK  5 active torsions:
REMARK  status: ('A' for Active; 'I' for Inactive)
REMARK    1  A    between atoms: C_1  and  C_2
REMARK    2  A    between atoms: C_5  and  O_7
REMARK    3  A    between atoms: C_8  and  O_10
REMARK    4  A    between atoms: C_11  and  O_13
REMARK    5  A    between atoms: C_14  and  N_16
REMARK                            x       y       z     vdW  Elec       q    Type
REMARK                         _______ _______ _______ _____ _____    ______ ____
ROOT
ATOM      1  C   UNL     1       9.025  -0.848  26.134  0.00  0.00    +0.039 C 
ATOM      2  C   UNL     1       9.692  -0.130  24.967  0.00  0.00    +0.138 C 
ATOM      3  C   UNL     1       9.445  -0.843  23.618  0.00  0.00    +0.111 C 
ATOM      4  C   UNL     1      10.048  -0.004  22.471  0.00  0.00    +0.167 C 
ATOM      5  C   UNL     1       9.570   1.445  22.537  0.00  0.00    +0.200 C 
ATOM      6  C   UNL     1       9.801   2.001  23.948  0.00  0.00    +0.279 C 
ATOM      7  O   UNL     1       9.164   1.209  24.936  0.00  0.00    -0.344 OA
ENDROOT
BRANCH   3   8
ATOM      8  N   UNL     1       9.992  -2.215  23.581  0.00  0.00    -0.323 NA
ATOM      9  H   UNL     1      10.867  -2.195  24.117  0.00  0.00    +0.119 HD
ATOM     10  H   UNL     1       9.388  -2.841  24.115  0.00  0.00    +0.119 HD
ENDBRANCH   3   8
BRANCH   4  11
ATOM     11  O   UNL     1       9.697  -0.577  21.203  0.00  0.00    -0.387 OA
ATOM     12  H   UNL     1      10.538  -0.892  20.818  0.00  0.00    +0.210 HD
ENDBRANCH   4  11
BRANCH   5  13
ATOM     13  O   UNL     1      10.300   2.205  21.559  0.00  0.00    -0.384 OA
ATOM     14  H   UNL     1       9.678   2.326  20.811  0.00  0.00    +0.210 HD
ENDBRANCH   5  13
BRANCH   6  15
ATOM     15  O   UNL     1       9.240   3.307  24.003  0.00  0.00    -0.365 OA
ATOM     16  H   UNL     1       8.735   3.311  24.833  0.00  0.00    +0.213 HD
ENDBRANCH   6  15
TORSDOF 4
ENDMDL
MODEL 2
REMARK VINA RESULT:      -4.6      4.841      6.191
REMARK  Name = 
REMARK  5 active torsions:
REMARK  status: ('A' for Active; 'I' for Inactive)
REMARK    1  A    between atoms: C_1  and  C_2
REMARK    2  A    between atoms: C_5  and  O_7
REMARK    3  A    between atoms: C_8  and  O_10
REMARK    4  A    between atoms: C_11  and  O_13
REMARK    5  A    between atoms: C_14  and  N_16
REMARK                            x       y       z     vdW  Elec       q    Type
REMARK                         _______ _______ _______ _____ _____    ______ ____
ROOT
ATOM      1  C   UNL     1       5.259  -2.980  24.943  0.00  0.00    +0.039 C 
ATOM      2  C   UNL     1       6.493  -3.868  24.845  0.00  0.00    +0.138 C 
ATOM      3  C   UNL     1       7.735  -3.098  24.339  0.00  0.00    +0.111 C 
ATOM      4  C   UNL     1       8.969  -4.025  24.373  0.00  0.00    +0.167 C 
ATOM      5  C   UNL     1       9.125  -4.684  25.742  0.00  0.00    +0.200 C 
ATOM      6  C   UNL     1       7.801  -5.339  26.155  0.00  0.00    +0.279 C 
ATOM      7  O   UNL     1       6.733  -4.408  26.157  0.00  0.00    -0.344 OA
ENDROOT
BRANCH   3   8
ATOM      8  N   UNL     1       7.557  -2.544  22.981  0.00  0.00    -0.323 NA
ATOM      9  H   UNL     1       8.195  -3.064  22.368  0.00  0.00    +0.119 HD
ATOM     10  H   UNL     1       6.628  -2.781  22.631  0.00  0.00    +0.119 HD
ENDBRANCH   3   8
BRANCH   4  11
ATOM     11  O   UNL     1      10.153  -3.283  24.049  0.00  0.00    -0.387 OA
ATOM     12  H   UNL     1      10.240  -2.612  24.752  0.00  0.00    +0.210 HD
ENDBRANCH   4  11
BRANCH   5  13
ATOM     13  O   UNL     1      10.177  -5.661  25.654  0.00  0.00    -0.384 OA
ATOM     14  H   UNL     1       9.858  -6.325  25.007  0.00  0.00    +0.210 HD
ENDBRANCH   5  13
BRANCH   6  15
ATOM     15  O   UNL     1       7.952  -5.839  27.478  0.00  0.00    -0.365 OA
ATOM     16  H   UNL     1       8.824  -5.512  27.756  0.00  0.00    +0.213 HD
ENDBRANCH   6  15
TORSDOF 4
ENDMDL
MODEL 3
REMARK VINA RESULT:      -4.5      4.987      6.629
REMARK  Name = 
REMARK  5 active torsions:
REMARK  status: ('A' for Active; 'I' for Inactive)
REMARK    1  A    between atoms: C_1  and  C_2
REMARK    2  A    between atoms: C_5  and  O_7
REMARK    3  A    between atoms: C_8  and  O_10
REMARK    4  A    between atoms: C_11  and  O_13
REMARK    5  A    between atoms: C_14  and  N_16
REMARK                            x       y       z     vdW  Elec       q    Type
REMARK                         _______ _______ _______ _____ _____    ______ ____
ROOT
ATOM      1  C   UNL     1       8.215  -2.604  22.596  0.00  0.00    +0.039 C 
ATOM      2  C   UNL     1       8.182  -3.141  24.022  0.00  0.00    +0.138 C 
ATOM      3  C   UNL     1       6.798  -3.716  24.403  0.00  0.00    +0.111 C 
ATOM      4  C   UNL     1       6.868  -4.343  25.812  0.00  0.00    +0.167 C 
ATOM      5  C   UNL     1       8.033  -5.326  25.920  0.00  0.00    +0.200 C 
ATOM      6  C   UNL     1       9.324  -4.652  25.437  0.00  0.00    +0.279 C 
ATOM      7  O   UNL     1       9.196  -4.159  24.115  0.00  0.00    -0.344 OA
ENDROOT
BRANCH   3   8
ATOM      8  N   UNL     1       5.720  -2.708  24.352  0.00  0.00    -0.323 NA
ATOM      9  H   UNL     1       5.323  -2.657  25.297  0.00  0.00    +0.119 HD
ATOM     10  H   UNL     1       6.121  -1.781  24.202  0.00  0.00    +0.119 HD
ENDBRANCH   3   8
BRANCH   4  11
ATOM     11  O   UNL     1       5.636  -5.011  26.117  0.00  0.00    -0.387 OA
ATOM     12  H   UNL     1       5.731  -5.912  25.755  0.00  0.00    +0.210 HD
ENDBRANCH   4  11
BRANCH   5  13
ATOM     13  O   UNL     1       8.150  -5.735  27.294  0.00  0.00    -0.384 OA
ATOM     14  H   UNL     1       7.851  -6.668  27.311  0.00  0.00    +0.210 HD
ENDBRANCH   5  13
BRANCH   6  15
ATOM     15  O   UNL     1      10.358  -5.629  25.444  0.00  0.00    -0.365 OA
ATOM     16  H   UNL     1      10.012  -6.342  24.882  0.00  0.00    +0.213 HD
ENDBRANCH   6  15
TORSDOF 4
ENDMDL
MODEL 4
REMARK VINA RESULT:      -4.4      1.882      2.837
REMARK  Name = 
REMARK  5 active torsions:
REMARK  status: ('A' for Active; 'I' for Inactive)
REMARK    1  A    between atoms: C_1  and  C_2
REMARK    2  A    between atoms: C_5  and  O_7
REMARK    3  A    between atoms: C_8  and  O_10
REMARK    4  A    between atoms: C_11  and  O_13
REMARK    5  A    between atoms: C_14  and  N_16
REMARK                            x       y       z     vdW  Elec       q    Type
REMARK                         _______ _______ _______ _____ _____    ______ ____
ROOT
ATOM      1  C   UNL     1       8.346   2.494  25.112  0.00  0.00    +0.039 C 
ATOM      2  C   UNL     1       9.169   1.517  24.282  0.00  0.00    +0.138 C 
ATOM      3  C   UNL     1       9.063   0.065  24.804  0.00  0.00    +0.111 C 
ATOM      4  C   UNL     1       9.824  -0.883  23.854  0.00  0.00    +0.167 C 
ATOM      5  C   UNL     1       9.387  -0.679  22.404  0.00  0.00    +0.200 C 
ATOM      6  C   UNL     1       9.465   0.810  22.045  0.00  0.00    +0.279 C 
ATOM      7  O   UNL     1       8.691   1.604  22.927  0.00  0.00    -0.344 OA
ENDROOT
BRANCH   3   8
ATOM      8  N   UNL     1       9.567  -0.090  26.184  0.00  0.00    -0.323 NA
ATOM      9  H   UNL     1       9.162  -0.961  26.546  0.00  0.00    +0.119 HD
ATOM     10  H   UNL     1      10.571  -0.273  26.166  0.00  0.00    +0.119 HD
ENDBRANCH   3   8
BRANCH   4  11
ATOM     11  O   UNL     1       9.610  -2.248  24.242  0.00  0.00    -0.387 OA
ATOM     12  H   UNL     1       8.871  -2.563  23.687  0.00  0.00    +0.210 HD
ENDBRANCH   4  11
BRANCH   5  13
ATOM     13  O   UNL     1      10.252  -1.458  21.559  0.00  0.00    -0.384 OA
ATOM     14  H   UNL     1      11.158  -1.147  21.761  0.00  0.00    +0.210 HD
ENDBRANCH   5  13
BRANCH   6  15
ATOM     15  O   UNL     1       8.942   0.974  20.733  0.00  0.00    -0.365 OA
ATOM     16  H   UNL     1       8.299   0.250  20.643  0.00  0.00    +0.213 HD
ENDBRANCH   6  15
TORSDOF 4
ENDMDL
MODEL 5
REMARK VINA RESULT:      -4.4      1.932      3.449
REMARK  Name = 
REMARK  5 active torsions:
REMARK  status: ('A' for Active; 'I' for Inactive)
REMARK    1  A    between atoms: C_1  and  C_2
REMARK    2  A    between atoms: C_5  and  O_7
REMARK    3  A    between atoms: C_8  and  O_10
REMARK    4  A    between atoms: C_11  and  O_13
REMARK    5  A    between atoms: C_14  and  N_16
REMARK                            x       y       z     vdW  Elec       q    Type
REMARK                         _______ _______ _______ _____ _____    ______ ____
ROOT
ATOM      1  C   UNL     1       9.868   1.511  21.956  0.00  0.00    +0.039 C 
ATOM      2  C   UNL     1       9.224   0.448  22.837  0.00  0.00    +0.138 C 
ATOM      3  C   UNL     1      10.009  -0.884  22.825  0.00  0.00    +0.111 C 
ATOM      4  C   UNL     1       9.369  -1.872  23.823  0.00  0.00    +0.167 C 
ATOM      5  C   UNL     1       9.195  -1.232  25.199  0.00  0.00    +0.200 C 
ATOM      6  C   UNL     1       8.474   0.114  25.055  0.00  0.00    +0.279 C 
ATOM      7  O   UNL     1       9.158   0.985  24.171  0.00  0.00    -0.344 OA
ENDROOT
BRANCH   3   8
ATOM      8  N   UNL     1      10.085  -1.498  21.484  0.00  0.00    -0.323 NA
ATOM      9  H   UNL     1       9.117  -1.672  21.188  0.00  0.00    +0.119 HD
ATOM     10  H   UNL     1      10.431  -0.814  20.811  0.00  0.00    +0.119 HD
ENDBRANCH   3   8
BRANCH   4  11
ATOM     11  O   UNL     1      10.173  -3.055  23.933  0.00  0.00    -0.387 OA
ATOM     12  H   UNL     1      10.802  -2.876  24.658  0.00  0.00    +0.210 HD
ENDBRANCH   4  11
BRANCH   5  13
ATOM     13  O   UNL     1       8.438  -2.135  26.024  0.00  0.00    -0.384 OA
ATOM     14  H   UNL     1       7.621  -2.322  25.517  0.00  0.00    +0.210 HD
ENDBRANCH   5  13
BRANCH   6  15
ATOM     15  O   UNL     1       8.434   0.731  26.337  0.00  0.00    -0.365 OA
ATOM     16  H   UNL     1       9.312   1.139  26.429  0.00  0.00    +0.213 HD
ENDBRANCH   6  15
TORSDOF 4
ENDMDL
MODEL 6
REMARK VINA RESULT:      -4.4      4.432      5.487
REMARK  Name = 
REMARK  5 active torsions:
REMARK  status: ('A' for Active; 'I' for Inactive)
REMARK    1  A    between atoms: C_1  and  C_2
REMARK    2  A    between atoms: C_5  and  O_7
REMARK    3  A    between atoms: C_8  and  O_10
REMARK    4  A    between atoms: C_11  and  O_13
REMARK    5  A    between atoms: C_14  and  N_16
REMARK                            x       y       z     vdW  Elec       q    Type
REMARK                         _______ _______ _______ _____ _____    ______ ____
ROOT
ATOM      1  C   UNL     1       5.479  -4.272  26.877  0.00  0.00    +0.039 C 
ATOM      2  C   UNL     1       6.875  -3.885  26.404  0.00  0.00    +0.138 C 
ATOM      3  C   UNL     1       7.783  -5.116  26.178  0.00  0.00    +0.111 C 
ATOM      4  C   UNL     1       9.136  -4.661  25.592  0.00  0.00    +0.167 C 
ATOM      5  C   UNL     1       8.935  -3.767  24.369  0.00  0.00    +0.200 C 
ATOM      6  C   UNL     1       7.955  -2.638  24.709  0.00  0.00    +0.279 C 
ATOM      7  O   UNL     1       6.717  -3.141  25.181  0.00  0.00    -0.344 OA
ENDROOT
BRANCH   3   8
ATOM      8  N   UNL     1       8.004  -5.904  27.407  0.00  0.00    -0.323 NA
ATOM      9  H   UNL     1       7.777  -5.286  28.195  0.00  0.00    +0.119 HD
ATOM     10  H   UNL     1       7.310  -6.649  27.469  0.00  0.00    +0.119 HD
ENDBRANCH   3   8
BRANCH   4  11
ATOM     11  O   UNL     1       9.931  -5.802  25.238  0.00  0.00    -0.387 OA
ATOM     12  H   UNL     1      10.619  -5.463  24.634  0.00  0.00    +0.210 HD
ENDBRANCH   4  11
BRANCH   5  13
ATOM     13  O   UNL     1      10.216  -3.238  23.983  0.00  0.00    -0.384 OA
ATOM     14  H   UNL     1      10.704  -3.998  23.603  0.00  0.00    +0.210 HD
ENDBRANCH   5  13
BRANCH   6  15
ATOM     15  O   UNL     1       7.705  -1.900  23.520  0.00  0.00    -0.365 OA
ATOM     16  H   UNL     1       8.532  -1.977  23.016  0.00  0.00    +0.213 HD
ENDBRANCH   6  15
TORSDOF 4
ENDMDL
MODEL 7
REMARK VINA RESULT:      -4.3      1.993      3.283
REMARK  Name = 
REMARK  5 active torsions:
REMARK  status: ('A' for Active; 'I' for Inactive)
REMARK    1  A    between atoms: C_1  and  C_2
REMARK    2  A    between atoms: C_5  and  O_7
REMARK    3  A    between atoms: C_8  and  O_10
REMARK    4  A    between atoms: C_11  and  O_13
REMARK    5  A    between atoms: C_14  and  N_16
REMARK                            x       y       z     vdW  Elec       q    Type
REMARK                         _______ _______ _______ _____ _____    ______ ____
ROOT
ATOM      1  C   UNL     1       9.003   3.100  23.265  0.00  0.00    +0.039 C 
ATOM      2  C   UNL     1       8.822   1.598  23.448  0.00  0.00    +0.138 C 
ATOM      3  C   UNL     1       9.567   0.778  22.370  0.00  0.00    +0.111 C 
ATOM      4  C   UNL     1       9.436  -0.728  22.682  0.00  0.00    +0.167 C 
ATOM      5  C   UNL     1       9.841  -1.029  24.124  0.00  0.00    +0.200 C 
ATOM      6  C   UNL     1       9.088  -0.094  25.079  0.00  0.00    +0.279 C 
ATOM      7  O   UNL     1       9.310   1.269  24.762  0.00  0.00    -0.344 OA
ENDROOT
BRANCH   3   8
ATOM      8  N   UNL     1       9.087   1.054  21.001  0.00  0.00    -0.323 NA
ATOM      9  H   UNL     1       9.921   1.116  20.406  0.00  0.00    +0.119 HD
ATOM     10  H   UNL     1       8.586   0.241  20.641  0.00  0.00    +0.119 HD
ENDBRANCH   3   8
BRANCH   4  11
ATOM     11  O   UNL     1      10.245  -1.492  21.777  0.00  0.00    -0.387 OA
ATOM     12  H   UNL     1      10.115  -2.425  22.035  0.00  0.00    +0.210 HD
ENDBRANCH   4  11
BRANCH   5  13
ATOM     13  O   UNL     1       9.529  -2.406  24.401  0.00  0.00    -0.384 OA
ATOM     14  H   UNL     1       8.842  -2.379  25.099  0.00  0.00    +0.210 HD
ENDBRANCH   5  13
BRANCH   6  15
ATOM     15  O   UNL     1       9.575  -0.325  26.395  0.00  0.00    -0.365 OA
ATOM     16  H   UNL     1      10.486  -0.633  26.258  0.00  0.00    +0.213 HD
ENDBRANCH   6  15
TORSDOF 4
ENDMDL
MODEL 8
REMARK VINA RESULT:      -4.2      5.823      7.217
REMARK  Name = 
REMARK  5 active torsions:
REMARK  status: ('A' for Active; 'I' for Inactive)
REMARK    1  A    between atoms: C_1  and  C_2
REMARK    2  A    between atoms: C_5  and  O_7
REMARK    3  A    between atoms: C_8  and  O_10
REMARK    4  A    between atoms: C_11  and  O_13
REMARK    5  A    between atoms: C_14  and  N_16
REMARK                            x       y       z     vdW  Elec       q    Type
REMARK                         _______ _______ _______ _____ _____    ______ ____
ROOT
ATOM      1  C   UNL     1       7.226  -3.731  22.891  0.00  0.00    +0.039 C 
ATOM      2  C   UNL     1       7.434  -4.662  24.079  0.00  0.00    +0.138 C 
ATOM      3  C   UNL     1       8.589  -4.199  24.997  0.00  0.00    +0.111 C 
ATOM      4  C   UNL     1       8.669  -5.118  26.234  0.00  0.00    +0.167 C 
ATOM      5  C   UNL     1       7.308  -5.244  26.916  0.00  0.00    +0.200 C 
ATOM      6  C   UNL     1       6.244  -5.630  25.880  0.00  0.00    +0.279 C 
ATOM      7  O   UNL     1       6.194  -4.703  24.809  0.00  0.00    -0.344 OA
ENDROOT
BRANCH   3   8
ATOM      8  N   UNL     1       9.896  -4.165  24.308  0.00  0.00    -0.323 NA
ATOM      9  H   UNL     1      10.277  -3.223  24.452  0.00  0.00    +0.119 HD
ATOM     10  H   UNL     1      10.555  -4.777  24.789  0.00  0.00    +0.119 HD
ENDBRANCH   3   8
BRANCH   4  11
ATOM     11  O   UNL     1       9.637  -4.612  27.164  0.00  0.00    -0.387 OA
ATOM     12  H   UNL     1       9.957  -3.775  26.777  0.00  0.00    +0.210 HD
ENDBRANCH   4  11
BRANCH   5  13
ATOM     13  O   UNL     1       7.410  -6.244  27.944  0.00  0.00    -0.384 OA
ATOM     14  H   UNL     1       8.316  -6.149  28.306  0.00  0.00    +0.210 HD
ENDBRANCH   5  13
BRANCH   6  15
ATOM     15  O   UNL     1       4.978  -5.624  26.526  0.00  0.00    -0.365 OA
ATOM     16  H   UNL     1       4.339  -5.651  25.794  0.00  0.00    +0.213 HD
ENDBRANCH   6  15
TORSDOF 4
ENDMDL
MODEL 9
REMARK VINA RESULT:      -4.1      7.532      8.841
REMARK  Name = 
REMARK  5 active torsions:
REMARK  status: ('A' for Active; 'I' for Inactive)
REMARK    1  A    between atoms: C_1  and  C_2
REMARK    2  A    between atoms: C_5  and  O_7
REMARK    3  A    between atoms: C_8  and  O_10
REMARK    4  A    between atoms: C_11  and  O_13
REMARK    5  A    between atoms: C_14  and  N_16
REMARK                            x       y       z     vdW  Elec       q    Type
REMARK                         _______ _______ _______ _____ _____    ______ ____
ROOT
ATOM      1  C   UNL     1       7.375  -4.915  23.231  0.00  0.00    +0.039 C 
ATOM      2  C   UNL     1       6.189  -5.251  24.127  0.00  0.00    +0.138 C 
ATOM      3  C   UNL     1       5.305  -6.375  23.538  0.00  0.00    +0.111 C 
ATOM      4  C   UNL     1       4.195  -6.742  24.546  0.00  0.00    +0.167 C 
ATOM      5  C   UNL     1       4.778  -7.029  25.928  0.00  0.00    +0.200 C 
ATOM      6  C   UNL     1       5.693  -5.874  26.354  0.00  0.00    +0.279 C 
ATOM      7  O   UNL     1       6.721  -5.643  25.406  0.00  0.00    -0.344 OA
ENDROOT
BRANCH   3   8
ATOM      8  N   UNL     1       4.707  -6.017  22.236  0.00  0.00    -0.323 NA
ATOM      9  H   UNL     1       4.079  -6.788  21.982  0.00  0.00    +0.119 HD
ATOM     10  H   UNL     1       4.084  -5.217  22.351  0.00  0.00    +0.119 HD
ENDBRANCH   3   8
BRANCH   4  11
ATOM     11  O   UNL     1       3.460  -7.882  24.078  0.00  0.00    -0.387 OA
ATOM     12  H   UNL     1       3.543  -8.552  24.784  0.00  0.00    +0.210 HD
ENDBRANCH   4  11
BRANCH   5  13
ATOM     13  O   UNL     1       3.687  -7.188  26.853  0.00  0.00    -0.384 OA
ATOM     14  H   UNL     1       3.037  -6.497  26.605  0.00  0.00    +0.210 HD
ENDBRANCH   5  13
BRANCH   6  15
ATOM     15  O   UNL     1       6.305  -6.230  27.587  0.00  0.00    -0.365 OA
ATOM     16  H   UNL     1       6.690  -7.106  27.416  0.00  0.00    +0.213 HD
ENDBRANCH   6  15
TORSDOF 4
ENDMDL
