MODEL 1
REMARK VINA RESULT:      -6.9      0.000      0.000
REMARK  Name = 
REMARK  18 active torsions:
REMARK  status: ('A' for Active; 'I' for Inactive)
REMARK    1  A    between atoms: O_1  and  C_2
REMARK    2  A    between atoms: C_4  and  C_6
REMARK    3  A    between atoms: C_6  and  O_7
REMARK    4  A    between atoms: O_7  and  P_8
REMARK    5  A    between atoms: P_8  and  O_9
REMARK    6  A    between atoms: P_8  and  O_11
REMARK    7  A    between atoms: O_11  and  P_12
REMARK    8  A    between atoms: P_12  and  O_13
REMARK    9  A    between atoms: P_12  and  O_15
REMARK   10  A    between atoms: O_15  and  C_16
REMARK   11  A    between atoms: C_19  and  C_21
REMARK   12  A    between atoms: C_21  and  S_22
REMARK   13  A    between atoms: S_22  and  O_23
REMARK   14  A    between atoms: C_26  and  O_28
REMARK   15  A    between atoms: C_29  and  O_31
REMARK   16  A    between atoms: C_32  and  O_34
REMARK   17  A    between atoms: C_36  and  N_41
REMARK   18  A    between atoms: C_38  and  O_40
REMARK                            x       y       z     vdW  Elec       q    Type
REMARK                         _______ _______ _______ _____ _____    ______ ____
ROOT
ATOM      1  P   UNL     1      10.133  -0.330  22.262  0.00  0.00    +0.483 P 
ATOM      2  O   UNL     1      10.571   0.379  23.557  0.00  0.00    -0.227 OA
ENDROOT
BRANCH   1   3
ATOM      3  O   UNL     1      10.674  -1.821  22.953  0.00  0.00    -0.302 OA
ATOM      4  H   UNL     1       9.941  -2.456  22.857  0.00  0.00    +0.222 HD
ENDBRANCH   1   3
BRANCH   1   5
ATOM      5  O   UNL     1       9.593   1.161  21.571  0.00  0.00    -0.186 OA
BRANCH   5   6
ATOM      6  P   UNL     1       8.527   1.957  22.677  0.00  0.00    +0.486 P 
ATOM      7  O   UNL     1       7.681   2.253  21.435  0.00  0.00    -0.227 OA
BRANCH   6   8
ATOM      8  O   UNL     1       9.483   3.271  22.809  0.00  0.00    -0.302 OA
ATOM      9  H   UNL     1       9.711   3.552  23.715  0.00  0.00    +0.222 HD
ENDBRANCH   6   8
BRANCH   6  10
ATOM     10  O   UNL     1       7.461   2.753  23.783  0.00  0.00    -0.254 OA
BRANCH  10  11
ATOM     11  C   UNL     1       6.130   2.142  23.683  0.00  0.00    +0.293 C 
ATOM     12  C   UNL     1       4.927   2.873  24.290  0.00  0.00    +0.202 C 
ATOM     13  C   UNL     1       4.641   2.498  25.741  0.00  0.00    +0.179 C 
ATOM     14  C   UNL     1       5.049   1.073  26.184  0.00  0.00    +0.176 C 
ATOM     15  C   UNL     1       6.111   0.332  25.349  0.00  0.00    +0.176 C 
ATOM     16  O   UNL     1       6.098   0.732  23.972  0.00  0.00    -0.341 OA
BRANCH  14  17
ATOM     17  O   UNL     1       3.852   0.258  26.171  0.00  0.00    -0.387 OA
ATOM     18  H   UNL     1       3.975  -0.457  25.516  0.00  0.00    +0.210 HD
ENDBRANCH  14  17
BRANCH  13  19
ATOM     19  O   UNL     1       5.248   3.502  26.559  0.00  0.00    -0.386 OA
ATOM     20  H   UNL     1       4.632   4.247  26.658  0.00  0.00    +0.210 HD
ENDBRANCH  13  19
BRANCH  12  21
ATOM     21  O   UNL     1       3.754   2.502  23.517  0.00  0.00    -0.384 OA
ATOM     22  H   UNL     1       4.062   2.162  22.658  0.00  0.00    +0.210 HD
ENDBRANCH  12  21
BRANCH  15  23
ATOM     23  C   UNL     1       7.565   0.287  25.787  0.00  0.00    +0.232 C 
BRANCH  23  24
ATOM     24  S   UNL     1       8.177  -1.210  26.510  0.00  0.00    +0.082 S 
ATOM     25  O   UNL     1       7.089  -2.129  26.740  0.00  0.00    -0.147 OA
ATOM     26  O   UNL     1       9.108  -0.854  27.556  0.00  0.00    -0.147 OA
BRANCH  24  27
ATOM     27  O   UNL     1       9.084  -1.758  25.296  0.00  0.00    -0.254 OA
ATOM     28  H   UNL     1       8.481  -2.062  24.581  0.00  0.00    +0.244 HD
ENDBRANCH  24  27
ENDBRANCH  23  24
ENDBRANCH  15  23
ENDBRANCH  10  11
ENDBRANCH   6  10
ENDBRANCH   5   6
ENDBRANCH   1   5
BRANCH   1  29
ATOM     29  O   UNL     1       8.573  -0.791  22.551  0.00  0.00    -0.284 OA
BRANCH  29  30
ATOM     30  C   UNL     1       7.975  -1.794  21.747  0.00  0.00    +0.206 C 
BRANCH  30  35
ATOM     31  C   UNL     1       6.594  -3.888  21.691  0.00  0.00    +0.178 C 
ATOM     32  C   UNL     1       6.619  -5.154  22.535  0.00  0.00    +0.195 C 
ATOM     33  C   UNL     1       7.780  -4.907  23.525  0.00  0.00    +0.255 C 
ATOM     34  O   UNL     1       8.265  -3.568  23.354  0.00  0.00    -0.346 OA
ATOM     35  C   UNL     1       7.287  -2.864  22.577  0.00  0.00    +0.178 C 
BRANCH  33  36
ATOM     36  N   UNL     1       7.513  -5.115  24.953  0.00  0.00    -0.271 N 
ATOM     37  C   UNL     1       8.560  -5.326  25.848  0.00  0.00    +0.331 A 
ATOM     38  O   UNL     1       9.745  -5.333  25.547  0.00  0.00    -0.246 OA
ATOM     39  N   UNL     1       8.199  -5.551  27.148  0.00  0.00    -0.275 N 
ATOM     40  H   UNL     1       8.960  -5.677  27.802  0.00  0.00    +0.173 HD
ATOM     41  C   UNL     1       6.928  -5.650  27.627  0.00  0.00    +0.254 A 
ATOM     42  O   UNL     1       6.669  -5.823  28.814  0.00  0.00    -0.268 OA
ATOM     43  C   UNL     1       5.868  -5.508  26.625  0.00  0.00    +0.088 A 
ATOM     44  C   UNL     1       6.199  -5.256  25.359  0.00  0.00    +0.098 A 
ENDBRANCH  33  36
BRANCH  31  45
ATOM     45  O   UNL     1       5.264  -3.496  21.360  0.00  0.00    -0.386 OA
ATOM     46  H   UNL     1       5.144  -2.558  21.624  0.00  0.00    +0.210 HD
ENDBRANCH  31  45
BRANCH  32  47
ATOM     47  O   UNL     1       6.907  -6.285  21.690  0.00  0.00    -0.385 OA
ATOM     48  H   UNL     1       6.258  -6.270  20.966  0.00  0.00    +0.210 HD
ENDBRANCH  32  47
ENDBRANCH  30  35
ENDBRANCH  29  30
ENDBRANCH   1  29
TORSDOF 18
ENDMDL
MODEL 2
REMARK VINA RESULT:      -6.9      2.478      5.187
REMARK  Name = 
REMARK  18 active torsions:
REMARK  status: ('A' for Active; 'I' for Inactive)
REMARK    1  A    between atoms: O_1  and  C_2
REMARK    2  A    between atoms: C_4  and  C_6
REMARK    3  A    between atoms: C_6  and  O_7
REMARK    4  A    between atoms: O_7  and  P_8
REMARK    5  A    between atoms: P_8  and  O_9
REMARK    6  A    between atoms: P_8  and  O_11
REMARK    7  A    between atoms: O_11  and  P_12
REMARK    8  A    between atoms: P_12  and  O_13
REMARK    9  A    between atoms: P_12  and  O_15
REMARK   10  A    between atoms: O_15  and  C_16
REMARK   11  A    between atoms: C_19  and  C_21
REMARK   12  A    between atoms: C_21  and  S_22
REMARK   13  A    between atoms: S_22  and  O_23
REMARK   14  A    between atoms: C_26  and  O_28
REMARK   15  A    between atoms: C_29  and  O_31
REMARK   16  A    between atoms: C_32  and  O_34
REMARK   17  A    between atoms: C_36  and  N_41
REMARK   18  A    between atoms: C_38  and  O_40
REMARK                            x       y       z     vdW  Elec       q    Type
REMARK                         _______ _______ _______ _____ _____    ______ ____
ROOT
ATOM      1  P   UNL     1       4.361   0.004  27.073  0.00  0.00    +0.483 P 
ATOM      2  O   UNL     1       4.896   0.142  25.635  0.00  0.00    -0.227 OA
ENDROOT
BRANCH   1   3
ATOM      3  O   UNL     1       3.185  -1.116  26.475  0.00  0.00    -0.302 OA
ATOM      4  H   UNL     1       2.832  -1.591  27.250  0.00  0.00    +0.222 HD
ENDBRANCH   1   3
BRANCH   1   5
ATOM      5  O   UNL     1       5.536   1.124  27.669  0.00  0.00    -0.186 OA
BRANCH   5   6
ATOM      6  P   UNL     1       7.011   0.939  26.784  0.00  0.00    +0.486 P 
ATOM      7  O   UNL     1       7.494   0.168  28.016  0.00  0.00    -0.227 OA
BRANCH   6   8
ATOM      8  O   UNL     1       7.496   2.468  27.078  0.00  0.00    -0.302 OA
ATOM      9  H   UNL     1       8.099   2.865  26.423  0.00  0.00    +0.222 HD
ENDBRANCH   6   8
BRANCH   6  10
ATOM     10  O   UNL     1       8.486   0.755  25.899  0.00  0.00    -0.254 OA
BRANCH  10  11
ATOM     11  C   UNL     1       8.588   1.840  24.915  0.00  0.00    +0.293 C 
ATOM     12  C   UNL     1       7.357   2.204  24.076  0.00  0.00    +0.202 C 
ATOM     13  C   UNL     1       7.259   1.445  22.757  0.00  0.00    +0.179 C 
ATOM     14  C   UNL     1       8.592   0.996  22.112  0.00  0.00    +0.176 C 
ATOM     15  C   UNL     1       9.834   0.892  23.018  0.00  0.00    +0.176 C 
ATOM     16  O   UNL     1       9.786   1.811  24.118  0.00  0.00    -0.341 OA
BRANCH  14  17
ATOM     17  O   UNL     1       8.907   1.947  21.066  0.00  0.00    -0.387 OA
ATOM     18  H   UNL     1       8.317   2.719  21.165  0.00  0.00    +0.210 HD
ENDBRANCH  14  17
BRANCH  13  19
ATOM     19  O   UNL     1       6.378   0.340  22.975  0.00  0.00    -0.386 OA
ATOM     20  H   UNL     1       6.657  -0.404  22.416  0.00  0.00    +0.210 HD
ENDBRANCH  13  19
BRANCH  12  21
ATOM     21  O   UNL     1       7.454   3.616  23.747  0.00  0.00    -0.384 OA
ATOM     22  H   UNL     1       6.547   3.955  23.634  0.00  0.00    +0.210 HD
ENDBRANCH  12  21
BRANCH  15  23
ATOM     23  C   UNL     1      10.292  -0.446  23.574  0.00  0.00    +0.232 C 
BRANCH  23  24
ATOM     24  S   UNL     1       9.328  -1.883  23.201  0.00  0.00    +0.082 S 
ATOM     25  O   UNL     1       9.362  -2.148  21.784  0.00  0.00    -0.147 OA
ATOM     26  O   UNL     1       8.083  -1.789  23.929  0.00  0.00    -0.147 OA
BRANCH  24  27
ATOM     27  O   UNL     1      10.189  -3.008  23.970  0.00  0.00    -0.254 OA
ATOM     28  H   UNL     1       9.979  -3.879  23.564  0.00  0.00    +0.244 HD
ENDBRANCH  24  27
ENDBRANCH  23  24
ENDBRANCH  15  23
ENDBRANCH  10  11
ENDBRANCH   6  10
ENDBRANCH   5   6
ENDBRANCH   1   5
BRANCH   1  29
ATOM     29  O   UNL     1       5.208  -1.264  27.709  0.00  0.00    -0.284 OA
BRANCH  29  30
ATOM     30  C   UNL     1       4.840  -2.593  27.380  0.00  0.00    +0.206 C 
BRANCH  30  35
ATOM     31  C   UNL     1       7.097  -3.551  26.845  0.00  0.00    +0.178 C 
ATOM     32  C   UNL     1       7.535  -4.700  25.948  0.00  0.00    +0.195 C 
ATOM     33  C   UNL     1       6.204  -5.244  25.379  0.00  0.00    +0.255 C 
ATOM     34  O   UNL     1       5.132  -4.388  25.797  0.00  0.00    -0.346 OA
ATOM     35  C   UNL     1       5.726  -3.184  26.296  0.00  0.00    +0.178 C 
BRANCH  33  36
ATOM     36  N   UNL     1       6.107  -5.419  23.925  0.00  0.00    -0.271 N 
ATOM     37  C   UNL     1       5.104  -6.212  23.370  0.00  0.00    +0.331 A 
ATOM     38  O   UNL     1       4.237  -6.789  24.011  0.00  0.00    -0.246 OA
ATOM     39  N   UNL     1       5.129  -6.342  22.009  0.00  0.00    -0.275 N 
ATOM     40  H   UNL     1       4.385  -6.896  21.605  0.00  0.00    +0.173 HD
ATOM     41  C   UNL     1       6.066  -5.828  21.166  0.00  0.00    +0.254 A 
ATOM     42  O   UNL     1       6.016  -5.955  19.947  0.00  0.00    -0.268 OA
ATOM     43  C   UNL     1       7.147  -5.078  21.813  0.00  0.00    +0.088 A 
ATOM     44  C   UNL     1       7.123  -4.912  23.135  0.00  0.00    +0.098 A 
ENDBRANCH  33  36
BRANCH  31  45
ATOM     45  O   UNL     1       8.007  -2.456  26.788  0.00  0.00    -0.386 OA
ATOM     46  H   UNL     1       7.719  -1.781  27.440  0.00  0.00    +0.210 HD
ENDBRANCH  31  45
BRANCH  32  47
ATOM     47  O   UNL     1       8.191  -5.705  26.745  0.00  0.00    -0.385 OA
ATOM     48  H   UNL     1       8.720  -6.249  26.136  0.00  0.00    +0.210 HD
ENDBRANCH  32  47
ENDBRANCH  30  35
ENDBRANCH  29  30
ENDBRANCH   1  29
TORSDOF 18
ENDMDL
MODEL 3
REMARK VINA RESULT:      -6.8      2.727      6.286
REMARK  Name = 
REMARK  18 active torsions:
REMARK  status: ('A' for Active; 'I' for Inactive)
REMARK    1  A    between atoms: O_1  and  C_2
REMARK    2  A    between atoms: C_4  and  C_6
REMARK    3  A    between atoms: C_6  and  O_7
REMARK    4  A    between atoms: O_7  and  P_8
REMARK    5  A    between atoms: P_8  and  O_9
REMARK    6  A    between atoms: P_8  and  O_11
REMARK    7  A    between atoms: O_11  and  P_12
REMARK    8  A    between atoms: P_12  and  O_13
REMARK    9  A    between atoms: P_12  and  O_15
REMARK   10  A    between atoms: O_15  and  C_16
REMARK   11  A    between atoms: C_19  and  C_21
REMARK   12  A    between atoms: C_21  and  S_22
REMARK   13  A    between atoms: S_22  and  O_23
REMARK   14  A    between atoms: C_26  and  O_28
REMARK   15  A    between atoms: C_29  and  O_31
REMARK   16  A    between atoms: C_32  and  O_34
REMARK   17  A    between atoms: C_36  and  N_41
REMARK   18  A    between atoms: C_38  and  O_40
REMARK                            x       y       z     vdW  Elec       q    Type
REMARK                         _______ _______ _______ _____ _____    ______ ____
ROOT
ATOM      1  P   UNL     1       4.917   0.502  25.895  0.00  0.00    +0.483 P 
ATOM      2  O   UNL     1       3.696   1.241  26.473  0.00  0.00    -0.227 OA
ENDROOT
BRANCH   1   3
ATOM      3  O   UNL     1       4.749   1.452  24.459  0.00  0.00    -0.302 OA
ATOM      4  H   UNL     1       4.926   0.857  23.707  0.00  0.00    +0.222 HD
ENDBRANCH   1   3
BRANCH   1   5
ATOM      5  O   UNL     1       5.083  -0.449  27.330  0.00  0.00    -0.186 OA
BRANCH   5   6
ATOM      6  P   UNL     1       4.485  -2.045  27.038  0.00  0.00    +0.486 P 
ATOM      7  O   UNL     1       4.240  -2.083  28.550  0.00  0.00    -0.227 OA
BRANCH   6   8
ATOM      8  O   UNL     1       5.976  -2.683  26.877  0.00  0.00    -0.302 OA
ATOM      9  H   UNL     1       6.633  -2.135  26.408  0.00  0.00    +0.222 HD
ENDBRANCH   6   8
BRANCH   6  10
ATOM     10  O   UNL     1       3.886  -3.642  26.746  0.00  0.00    -0.254 OA
BRANCH  10  11
ATOM     11  C   UNL     1       4.397  -4.111  25.452  0.00  0.00    +0.293 C 
ATOM     12  C   UNL     1       3.402  -4.443  24.334  0.00  0.00    +0.202 C 
ATOM     13  C   UNL     1       2.945  -5.898  24.322  0.00  0.00    +0.179 C 
ATOM     14  C   UNL     1       3.941  -6.944  24.876  0.00  0.00    +0.176 C 
ATOM     15  C   UNL     1       5.058  -6.453  25.817  0.00  0.00    +0.176 C 
ATOM     16  O   UNL     1       5.442  -5.098  25.546  0.00  0.00    -0.341 OA
BRANCH  14  17
ATOM     17  O   UNL     1       4.586  -7.570  23.740  0.00  0.00    -0.387 OA
ATOM     18  H   UNL     1       5.354  -8.079  24.065  0.00  0.00    +0.210 HD
ENDBRANCH  14  17
BRANCH  13  19
ATOM     19  O   UNL     1       1.690  -5.948  25.007  0.00  0.00    -0.386 OA
ATOM     20  H   UNL     1       1.614  -5.172  25.587  0.00  0.00    +0.210 HD
ENDBRANCH  13  19
BRANCH  12  21
ATOM     21  O   UNL     1       4.070  -4.198  23.067  0.00  0.00    -0.384 OA
ATOM     22  H   UNL     1       4.052  -5.029  22.559  0.00  0.00    +0.210 HD
ENDBRANCH  12  21
BRANCH  15  23
ATOM     23  C   UNL     1       4.933  -6.588  27.325  0.00  0.00    +0.232 C 
BRANCH  23  24
ATOM     24  S   UNL     1       6.347  -6.211  28.321  0.00  0.00    +0.082 S 
ATOM     25  O   UNL     1       6.663  -7.328  29.176  0.00  0.00    -0.147 OA
ATOM     26  O   UNL     1       6.183  -4.874  28.845  0.00  0.00    -0.147 OA
BRANCH  24  27
ATOM     27  O   UNL     1       7.474  -6.086  27.176  0.00  0.00    -0.254 OA
ATOM     28  H   UNL     1       8.208  -5.537  27.533  0.00  0.00    +0.244 HD
ENDBRANCH  24  27
ENDBRANCH  23  24
ENDBRANCH  15  23
ENDBRANCH  10  11
ENDBRANCH   6  10
ENDBRANCH   5   6
ENDBRANCH   1   5
BRANCH   1  29
ATOM     29  O   UNL     1       6.209   1.434  26.332  0.00  0.00    -0.284 OA
BRANCH  29  30
ATOM     30  C   UNL     1       7.517   0.890  26.285  0.00  0.00    +0.206 C 
BRANCH  30  35
ATOM     31  C   UNL     1       8.717   0.605  24.100  0.00  0.00    +0.178 C 
ATOM     32  C   UNL     1       9.333  -0.610  23.421  0.00  0.00    +0.195 C 
ATOM     33  C   UNL     1       9.082  -1.755  24.429  0.00  0.00    +0.255 C 
ATOM     34  O   UNL     1       8.270  -1.263  25.504  0.00  0.00    -0.346 OA
ATOM     35  C   UNL     1       7.725  -0.008  25.078  0.00  0.00    +0.178 C 
BRANCH  33  36
ATOM     36  N   UNL     1       8.468  -2.987  23.920  0.00  0.00    -0.271 N 
ATOM     37  C   UNL     1       8.674  -4.203  24.567  0.00  0.00    +0.331 A 
ATOM     38  O   UNL     1       9.337  -4.349  25.585  0.00  0.00    -0.246 OA
ATOM     39  N   UNL     1       8.091  -5.296  23.987  0.00  0.00    -0.275 N 
ATOM     40  H   UNL     1       8.219  -6.175  24.471  0.00  0.00    +0.173 HD
ATOM     41  C   UNL     1       7.390  -5.312  22.819  0.00  0.00    +0.254 A 
ATOM     42  O   UNL     1       6.864  -6.323  22.365  0.00  0.00    -0.268 OA
ATOM     43  C   UNL     1       7.280  -4.019  22.137  0.00  0.00    +0.088 A 
ATOM     44  C   UNL     1       7.814  -2.938  22.702  0.00  0.00    +0.098 A 
ENDBRANCH  33  36
BRANCH  31  45
ATOM     45  O   UNL     1       8.079   1.471  23.164  0.00  0.00    -0.386 OA
ATOM     46  H   UNL     1       7.130   1.228  23.115  0.00  0.00    +0.210 HD
ENDBRANCH  31  45
BRANCH  32  47
ATOM     47  O   UNL     1      10.747  -0.392  23.245  0.00  0.00    -0.385 OA
ATOM     48  H   UNL     1      10.850   0.177  22.463  0.00  0.00    +0.210 HD
ENDBRANCH  32  47
ENDBRANCH  30  35
ENDBRANCH  29  30
ENDBRANCH   1  29
TORSDOF 18
ENDMDL
MODEL 4
REMARK VINA RESULT:      -6.8      4.243      8.046
REMARK  Name = 
REMARK  18 active torsions:
REMARK  status: ('A' for Active; 'I' for Inactive)
REMARK    1  A    between atoms: O_1  and  C_2
REMARK    2  A    between atoms: C_4  and  C_6
REMARK    3  A    between atoms: C_6  and  O_7
REMARK    4  A    between atoms: O_7  and  P_8
REMARK    5  A    between atoms: P_8  and  O_9
REMARK    6  A    between atoms: P_8  and  O_11
REMARK    7  A    between atoms: O_11  and  P_12
REMARK    8  A    between atoms: P_12  and  O_13
REMARK    9  A    between atoms: P_12  and  O_15
REMARK   10  A    between atoms: O_15  and  C_16
REMARK   11  A    between atoms: C_19  and  C_21
REMARK   12  A    between atoms: C_21  and  S_22
REMARK   13  A    between atoms: S_22  and  O_23
REMARK   14  A    between atoms: C_26  and  O_28
REMARK   15  A    between atoms: C_29  and  O_31
REMARK   16  A    between atoms: C_32  and  O_34
REMARK   17  A    between atoms: C_36  and  N_41
REMARK   18  A    between atoms: C_38  and  O_40
REMARK                            x       y       z     vdW  Elec       q    Type
REMARK                         _______ _______ _______ _____ _____    ______ ____
ROOT
ATOM      1  P   UNL     1       8.488  -3.071  24.341  0.00  0.00    +0.483 P 
ATOM      2  O   UNL     1       8.688  -3.057  22.814  0.00  0.00    -0.227 OA
ENDROOT
BRANCH   1   3
ATOM      3  O   UNL     1       9.863  -4.114  24.462  0.00  0.00    -0.302 OA
ATOM      4  H   UNL     1       9.553  -4.938  24.882  0.00  0.00    +0.222 HD
ENDBRANCH   1   3
BRANCH   1   5
ATOM      5  O   UNL     1       7.113  -2.029  24.220  0.00  0.00    -0.186 OA
BRANCH   5   6
ATOM      6  P   UNL     1       5.678  -2.921  24.594  0.00  0.00    +0.486 P 
ATOM      7  O   UNL     1       6.459  -3.396  25.823  0.00  0.00    -0.227 OA
BRANCH   6   8
ATOM      8  O   UNL     1       5.982  -4.071  23.480  0.00  0.00    -0.302 OA
ATOM      9  H   UNL     1       5.274  -4.247  22.833  0.00  0.00    +0.222 HD
ENDBRANCH   6   8
BRANCH   6  10
ATOM     10  O   UNL     1       4.244  -3.812  24.968  0.00  0.00    -0.254 OA
BRANCH  10  11
ATOM     11  C   UNL     1       4.284  -5.097  24.259  0.00  0.00    +0.293 C 
ATOM     12  C   UNL     1       3.012  -5.610  23.574  0.00  0.00    +0.202 C 
ATOM     13  C   UNL     1       2.140  -6.491  24.463  0.00  0.00    +0.179 C 
ATOM     14  C   UNL     1       2.866  -7.298  25.567  0.00  0.00    +0.176 C 
ATOM     15  C   UNL     1       4.260  -6.819  26.015  0.00  0.00    +0.176 C 
ATOM     16  O   UNL     1       4.969  -6.147  24.966  0.00  0.00    -0.341 OA
BRANCH  14  17
ATOM     17  O   UNL     1       3.017  -8.653  25.080  0.00  0.00    -0.387 OA
ATOM     18  H   UNL     1       3.191  -9.236  25.845  0.00  0.00    +0.210 HD
ENDBRANCH  14  17
BRANCH  13  19
ATOM     19  O   UNL     1       1.117  -5.653  25.007  0.00  0.00    -0.386 OA
ATOM     20  H   UNL     1       1.127  -4.798  24.544  0.00  0.00    +0.210 HD
ENDBRANCH  13  19
BRANCH  12  21
ATOM     21  O   UNL     1       3.423  -6.425  22.443  0.00  0.00    -0.384 OA
ATOM     22  H   UNL     1       2.926  -6.118  21.663  0.00  0.00    +0.210 HD
ENDBRANCH  12  21
BRANCH  15  23
ATOM     23  C   UNL     1       4.439  -5.991  27.277  0.00  0.00    +0.232 C 
BRANCH  23  24
ATOM     24  S   UNL     1       5.900  -6.241  28.243  0.00  0.00    +0.082 S 
ATOM     25  O   UNL     1       5.934  -7.591  28.750  0.00  0.00    -0.147 OA
ATOM     26  O   UNL     1       6.065  -5.097  29.112  0.00  0.00    -0.147 OA
BRANCH  24  27
ATOM     27  O   UNL     1       7.025  -6.077  27.101  0.00  0.00    -0.254 OA
ATOM     28  H   UNL     1       7.902  -6.250  27.514  0.00  0.00    +0.244 HD
ENDBRANCH  24  27
ENDBRANCH  23  24
ENDBRANCH  15  23
ENDBRANCH  10  11
ENDBRANCH   6  10
ENDBRANCH   5   6
ENDBRANCH   1   5
BRANCH   1  29
ATOM     29  O   UNL     1       9.419  -1.821  24.891  0.00  0.00    -0.284 OA
BRANCH  29  30
ATOM     30  C   UNL     1       8.843  -0.536  25.060  0.00  0.00    +0.206 C 
BRANCH  30  35
ATOM     31  C   UNL     1       9.440   0.269  22.759  0.00  0.00    +0.178 C 
ATOM     32  C   UNL     1       9.533   1.662  22.153  0.00  0.00    +0.195 C 
ATOM     33  C   UNL     1       9.133   2.592  23.322  0.00  0.00    +0.255 C 
ATOM     34  O   UNL     1       8.977   1.808  24.513  0.00  0.00    -0.346 OA
ATOM     35  C   UNL     1       9.567   0.529  24.253  0.00  0.00    +0.178 C 
BRANCH  33  36
ATOM     36  N   UNL     1      10.023   3.718  23.631  0.00  0.00    -0.271 N 
ATOM     37  C   UNL     1       9.517   4.895  24.178  0.00  0.00    +0.331 A 
ATOM     38  O   UNL     1       8.341   5.084  24.461  0.00  0.00    -0.246 OA
ATOM     39  N   UNL     1      10.425   5.896  24.389  0.00  0.00    -0.275 N 
ATOM     40  H   UNL     1      10.062   6.740  24.811  0.00  0.00    +0.173 HD
ATOM     41  C   UNL     1      11.746   5.869  24.059  0.00  0.00    +0.254 A 
ATOM     42  O   UNL     1      12.518   6.791  24.303  0.00  0.00    -0.268 OA
ATOM     43  C   UNL     1      12.204   4.639  23.406  0.00  0.00    +0.088 A 
ATOM     44  C   UNL     1      11.342   3.641  23.221  0.00  0.00    +0.098 A 
ENDBRANCH  33  36
BRANCH  31  45
ATOM     45  O   UNL     1      10.471  -0.590  22.276  0.00  0.00    -0.386 OA
ATOM     46  H   UNL     1      10.298  -1.497  22.608  0.00  0.00    +0.210 HD
ENDBRANCH  31  45
BRANCH  32  47
ATOM     47  O   UNL     1       8.588   1.776  21.071  0.00  0.00    -0.385 OA
ATOM     48  H   UNL     1       8.887   2.513  20.512  0.00  0.00    +0.210 HD
ENDBRANCH  32  47
ENDBRANCH  30  35
ENDBRANCH  29  30
ENDBRANCH   1  29
TORSDOF 18
ENDMDL
MODEL 5
REMARK VINA RESULT:      -6.7      3.926      8.054
REMARK  Name = 
REMARK  18 active torsions:
REMARK  status: ('A' for Active; 'I' for Inactive)
REMARK    1  A    between atoms: O_1  and  C_2
REMARK    2  A    between atoms: C_4  and  C_6
REMARK    3  A    between atoms: C_6  and  O_7
REMARK    4  A    between atoms: O_7  and  P_8
REMARK    5  A    between atoms: P_8  and  O_9
REMARK    6  A    between atoms: P_8  and  O_11
REMARK    7  A    between atoms: O_11  and  P_12
REMARK    8  A    between atoms: P_12  and  O_13
REMARK    9  A    between atoms: P_12  and  O_15
REMARK   10  A    between atoms: O_15  and  C_16
REMARK   11  A    between atoms: C_19  and  C_21
REMARK   12  A    between atoms: C_21  and  S_22
REMARK   13  A    between atoms: S_22  and  O_23
REMARK   14  A    between atoms: C_26  and  O_28
REMARK   15  A    between atoms: C_29  and  O_31
REMARK   16  A    between atoms: C_32  and  O_34
REMARK   17  A    between atoms: C_36  and  N_41
REMARK   18  A    between atoms: C_38  and  O_40
REMARK                            x       y       z     vdW  Elec       q    Type
REMARK                         _______ _______ _______ _____ _____    ______ ____
ROOT
ATOM      1  P   UNL     1       9.268  -4.566  25.751  0.00  0.00    +0.483 P 
ATOM      2  O   UNL     1       8.541  -5.793  25.169  0.00  0.00    -0.227 OA
ENDROOT
BRANCH   1   3
ATOM      3  O   UNL     1      10.710  -5.110  24.964  0.00  0.00    -0.302 OA
ATOM      4  H   UNL     1      11.394  -5.188  25.655  0.00  0.00    +0.222 HD
ENDBRANCH   1   3
BRANCH   1   5
ATOM      5  O   UNL     1       7.827  -4.024  26.538  0.00  0.00    -0.186 OA
BRANCH   5   6
ATOM      6  P   UNL     1       6.638  -5.279  26.495  0.00  0.00    +0.486 P 
ATOM      7  O   UNL     1       5.801  -4.329  27.357  0.00  0.00    -0.227 OA
BRANCH   6   8
ATOM      8  O   UNL     1       7.422  -6.197  27.591  0.00  0.00    -0.302 OA
ATOM      9  H   UNL     1       8.372  -6.348  27.430  0.00  0.00    +0.222 HD
ENDBRANCH   6   8
BRANCH   6  10
ATOM     10  O   UNL     1       5.449  -6.535  26.452  0.00  0.00    -0.254 OA
BRANCH  10  11
ATOM     11  C   UNL     1       4.127  -5.931  26.249  0.00  0.00    +0.293 C 
ATOM     12  C   UNL     1       2.874  -6.788  26.468  0.00  0.00    +0.202 C 
ATOM     13  C   UNL     1       2.387  -7.506  25.214  0.00  0.00    +0.179 C 
ATOM     14  C   UNL     1       2.693  -6.823  23.859  0.00  0.00    +0.176 C 
ATOM     15  C   UNL     1       3.835  -5.790  23.811  0.00  0.00    +0.176 C 
ATOM     16  O   UNL     1       4.017  -5.120  25.065  0.00  0.00    -0.341 OA
BRANCH  14  17
ATOM     17  O   UNL     1       1.486  -6.142  23.437  0.00  0.00    -0.387 OA
ATOM     18  H   UNL     1       0.757  -6.418  24.025  0.00  0.00    +0.210 HD
ENDBRANCH  14  17
BRANCH  13  19
ATOM     19  O   UNL     1       2.908  -8.837  25.265  0.00  0.00    -0.386 OA
ATOM     20  H   UNL     1       3.813  -8.810  25.617  0.00  0.00    +0.210 HD
ENDBRANCH  13  19
BRANCH  12  21
ATOM     21  O   UNL     1       1.805  -5.899  26.890  0.00  0.00    -0.384 OA
ATOM     22  H   UNL     1       1.089  -5.966  26.232  0.00  0.00    +0.210 HD
ENDBRANCH  12  21
BRANCH  15  23
ATOM     23  C   UNL     1       5.217  -6.168  23.302  0.00  0.00    +0.232 C 
BRANCH  23  24
ATOM     24  S   UNL     1       5.945  -5.171  22.034  0.00  0.00    +0.082 S 
ATOM     25  O   UNL     1       5.239  -3.918  21.923  0.00  0.00    -0.147 OA
ATOM     26  O   UNL     1       6.186  -6.013  20.884  0.00  0.00    -0.147 OA
BRANCH  24  27
ATOM     27  O   UNL     1       7.396  -4.905  22.683  0.00  0.00    -0.254 OA
ATOM     28  H   UNL     1       8.009  -4.651  21.956  0.00  0.00    +0.244 HD
ENDBRANCH  24  27
ENDBRANCH  23  24
ENDBRANCH  15  23
ENDBRANCH  10  11
ENDBRANCH   6  10
ENDBRANCH   5   6
ENDBRANCH   1   5
BRANCH   1  29
ATOM     29  O   UNL     1       9.105  -3.400  24.592  0.00  0.00    -0.284 OA
BRANCH  29  30
ATOM     30  C   UNL     1       8.615  -2.118  24.947  0.00  0.00    +0.206 C 
BRANCH  30  35
ATOM     31  C   UNL     1       9.753  -1.471  22.806  0.00  0.00    +0.178 C 
ATOM     32  C   UNL     1       9.733  -0.192  21.982  0.00  0.00    +0.195 C 
ATOM     33  C   UNL     1       8.772   0.730  22.767  0.00  0.00    +0.255 C 
ATOM     34  O   UNL     1       8.403   0.087  23.994  0.00  0.00    -0.346 OA
ATOM     35  C   UNL     1       9.313  -1.004  24.186  0.00  0.00    +0.178 C 
BRANCH  33  36
ATOM     36  N   UNL     1       9.236   2.086  23.085  0.00  0.00    -0.271 N 
ATOM     37  C   UNL     1       8.363   3.170  23.020  0.00  0.00    +0.331 A 
ATOM     38  O   UNL     1       7.177   3.094  22.730  0.00  0.00    -0.246 OA
ATOM     39  N   UNL     1       8.908   4.394  23.295  0.00  0.00    -0.275 N 
ATOM     40  H   UNL     1       8.268   5.177  23.274  0.00  0.00    +0.173 HD
ATOM     41  C   UNL     1      10.219   4.653  23.560  0.00  0.00    +0.254 A 
ATOM     42  O   UNL     1      10.641   5.773  23.829  0.00  0.00    -0.268 OA
ATOM     43  C   UNL     1      11.107   3.487  23.527  0.00  0.00    +0.088 A 
ATOM     44  C   UNL     1      10.590   2.282  23.293  0.00  0.00    +0.098 A 
ENDBRANCH  33  36
BRANCH  31  45
ATOM     45  O   UNL     1      11.048  -2.067  22.831  0.00  0.00    -0.386 OA
ATOM     46  H   UNL     1      10.980  -2.969  22.450  0.00  0.00    +0.210 HD
ENDBRANCH  31  45
BRANCH  32  47
ATOM     47  O   UNL     1       9.204  -0.476  20.672  0.00  0.00    -0.385 OA
ATOM     48  H   UNL     1       9.941  -0.821  20.139  0.00  0.00    +0.210 HD
ENDBRANCH  32  47
ENDBRANCH  30  35
ENDBRANCH  29  30
ENDBRANCH   1  29
TORSDOF 18
ENDMDL
MODEL 6
REMARK VINA RESULT:      -6.7      2.137      3.477
REMARK  Name = 
REMARK  18 active torsions:
REMARK  status: ('A' for Active; 'I' for Inactive)
REMARK    1  A    between atoms: O_1  and  C_2
REMARK    2  A    between atoms: C_4  and  C_6
REMARK    3  A    between atoms: C_6  and  O_7
REMARK    4  A    between atoms: O_7  and  P_8
REMARK    5  A    between atoms: P_8  and  O_9
REMARK    6  A    between atoms: P_8  and  O_11
REMARK    7  A    between atoms: O_11  and  P_12
REMARK    8  A    between atoms: P_12  and  O_13
REMARK    9  A    between atoms: P_12  and  O_15
REMARK   10  A    between atoms: O_15  and  C_16
REMARK   11  A    between atoms: C_19  and  C_21
REMARK   12  A    between atoms: C_21  and  S_22
REMARK   13  A    between atoms: S_22  and  O_23
REMARK   14  A    between atoms: C_26  and  O_28
REMARK   15  A    between atoms: C_29  and  O_31
REMARK   16  A    between atoms: C_32  and  O_34
REMARK   17  A    between atoms: C_36  and  N_41
REMARK   18  A    between atoms: C_38  and  O_40
REMARK                            x       y       z     vdW  Elec       q    Type
REMARK                         _______ _______ _______ _____ _____    ______ ____
ROOT
ATOM      1  P   UNL     1       9.612  -1.236  22.518  0.00  0.00    +0.483 P 
ATOM      2  O   UNL     1      10.557  -0.273  23.260  0.00  0.00    -0.227 OA
ENDROOT
BRANCH   1   3
ATOM      3  O   UNL     1      10.163  -2.502  23.562  0.00  0.00    -0.302 OA
ATOM      4  H   UNL     1      10.786  -2.094  24.192  0.00  0.00    +0.222 HD
ENDBRANCH   1   3
BRANCH   1   5
ATOM      5  O   UNL     1       9.063   0.029  21.474  0.00  0.00    -0.186 OA
BRANCH   5   6
ATOM      6  P   UNL     1       9.026   1.522  22.347  0.00  0.00    +0.486 P 
ATOM      7  O   UNL     1       7.803   1.840  21.481  0.00  0.00    -0.227 OA
BRANCH   6   8
ATOM      8  O   UNL     1      10.266   2.161  21.504  0.00  0.00    -0.302 OA
ATOM      9  H   UNL     1      10.621   1.618  20.776  0.00  0.00    +0.222 HD
ENDBRANCH   6   8
BRANCH   6  10
ATOM     10  O   UNL     1       8.989   3.015  23.219  0.00  0.00    -0.254 OA
BRANCH  10  11
ATOM     11  C   UNL     1       8.643   2.739  24.619  0.00  0.00    +0.293 C 
ATOM     12  C   UNL     1       7.642   1.620  24.932  0.00  0.00    +0.202 C 
ATOM     13  C   UNL     1       6.191   2.086  24.997  0.00  0.00    +0.179 C 
ATOM     14  C   UNL     1       5.951   3.552  25.430  0.00  0.00    +0.176 C 
ATOM     15  C   UNL     1       7.117   4.549  25.289  0.00  0.00    +0.176 C 
ATOM     16  O   UNL     1       8.396   3.912  25.415  0.00  0.00    -0.341 OA
BRANCH  14  17
ATOM     17  O   UNL     1       5.574   3.533  26.829  0.00  0.00    -0.387 OA
ATOM     18  H   UNL     1       6.089   4.220  27.294  0.00  0.00    +0.210 HD
ENDBRANCH  14  17
BRANCH  13  19
ATOM     19  O   UNL     1       5.605   1.807  23.723  0.00  0.00    -0.386 OA
ATOM     20  H   UNL     1       5.767   2.558  23.128  0.00  0.00    +0.210 HD
ENDBRANCH  13  19
BRANCH  12  21
ATOM     21  O   UNL     1       7.976   1.089  26.243  0.00  0.00    -0.384 OA
ATOM     22  H   UNL     1       7.279   1.371  26.862  0.00  0.00    +0.210 HD
ENDBRANCH  12  21
BRANCH  15  23
ATOM     23  C   UNL     1       7.205   5.495  24.103  0.00  0.00    +0.232 C 
BRANCH  23  24
ATOM     24  S   UNL     1       5.935   5.415  22.872  0.00  0.00    +0.082 S 
ATOM     25  O   UNL     1       5.951   6.611  22.066  0.00  0.00    -0.147 OA
ATOM     26  O   UNL     1       4.726   4.939  23.504  0.00  0.00    -0.147 OA
BRANCH  24  27
ATOM     27  O   UNL     1       6.474   4.177  21.991  0.00  0.00    -0.254 OA
ATOM     28  H   UNL     1       7.457   4.201  22.007  0.00  0.00    +0.244 HD
ENDBRANCH  24  27
ENDBRANCH  23  24
ENDBRANCH  15  23
ENDBRANCH  10  11
ENDBRANCH   6  10
ENDBRANCH   5   6
ENDBRANCH   1   5
BRANCH   1  29
ATOM     29  O   UNL     1       8.202  -1.175  23.377  0.00  0.00    -0.284 OA
BRANCH  29  30
ATOM     30  C   UNL     1       6.993  -1.608  22.777  0.00  0.00    +0.206 C 
BRANCH  30  35
ATOM     31  C   UNL     1       6.797  -4.039  22.189  0.00  0.00    +0.178 C 
ATOM     32  C   UNL     1       7.032  -5.310  22.994  0.00  0.00    +0.195 C 
ATOM     33  C   UNL     1       7.478  -4.785  24.378  0.00  0.00    +0.255 C 
ATOM     34  O   UNL     1       7.361  -3.356  24.397  0.00  0.00    -0.346 OA
ATOM     35  C   UNL     1       6.570  -2.985  23.262  0.00  0.00    +0.178 C 
BRANCH  33  36
ATOM     36  N   UNL     1       6.790  -5.314  25.561  0.00  0.00    -0.271 N 
ATOM     37  C   UNL     1       7.417  -5.320  26.805  0.00  0.00    +0.331 A 
ATOM     38  O   UNL     1       8.539  -4.884  27.023  0.00  0.00    -0.246 OA
ATOM     39  N   UNL     1       6.704  -5.874  27.832  0.00  0.00    -0.275 N 
ATOM     40  H   UNL     1       7.149  -5.854  28.740  0.00  0.00    +0.173 HD
ATOM     41  C   UNL     1       5.481  -6.467  27.738  0.00  0.00    +0.254 A 
ATOM     42  O   UNL     1       4.877  -6.919  28.706  0.00  0.00    -0.268 OA
ATOM     43  C   UNL     1       4.908  -6.510  26.390  0.00  0.00    +0.088 A 
ATOM     44  C   UNL     1       5.574  -5.948  25.382  0.00  0.00    +0.098 A 
ENDBRANCH  33  36
BRANCH  31  45
ATOM     45  O   UNL     1       5.678  -4.164  21.315  0.00  0.00    -0.386 OA
ATOM     46  H   UNL     1       5.106  -3.374  21.431  0.00  0.00    +0.210 HD
ENDBRANCH  31  45
BRANCH  32  47
ATOM     47  O   UNL     1       8.086  -6.076  22.380  0.00  0.00    -0.385 OA
ATOM     48  H   UNL     1       7.886  -6.121  21.429  0.00  0.00    +0.210 HD
ENDBRANCH  32  47
ENDBRANCH  30  35
ENDBRANCH  29  30
ENDBRANCH   1  29
TORSDOF 18
ENDMDL
MODEL 7
REMARK VINA RESULT:      -6.7      3.881      8.032
REMARK  Name = 
REMARK  18 active torsions:
REMARK  status: ('A' for Active; 'I' for Inactive)
REMARK    1  A    between atoms: O_1  and  C_2
REMARK    2  A    between atoms: C_4  and  C_6
REMARK    3  A    between atoms: C_6  and  O_7
REMARK    4  A    between atoms: O_7  and  P_8
REMARK    5  A    between atoms: P_8  and  O_9
REMARK    6  A    between atoms: P_8  and  O_11
REMARK    7  A    between atoms: O_11  and  P_12
REMARK    8  A    between atoms: P_12  and  O_13
REMARK    9  A    between atoms: P_12  and  O_15
REMARK   10  A    between atoms: O_15  and  C_16
REMARK   11  A    between atoms: C_19  and  C_21
REMARK   12  A    between atoms: C_21  and  S_22
REMARK   13  A    between atoms: S_22  and  O_23
REMARK   14  A    between atoms: C_26  and  O_28
REMARK   15  A    between atoms: C_29  and  O_31
REMARK   16  A    between atoms: C_32  and  O_34
REMARK   17  A    between atoms: C_36  and  N_41
REMARK   18  A    between atoms: C_38  and  O_40
REMARK                            x       y       z     vdW  Elec       q    Type
REMARK                         _______ _______ _______ _____ _____    ______ ____
ROOT
ATOM      1  P   UNL     1       9.384  -3.486  25.240  0.00  0.00    +0.483 P 
ATOM      2  O   UNL     1       8.923  -4.797  24.577  0.00  0.00    -0.227 OA
ENDROOT
BRANCH   1   3
ATOM      3  O   UNL     1      10.151  -3.059  23.748  0.00  0.00    -0.302 OA
ATOM      4  H   UNL     1      10.421  -2.125  23.830  0.00  0.00    +0.222 HD
ENDBRANCH   1   3
BRANCH   1   5
ATOM      5  O   UNL     1       8.618  -3.913  26.731  0.00  0.00    -0.186 OA
BRANCH   5   6
ATOM      6  P   UNL     1       7.345  -5.043  26.423  0.00  0.00    +0.486 P 
ATOM      7  O   UNL     1       6.499  -4.123  27.308  0.00  0.00    -0.227 OA
BRANCH   6   8
ATOM      8  O   UNL     1       7.934  -6.145  27.471  0.00  0.00    -0.302 OA
ATOM      9  H   UNL     1       8.249  -5.802  28.328  0.00  0.00    +0.222 HD
ENDBRANCH   6   8
BRANCH   6  10
ATOM     10  O   UNL     1       6.073  -6.174  26.115  0.00  0.00    -0.254 OA
BRANCH  10  11
ATOM     11  C   UNL     1       4.811  -5.438  25.962  0.00  0.00    +0.293 C 
ATOM     12  C   UNL     1       3.497  -6.123  26.357  0.00  0.00    +0.202 C 
ATOM     13  C   UNL     1       2.825  -6.881  25.217  0.00  0.00    +0.179 C 
ATOM     14  C   UNL     1       3.081  -6.352  23.785  0.00  0.00    +0.176 C 
ATOM     15  C   UNL     1       4.321  -5.467  23.552  0.00  0.00    +0.176 C 
ATOM     16  O   UNL     1       4.685  -4.721  24.721  0.00  0.00    -0.341 OA
BRANCH  14  17
ATOM     17  O   UNL     1       1.923  -5.573  23.399  0.00  0.00    -0.387 OA
ATOM     18  H   UNL     1       1.627  -5.059  24.175  0.00  0.00    +0.210 HD
ENDBRANCH  14  17
BRANCH  13  19
ATOM     19  O   UNL     1       3.200  -8.255  25.350  0.00  0.00    -0.386 OA
ATOM     20  H   UNL     1       4.164  -8.332  25.249  0.00  0.00    +0.210 HD
ENDBRANCH  13  19
BRANCH  12  21
ATOM     21  O   UNL     1       2.573  -5.084  26.779  0.00  0.00    -0.384 OA
ATOM     22  H   UNL     1       2.446  -5.176  27.741  0.00  0.00    +0.210 HD
ENDBRANCH  12  21
BRANCH  15  23
ATOM     23  C   UNL     1       5.602  -6.044  22.973  0.00  0.00    +0.232 C 
BRANCH  23  24
ATOM     24  S   UNL     1       6.522  -5.058  21.827  0.00  0.00    +0.082 S 
ATOM     25  O   UNL     1       5.670  -4.634  20.742  0.00  0.00    -0.147 OA
ATOM     26  O   UNL     1       7.789  -5.711  21.589  0.00  0.00    -0.147 OA
BRANCH  24  27
ATOM     27  O   UNL     1       6.863  -3.787  22.758  0.00  0.00    -0.254 OA
ATOM     28  H   UNL     1       6.012  -3.398  23.062  0.00  0.00    +0.244 HD
ENDBRANCH  24  27
ENDBRANCH  23  24
ENDBRANCH  15  23
ENDBRANCH  10  11
ENDBRANCH   6  10
ENDBRANCH   5   6
ENDBRANCH   1   5
BRANCH   1  29
ATOM     29  O   UNL     1       8.179  -2.406  24.901  0.00  0.00    -0.284 OA
BRANCH  29  30
ATOM     30  C   UNL     1       8.215  -1.109  25.473  0.00  0.00    +0.206 C 
BRANCH  30  35
ATOM     31  C   UNL     1       7.733  -0.172  23.196  0.00  0.00    +0.178 C 
ATOM     32  C   UNL     1       7.672   1.254  22.667  0.00  0.00    +0.195 C 
ATOM     33  C   UNL     1       7.971   2.116  23.915  0.00  0.00    +0.255 C 
ATOM     34  O   UNL     1       8.316   1.255  25.008  0.00  0.00    -0.346 OA
ATOM     35  C   UNL     1       8.577  -0.041  24.455  0.00  0.00    +0.178 C 
BRANCH  33  36
ATOM     36  N   UNL     1       9.013   3.144  23.799  0.00  0.00    -0.271 N 
ATOM     37  C   UNL     1       8.675   4.493  23.717  0.00  0.00    +0.331 A 
ATOM     38  O   UNL     1       7.532   4.929  23.757  0.00  0.00    -0.246 OA
ATOM     39  N   UNL     1       9.719   5.364  23.569  0.00  0.00    -0.275 N 
ATOM     40  H   UNL     1       9.475   6.345  23.537  0.00  0.00    +0.173 HD
ATOM     41  C   UNL     1      11.033   5.032  23.433  0.00  0.00    +0.254 A 
ATOM     42  O   UNL     1      11.929   5.864  23.334  0.00  0.00    -0.268 OA
ATOM     43  C   UNL     1      11.321   3.595  23.438  0.00  0.00    +0.088 A 
ATOM     44  C   UNL     1      10.320   2.732  23.613  0.00  0.00    +0.098 A 
ENDBRANCH  33  36
BRANCH  31  45
ATOM     45  O   UNL     1       8.318  -1.065  22.250  0.00  0.00    -0.386 OA
ATOM     46  H   UNL     1       8.374  -1.955  22.660  0.00  0.00    +0.210 HD
ENDBRANCH  31  45
BRANCH  32  47
ATOM     47  O   UNL     1       6.346   1.523  22.172  0.00  0.00    -0.385 OA
ATOM     48  H   UNL     1       6.329   2.458  21.903  0.00  0.00    +0.210 HD
ENDBRANCH  32  47
ENDBRANCH  30  35
ENDBRANCH  29  30
ENDBRANCH   1  29
TORSDOF 18
ENDMDL
MODEL 8
REMARK VINA RESULT:      -6.7      3.945      8.136
REMARK  Name = 
REMARK  18 active torsions:
REMARK  status: ('A' for Active; 'I' for Inactive)
REMARK    1  A    between atoms: O_1  and  C_2
REMARK    2  A    between atoms: C_4  and  C_6
REMARK    3  A    between atoms: C_6  and  O_7
REMARK    4  A    between atoms: O_7  and  P_8
REMARK    5  A    between atoms: P_8  and  O_9
REMARK    6  A    between atoms: P_8  and  O_11
REMARK    7  A    between atoms: O_11  and  P_12
REMARK    8  A    between atoms: P_12  and  O_13
REMARK    9  A    between atoms: P_12  and  O_15
REMARK   10  A    between atoms: O_15  and  C_16
REMARK   11  A    between atoms: C_19  and  C_21
REMARK   12  A    between atoms: C_21  and  S_22
REMARK   13  A    between atoms: S_22  and  O_23
REMARK   14  A    between atoms: C_26  and  O_28
REMARK   15  A    between atoms: C_29  and  O_31
REMARK   16  A    between atoms: C_32  and  O_34
REMARK   17  A    between atoms: C_36  and  N_41
REMARK   18  A    between atoms: C_38  and  O_40
REMARK                            x       y       z     vdW  Elec       q    Type
REMARK                         _______ _______ _______ _____ _____    ______ ____
ROOT
ATOM      1  P   UNL     1       9.902  -2.116  22.894  0.00  0.00    +0.483 P 
ATOM      2  O   UNL     1       8.556  -2.619  22.340  0.00  0.00    -0.227 OA
ENDROOT
BRANCH   1   3
ATOM      3  O   UNL     1       9.982  -1.013  21.563  0.00  0.00    -0.302 OA
ATOM      4  H   UNL     1       9.167  -0.480  21.592  0.00  0.00    +0.222 HD
ENDBRANCH   1   3
BRANCH   1   5
ATOM      5  O   UNL     1       9.821  -3.218  24.225  0.00  0.00    -0.186 OA
BRANCH   5   6
ATOM      6  P   UNL     1       8.176  -3.679  24.494  0.00  0.00    +0.486 P 
ATOM      7  O   UNL     1       8.573  -3.720  25.973  0.00  0.00    -0.227 OA
BRANCH   6   8
ATOM      8  O   UNL     1       8.417  -5.210  23.991  0.00  0.00    -0.302 OA
ATOM      9  H   UNL     1       9.086  -5.726  24.478  0.00  0.00    +0.222 HD
ENDBRANCH   6   8
BRANCH   6  10
ATOM     10  O   UNL     1       6.530  -4.139  24.763  0.00  0.00    -0.254 OA
BRANCH  10  11
ATOM     11  C   UNL     1       6.288  -5.435  24.118  0.00  0.00    +0.293 C 
ATOM     12  C   UNL     1       5.307  -5.510  22.942  0.00  0.00    +0.202 C 
ATOM     13  C   UNL     1       3.868  -5.804  23.351  0.00  0.00    +0.179 C 
ATOM     14  C   UNL     1       3.668  -6.630  24.645  0.00  0.00    +0.176 C 
ATOM     15  C   UNL     1       4.827  -6.675  25.660  0.00  0.00    +0.176 C 
ATOM     16  O   UNL     1       6.108  -6.532  25.032  0.00  0.00    -0.341 OA
BRANCH  14  17
ATOM     17  O   UNL     1       3.397  -7.995  24.247  0.00  0.00    -0.387 OA
ATOM     18  H   UNL     1       3.895  -8.180  23.427  0.00  0.00    +0.210 HD
ENDBRANCH  14  17
BRANCH  13  19
ATOM     19  O   UNL     1       3.187  -4.548  23.415  0.00  0.00    -0.386 OA
ATOM     20  H   UNL     1       3.820  -3.855  23.665  0.00  0.00    +0.210 HD
ENDBRANCH  13  19
BRANCH  12  21
ATOM     21  O   UNL     1       5.735  -6.602  22.084  0.00  0.00    -0.384 OA
ATOM     22  H   UNL     1       4.948  -6.936  21.616  0.00  0.00    +0.210 HD
ENDBRANCH  12  21
BRANCH  15  23
ATOM     23  C   UNL     1       4.830  -5.782  26.890  0.00  0.00    +0.232 C 
BRANCH  23  24
ATOM     24  S   UNL     1       5.991  -6.136  28.179  0.00  0.00    +0.082 S 
ATOM     25  O   UNL     1       5.844  -7.502  28.616  0.00  0.00    -0.147 OA
ATOM     26  O   UNL     1       5.976  -5.032  29.111  0.00  0.00    -0.147 OA
BRANCH  24  27
ATOM     27  O   UNL     1       7.373  -5.989  27.362  0.00  0.00    -0.254 OA
ATOM     28  H   UNL     1       8.107  -6.260  27.959  0.00  0.00    +0.244 HD
ENDBRANCH  24  27
ENDBRANCH  23  24
ENDBRANCH  15  23
ENDBRANCH  10  11
ENDBRANCH   6  10
ENDBRANCH   5   6
ENDBRANCH   1   5
BRANCH   1  29
ATOM     29  O   UNL     1       9.496  -0.854  23.882  0.00  0.00    -0.284 OA
BRANCH  29  30
ATOM     30  C   UNL     1       8.380  -0.040  23.562  0.00  0.00    +0.206 C 
BRANCH  30  35
ATOM     31  C   UNL     1       7.925   1.873  22.004  0.00  0.00    +0.178 C 
ATOM     32  C   UNL     1       7.939   3.382  22.204  0.00  0.00    +0.195 C 
ATOM     33  C   UNL     1       8.300   3.547  23.698  0.00  0.00    +0.255 C 
ATOM     34  O   UNL     1       8.609   2.259  24.250  0.00  0.00    -0.346 OA
ATOM     35  C   UNL     1       8.790   1.363  23.147  0.00  0.00    +0.178 C 
BRANCH  33  36
ATOM     36  N   UNL     1       9.397   4.462  24.036  0.00  0.00    -0.271 N 
ATOM     37  C   UNL     1       9.145   5.652  24.716  0.00  0.00    +0.331 A 
ATOM     38  O   UNL     1       8.042   6.018  25.097  0.00  0.00    -0.246 OA
ATOM     39  N   UNL     1      10.231   6.451  24.944  0.00  0.00    -0.275 N 
ATOM     40  H   UNL     1      10.053   7.302  25.460  0.00  0.00    +0.173 HD
ATOM     41  C   UNL     1      11.505   6.223  24.519  0.00  0.00    +0.254 A 
ATOM     42  O   UNL     1      12.445   6.966  24.783  0.00  0.00    -0.268 OA
ATOM     43  C   UNL     1      11.694   5.000  23.733  0.00  0.00    +0.088 A 
ATOM     44  C   UNL     1      10.654   4.192  23.528  0.00  0.00    +0.098 A 
ENDBRANCH  33  36
BRANCH  31  45
ATOM     45  O   UNL     1       8.447   1.501  20.731  0.00  0.00    -0.386 OA
ATOM     46  H   UNL     1       9.092   0.773  20.862  0.00  0.00    +0.210 HD
ENDBRANCH  31  45
BRANCH  32  47
ATOM     47  O   UNL     1       6.624   3.910  21.941  0.00  0.00    -0.385 OA
ATOM     48  H   UNL     1       6.039   3.148  21.789  0.00  0.00    +0.210 HD
ENDBRANCH  32  47
ENDBRANCH  30  35
ENDBRANCH  29  30
ENDBRANCH   1  29
TORSDOF 18
ENDMDL
MODEL 9
REMARK VINA RESULT:      -6.6      2.535      4.136
REMARK  Name = 
REMARK  18 active torsions:
REMARK  status: ('A' for Active; 'I' for Inactive)
REMARK    1  A    between atoms: O_1  and  C_2
REMARK    2  A    between atoms: C_4  and  C_6
REMARK    3  A    between atoms: C_6  and  O_7
REMARK    4  A    between atoms: O_7  and  P_8
REMARK    5  A    between atoms: P_8  and  O_9
REMARK    6  A    between atoms: P_8  and  O_11
REMARK    7  A    between atoms: O_11  and  P_12
REMARK    8  A    between atoms: P_12  and  O_13
REMARK    9  A    between atoms: P_12  and  O_15
REMARK   10  A    between atoms: O_15  and  C_16
REMARK   11  A    between atoms: C_19  and  C_21
REMARK   12  A    between atoms: C_21  and  S_22
REMARK   13  A    between atoms: S_22  and  O_23
REMARK   14  A    between atoms: C_26  and  O_28
REMARK   15  A    between atoms: C_29  and  O_31
REMARK   16  A    between atoms: C_32  and  O_34
REMARK   17  A    between atoms: C_36  and  N_41
REMARK   18  A    between atoms: C_38  and  O_40
REMARK                            x       y       z     vdW  Elec       q    Type
REMARK                         _______ _______ _______ _____ _____    ______ ____
ROOT
ATOM      1  P   UNL     1       9.696  -1.375  23.115  0.00  0.00    +0.483 P 
ATOM      2  O   UNL     1      10.447  -2.644  23.561  0.00  0.00    -0.227 OA
ENDROOT
BRANCH   1   3
ATOM      3  O   UNL     1      10.334  -1.615  21.525  0.00  0.00    -0.302 OA
ATOM      4  H   UNL     1       9.650  -2.089  21.017  0.00  0.00    +0.222 HD
ENDBRANCH   1   3
BRANCH   1   5
ATOM      5  O   UNL     1       9.058  -1.135  24.705  0.00  0.00    -0.186 OA
BRANCH   5   6
ATOM      6  P   UNL     1       8.576   0.516  24.891  0.00  0.00    +0.486 P 
ATOM      7  O   UNL     1       7.184  -0.064  25.160  0.00  0.00    -0.227 OA
BRANCH   6   8
ATOM      8  O   UNL     1       8.567   0.798  23.286  0.00  0.00    -0.302 OA
ATOM      9  H   UNL     1       9.269   1.383  22.945  0.00  0.00    +0.222 HD
ENDBRANCH   6   8
BRANCH   6  10
ATOM     10  O   UNL     1       8.094   2.166  25.077  0.00  0.00    -0.254 OA
BRANCH  10  11
ATOM     11  C   UNL     1       8.648   2.951  23.966  0.00  0.00    +0.293 C 
ATOM     12  C   UNL     1       9.696   4.029  24.266  0.00  0.00    +0.202 C 
ATOM     13  C   UNL     1       9.108   5.411  24.531  0.00  0.00    +0.179 C 
ATOM     14  C   UNL     1       7.765   5.738  23.836  0.00  0.00    +0.176 C 
ATOM     15  C   UNL     1       6.891   4.562  23.359  0.00  0.00    +0.176 C 
ATOM     16  O   UNL     1       7.671   3.409  23.014  0.00  0.00    -0.341 OA
BRANCH  14  17
ATOM     17  O   UNL     1       8.067   6.544  22.671  0.00  0.00    -0.387 OA
ATOM     18  H   UNL     1       8.994   6.377  22.415  0.00  0.00    +0.210 HD
ENDBRANCH  14  17
BRANCH  13  19
ATOM     19  O   UNL     1       9.021   5.564  25.950  0.00  0.00    -0.386 OA
ATOM     20  H   UNL     1       8.619   4.766  26.332  0.00  0.00    +0.210 HD
ENDBRANCH  13  19
BRANCH  12  21
ATOM     21  O   UNL     1      10.549   4.147  23.096  0.00  0.00    -0.384 OA
ATOM     22  H   UNL     1      11.472   4.047  23.391  0.00  0.00    +0.210 HD
ENDBRANCH  12  21
BRANCH  15  23
ATOM     23  C   UNL     1       5.711   4.073  24.182  0.00  0.00    +0.232 C 
BRANCH  23  24
ATOM     24  S   UNL     1       4.590   2.922  23.440  0.00  0.00    +0.082 S 
ATOM     25  O   UNL     1       4.231   3.366  22.115  0.00  0.00    -0.147 OA
ATOM     26  O   UNL     1       3.590   2.572  24.423  0.00  0.00    -0.147 OA
BRANCH  24  27
ATOM     27  O   UNL     1       5.548   1.631  23.323  0.00  0.00    -0.254 OA
ATOM     28  H   UNL     1       5.956   1.638  22.427  0.00  0.00    +0.244 HD
ENDBRANCH  24  27
ENDBRANCH  23  24
ENDBRANCH  15  23
ENDBRANCH  10  11
ENDBRANCH   6  10
ENDBRANCH   5   6
ENDBRANCH   1   5
BRANCH   1  29
ATOM     29  O   UNL     1       8.232  -1.927  22.584  0.00  0.00    -0.284 OA
BRANCH  29  30
ATOM     30  C   UNL     1       7.940  -3.313  22.637  0.00  0.00    +0.206 C 
BRANCH  30  35
ATOM     31  C   UNL     1       5.519  -3.227  23.290  0.00  0.00    +0.178 C 
ATOM     32  C   UNL     1       4.623  -4.208  24.033  0.00  0.00    +0.195 C 
ATOM     33  C   UNL     1       5.559  -5.402  24.328  0.00  0.00    +0.255 C 
ATOM     34  O   UNL     1       6.893  -5.063  23.924  0.00  0.00    -0.346 OA
ATOM     35  C   UNL     1       6.919  -3.646  23.712  0.00  0.00    +0.178 C 
BRANCH  33  36
ATOM     36  N   UNL     1       5.614  -5.899  25.708  0.00  0.00    -0.271 N 
ATOM     37  C   UNL     1       4.746  -6.901  26.137  0.00  0.00    +0.331 A 
ATOM     38  O   UNL     1       3.912  -7.451  25.431  0.00  0.00    -0.246 OA
ATOM     39  N   UNL     1       4.853  -7.262  27.452  0.00  0.00    -0.275 N 
ATOM     40  H   UNL     1       4.241  -8.007  27.757  0.00  0.00    +0.173 HD
ATOM     41  C   UNL     1       5.673  -6.696  28.380  0.00  0.00    +0.254 A 
ATOM     42  O   UNL     1       5.745  -7.086  29.541  0.00  0.00    -0.268 OA
ATOM     43  C   UNL     1       6.500  -5.587  27.893  0.00  0.00    +0.088 A 
ATOM     44  C   UNL     1       6.434  -5.243  26.608  0.00  0.00    +0.098 A 
ENDBRANCH  33  36
BRANCH  31  45
ATOM     45  O   UNL     1       5.235  -1.875  23.645  0.00  0.00    -0.386 OA
ATOM     46  H   UNL     1       5.405  -1.308  22.862  0.00  0.00    +0.210 HD
ENDBRANCH  31  45
BRANCH  32  47
ATOM     47  O   UNL     1       3.542  -4.614  23.171  0.00  0.00    -0.385 OA
ATOM     48  H   UNL     1       2.793  -4.846  23.746  0.00  0.00    +0.210 HD
ENDBRANCH  32  47
ENDBRANCH  30  35
ENDBRANCH  29  30
ENDBRANCH   1  29
TORSDOF 18
ENDMDL
