MODEL 1
REMARK VINA RESULT:      -6.3      0.000      0.000
REMARK  Name = 
REMARK  6 active torsions:
REMARK  status: ('A' for Active; 'I' for Inactive)
REMARK    1  A    between atoms: C_1  and  C_2
REMARK    2  A    between atoms: C_2  and  C_3
REMARK    3  A    between atoms: C_2  and  C_6
REMARK    4  A    between atoms: C_3  and  O_4
REMARK    5  A    between atoms: C_9  and  C_10
REMARK    6  A    between atoms: C_10  and  C_11
REMARK                            x       y       z     vdW  Elec       q    Type
REMARK                         _______ _______ _______ _____ _____    ______ ____
ROOT
ATOM      1  C   UNL     1      10.385   2.331  23.410  0.00  0.00    -0.034 A 
ATOM      2  C   UNL     1       9.991   2.053  22.094  0.00  0.00    +0.005 A 
ATOM      3  C   UNL     1       9.751   0.740  21.683  0.00  0.00    +0.004 A 
ATOM      4  C   UNL     1       9.910  -0.324  22.575  0.00  0.00    -0.047 A 
ATOM      5  C   UNL     1      10.366  -0.055  23.872  0.00  0.00    +0.004 A 
ATOM      6  C   UNL     1      10.595   1.259  24.288  0.00  0.00    +0.005 A 
ENDROOT
BRANCH   1   8
ATOM      7  C   UNL     1      11.865   4.337  23.211  0.00  0.00    +0.024 C 
ATOM      8  C   UNL     1      10.620   3.758  23.882  0.00  0.00    +0.124 C 
BRANCH   8   9
ATOM      9  C   UNL     1       9.412   4.674  23.682  0.00  0.00    +0.312 C 
ATOM     10  O   UNL     1       8.278   4.428  24.067  0.00  0.00    -0.250 OA
BRANCH   9  11
ATOM     11  O   UNL     1       9.693   5.801  22.982  0.00  0.00    -0.480 OA
ATOM     12  H   UNL     1       8.921   6.391  22.875  0.00  0.00    +0.295 HD
ENDBRANCH   9  11
ENDBRANCH   8   9
ENDBRANCH   1   8
BRANCH   4  13
ATOM     13  C   UNL     1       9.537  -1.732  22.163  0.00  0.00    +0.046 C 
BRANCH  13  14
ATOM     14  C   UNL     1       8.439  -2.297  23.060  0.00  0.00    +0.060 C 
ATOM     15  C   UNL     1       8.861  -3.503  23.869  0.00  0.00    +0.137 C 
ATOM     16  O   UNL     1       9.973  -3.658  24.357  0.00  0.00    -0.297 OA
ATOM     17  C   UNL     1       7.729  -4.489  24.037  0.00  0.00    +0.074 C 
ATOM     18  C   UNL     1       6.576  -3.790  23.323  0.00  0.00    +0.008 C 
ATOM     19  C   UNL     1       7.248  -2.887  22.299  0.00  0.00    +0.012 C 
ENDBRANCH  13  14
ENDBRANCH   4  13
TORSDOF 5
ENDMDL
MODEL 2
REMARK VINA RESULT:      -6.3      2.652      7.510
REMARK  Name = 
REMARK  6 active torsions:
REMARK  status: ('A' for Active; 'I' for Inactive)
REMARK    1  A    between atoms: C_1  and  C_2
REMARK    2  A    between atoms: C_2  and  C_3
REMARK    3  A    between atoms: C_2  and  C_6
REMARK    4  A    between atoms: C_3  and  O_4
REMARK    5  A    between atoms: C_9  and  C_10
REMARK    6  A    between atoms: C_10  and  C_11
REMARK                            x       y       z     vdW  Elec       q    Type
REMARK                         _______ _______ _______ _____ _____    ______ ____
ROOT
ATOM      1  C   UNL     1       7.186  -4.549  23.598  0.00  0.00    -0.034 A 
ATOM      2  C   UNL     1       7.105  -3.585  22.582  0.00  0.00    +0.005 A 
ATOM      3  C   UNL     1       8.096  -2.611  22.442  0.00  0.00    +0.004 A 
ATOM      4  C   UNL     1       9.184  -2.572  23.320  0.00  0.00    -0.047 A 
ATOM      5  C   UNL     1       9.234  -3.494  24.373  0.00  0.00    +0.004 A 
ATOM      6  C   UNL     1       8.249  -4.476  24.508  0.00  0.00    +0.005 A 
ENDROOT
BRANCH   1   8
ATOM      7  C   UNL     1       5.440  -5.518  25.102  0.00  0.00    +0.024 C 
ATOM      8  C   UNL     1       6.132  -5.635  23.744  0.00  0.00    +0.124 C 
BRANCH   8   9
ATOM      9  C   UNL     1       5.111  -5.652  22.606  0.00  0.00    +0.312 C 
ATOM     10  O   UNL     1       4.037  -5.069  22.622  0.00  0.00    -0.250 OA
BRANCH   9  11
ATOM     11  O   UNL     1       5.480  -6.428  21.555  0.00  0.00    -0.480 OA
ATOM     12  H   UNL     1       4.725  -6.870  21.119  0.00  0.00    +0.295 HD
ENDBRANCH   9  11
ENDBRANCH   8   9
ENDBRANCH   1   8
BRANCH   4  13
ATOM     13  C   UNL     1      10.314  -1.592  23.096  0.00  0.00    +0.046 C 
BRANCH  13  14
ATOM     14  C   UNL     1       9.868  -0.159  23.376  0.00  0.00    +0.060 C 
ATOM     15  C   UNL     1       9.733   0.700  22.139  0.00  0.00    +0.137 C 
ATOM     16  O   UNL     1       9.327   0.300  21.056  0.00  0.00    -0.297 OA
ATOM     17  C   UNL     1      10.129   2.133  22.406  0.00  0.00    +0.074 C 
ATOM     18  C   UNL     1      10.467   2.108  23.894  0.00  0.00    +0.008 C 
ATOM     19  C   UNL     1      10.881   0.670  24.171  0.00  0.00    +0.012 C 
ENDBRANCH  13  14
ENDBRANCH   4  13
TORSDOF 5
ENDMDL
MODEL 3
REMARK VINA RESULT:      -6.2      1.046      1.434
REMARK  Name = 
REMARK  6 active torsions:
REMARK  status: ('A' for Active; 'I' for Inactive)
REMARK    1  A    between atoms: C_1  and  C_2
REMARK    2  A    between atoms: C_2  and  C_3
REMARK    3  A    between atoms: C_2  and  C_6
REMARK    4  A    between atoms: C_3  and  O_4
REMARK    5  A    between atoms: C_9  and  C_10
REMARK    6  A    between atoms: C_10  and  C_11
REMARK                            x       y       z     vdW  Elec       q    Type
REMARK                         _______ _______ _______ _____ _____    ______ ____
ROOT
ATOM      1  C   UNL     1       9.780   2.269  23.373  0.00  0.00    -0.034 A 
ATOM      2  C   UNL     1       9.797   1.619  22.131  0.00  0.00    +0.005 A 
ATOM      3  C   UNL     1       9.943   0.232  22.053  0.00  0.00    +0.004 A 
ATOM      4  C   UNL     1      10.086  -0.534  23.214  0.00  0.00    -0.047 A 
ATOM      5  C   UNL     1      10.133   0.120  24.452  0.00  0.00    +0.004 A 
ATOM      6  C   UNL     1       9.976   1.506  24.532  0.00  0.00    +0.005 A 
ENDROOT
BRANCH   1   8
ATOM      7  C   UNL     1       8.855   4.126  24.769  0.00  0.00    +0.024 C 
ATOM      8  C   UNL     1       9.590   3.775  23.475  0.00  0.00    +0.124 C 
BRANCH   8   9
ATOM      9  C   UNL     1      10.893   4.564  23.350  0.00  0.00    +0.312 C 
ATOM     10  O   UNL     1      12.013   4.084  23.441  0.00  0.00    -0.250 OA
BRANCH   9  11
ATOM     11  O   UNL     1      10.707   5.896  23.169  0.00  0.00    -0.480 OA
ATOM     12  H   UNL     1       9.765   6.155  23.147  0.00  0.00    +0.295 HD
ENDBRANCH   9  11
ENDBRANCH   8   9
ENDBRANCH   1   8
BRANCH   4  13
ATOM     13  C   UNL     1      10.126  -2.044  23.136  0.00  0.00    +0.046 C 
BRANCH  13  14
ATOM     14  C   UNL     1       8.828  -2.659  23.653  0.00  0.00    +0.060 C 
ATOM     15  C   UNL     1       8.980  -4.062  24.196  0.00  0.00    +0.137 C 
ATOM     16  O   UNL     1       9.954  -4.463  24.819  0.00  0.00    -0.297 OA
ATOM     17  C   UNL     1       7.764  -4.910  23.907  0.00  0.00    +0.074 C 
ATOM     18  C   UNL     1       6.838  -3.926  23.198  0.00  0.00    +0.008 C 
ATOM     19  C   UNL     1       7.773  -2.903  22.569  0.00  0.00    +0.012 C 
ENDBRANCH  13  14
ENDBRANCH   4  13
TORSDOF 5
ENDMDL
MODEL 4
REMARK VINA RESULT:      -6.1      2.804      7.595
REMARK  Name = 
REMARK  6 active torsions:
REMARK  status: ('A' for Active; 'I' for Inactive)
REMARK    1  A    between atoms: C_1  and  C_2
REMARK    2  A    between atoms: C_2  and  C_3
REMARK    3  A    between atoms: C_2  and  C_6
REMARK    4  A    between atoms: C_3  and  O_4
REMARK    5  A    between atoms: C_9  and  C_10
REMARK    6  A    between atoms: C_10  and  C_11
REMARK                            x       y       z     vdW  Elec       q    Type
REMARK                         _______ _______ _______ _____ _____    ______ ____
ROOT
ATOM      1  C   UNL     1       7.154  -4.041  25.778  0.00  0.00    -0.034 A 
ATOM      2  C   UNL     1       7.732  -2.873  26.296  0.00  0.00    +0.005 A 
ATOM      3  C   UNL     1       8.701  -2.175  25.572  0.00  0.00    +0.004 A 
ATOM      4  C   UNL     1       9.121  -2.634  24.319  0.00  0.00    -0.047 A 
ATOM      5  C   UNL     1       8.591  -3.834  23.829  0.00  0.00    +0.004 A 
ATOM      6  C   UNL     1       7.614  -4.528  24.546  0.00  0.00    +0.005 A 
ENDROOT
BRANCH   1   8
ATOM      7  C   UNL     1       5.476  -5.891  25.658  0.00  0.00    +0.024 C 
ATOM      8  C   UNL     1       6.075  -4.795  26.540  0.00  0.00    +0.124 C 
BRANCH   8   9
ATOM      9  C   UNL     1       6.555  -5.364  27.875  0.00  0.00    +0.312 C 
ATOM     10  O   UNL     1       6.032  -5.144  28.957  0.00  0.00    -0.250 OA
BRANCH   9  11
ATOM     11  O   UNL     1       7.674  -6.125  27.772  0.00  0.00    -0.480 OA
ATOM     12  H   UNL     1       7.540  -6.940  27.250  0.00  0.00    +0.295 HD
ENDBRANCH   9  11
ENDBRANCH   8   9
ENDBRANCH   1   8
BRANCH   4  13
ATOM     13  C   UNL     1      10.082  -1.814  23.486  0.00  0.00    +0.046 C 
BRANCH  13  14
ATOM     14  C   UNL     1       9.711  -0.334  23.511  0.00  0.00    +0.060 C 
ATOM     15  C   UNL     1       9.688   0.321  22.148  0.00  0.00    +0.137 C 
ATOM     16  O   UNL     1       9.310  -0.226  21.121  0.00  0.00    -0.297 OA
ATOM     17  C   UNL     1      10.158   1.756  22.207  0.00  0.00    +0.074 C 
ATOM     18  C   UNL     1      10.423   1.953  23.697  0.00  0.00    +0.008 C 
ATOM     19  C   UNL     1      10.734   0.558  24.221  0.00  0.00    +0.012 C 
ENDBRANCH  13  14
ENDBRANCH   4  13
TORSDOF 5
ENDMDL
MODEL 5
REMARK VINA RESULT:      -6.1      1.863      6.784
REMARK  Name = 
REMARK  6 active torsions:
REMARK  status: ('A' for Active; 'I' for Inactive)
REMARK    1  A    between atoms: C_1  and  C_2
REMARK    2  A    between atoms: C_2  and  C_3
REMARK    3  A    between atoms: C_2  and  C_6
REMARK    4  A    between atoms: C_3  and  O_4
REMARK    5  A    between atoms: C_9  and  C_10
REMARK    6  A    between atoms: C_10  and  C_11
REMARK                            x       y       z     vdW  Elec       q    Type
REMARK                         _______ _______ _______ _____ _____    ______ ____
ROOT
ATOM      1  C   UNL     1       8.793  -2.757  24.846  0.00  0.00    -0.034 A 
ATOM      2  C   UNL     1       8.612  -1.694  25.742  0.00  0.00    +0.005 A 
ATOM      3  C   UNL     1       9.289  -0.486  25.561  0.00  0.00    +0.004 A 
ATOM      4  C   UNL     1      10.169  -0.318  24.488  0.00  0.00    -0.047 A 
ATOM      5  C   UNL     1      10.399  -1.400  23.629  0.00  0.00    +0.004 A 
ATOM      6  C   UNL     1       9.715  -2.606  23.802  0.00  0.00    +0.005 A 
ENDROOT
BRANCH   1   8
ATOM      7  C   UNL     1       7.946  -4.796  23.671  0.00  0.00    +0.024 C 
ATOM      8  C   UNL     1       8.039  -4.068  25.012  0.00  0.00    +0.124 C 
BRANCH   8   9
ATOM      9  C   UNL     1       8.625  -4.978  26.092  0.00  0.00    +0.312 C 
ATOM     10  O   UNL     1       8.189  -5.084  27.228  0.00  0.00    -0.250 OA
BRANCH   9  11
ATOM     11  O   UNL     1       9.735  -5.650  25.694  0.00  0.00    -0.480 OA
ATOM     12  H   UNL     1       9.565  -6.277  24.963  0.00  0.00    +0.295 HD
ENDBRANCH   9  11
ENDBRANCH   8   9
ENDBRANCH   1   8
BRANCH   4  13
ATOM     13  C   UNL     1      10.810   1.028  24.226  0.00  0.00    +0.046 C 
BRANCH  13  14
ATOM     14  C   UNL     1       9.990   1.846  23.232  0.00  0.00    +0.060 C 
ATOM     15  C   UNL     1       8.765   2.499  23.829  0.00  0.00    +0.137 C 
ATOM     16  O   UNL     1       8.707   2.964  24.960  0.00  0.00    -0.297 OA
ATOM     17  C   UNL     1       7.617   2.541  22.848  0.00  0.00    +0.074 C 
ATOM     18  C   UNL     1       8.232   1.919  21.597  0.00  0.00    +0.008 C 
ATOM     19  C   UNL     1       9.339   1.016  22.121  0.00  0.00    +0.012 C 
ENDBRANCH  13  14
ENDBRANCH   4  13
TORSDOF 5
ENDMDL
MODEL 6
REMARK VINA RESULT:      -6.0      1.674      2.767
REMARK  Name = 
REMARK  6 active torsions:
REMARK  status: ('A' for Active; 'I' for Inactive)
REMARK    1  A    between atoms: C_1  and  C_2
REMARK    2  A    between atoms: C_2  and  C_3
REMARK    3  A    between atoms: C_2  and  C_6
REMARK    4  A    between atoms: C_3  and  O_4
REMARK    5  A    between atoms: C_9  and  C_10
REMARK    6  A    between atoms: C_10  and  C_11
REMARK                            x       y       z     vdW  Elec       q    Type
REMARK                         _______ _______ _______ _____ _____    ______ ____
ROOT
ATOM      1  C   UNL     1       8.478   0.785  22.227  0.00  0.00    -0.034 A 
ATOM      2  C   UNL     1       7.300   0.331  22.837  0.00  0.00    +0.005 A 
ATOM      3  C   UNL     1       7.042  -1.036  22.962  0.00  0.00    +0.004 A 
ATOM      4  C   UNL     1       7.951  -1.979  22.471  0.00  0.00    -0.047 A 
ATOM      5  C   UNL     1       9.098  -1.527  21.806  0.00  0.00    +0.004 A 
ATOM      6  C   UNL     1       9.362  -0.160  21.689  0.00  0.00    +0.005 A 
ENDROOT
BRANCH   1   8
ATOM      7  C   UNL     1       7.490   3.077  22.073  0.00  0.00    +0.024 C 
ATOM      8  C   UNL     1       8.788   2.270  22.111  0.00  0.00    +0.124 C 
BRANCH   8   9
ATOM      9  C   UNL     1       9.724   2.785  23.204  0.00  0.00    +0.312 C 
ATOM     10  O   UNL     1       9.483   2.756  24.402  0.00  0.00    -0.250 OA
BRANCH   9  11
ATOM     11  O   UNL     1      10.866   3.340  22.726  0.00  0.00    -0.480 OA
ATOM     12  H   UNL     1      10.928   3.315  21.751  0.00  0.00    +0.295 HD
ENDBRANCH   9  11
ENDBRANCH   8   9
ENDBRANCH   1   8
BRANCH   4  13
ATOM     13  C   UNL     1       7.728  -3.456  22.712  0.00  0.00    +0.046 C 
BRANCH  13  14
ATOM     14  C   UNL     1       7.626  -3.763  24.204  0.00  0.00    +0.060 C 
ATOM     15  C   UNL     1       8.885  -4.349  24.803  0.00  0.00    +0.137 C 
ATOM     16  O   UNL     1      10.021  -4.029  24.480  0.00  0.00    -0.297 OA
ATOM     17  C   UNL     1       8.575  -5.360  25.881  0.00  0.00    +0.074 C 
ATOM     18  C   UNL     1       7.051  -5.321  25.939  0.00  0.00    +0.008 C 
ATOM     19  C   UNL     1       6.624  -4.869  24.550  0.00  0.00    +0.012 C 
ENDBRANCH  13  14
ENDBRANCH   4  13
TORSDOF 5
ENDMDL
MODEL 7
REMARK VINA RESULT:      -6.0      2.616      3.902
REMARK  Name = 
REMARK  6 active torsions:
REMARK  status: ('A' for Active; 'I' for Inactive)
REMARK    1  A    between atoms: C_1  and  C_2
REMARK    2  A    between atoms: C_2  and  C_3
REMARK    3  A    between atoms: C_2  and  C_6
REMARK    4  A    between atoms: C_3  and  O_4
REMARK    5  A    between atoms: C_9  and  C_10
REMARK    6  A    between atoms: C_10  and  C_11
REMARK                            x       y       z     vdW  Elec       q    Type
REMARK                         _______ _______ _______ _____ _____    ______ ____
ROOT
ATOM      1  C   UNL     1       9.130  -0.551  23.789  0.00  0.00    -0.034 A 
ATOM      2  C   UNL     1      10.112  -1.551  23.762  0.00  0.00    +0.005 A 
ATOM      3  C   UNL     1       9.797  -2.869  24.102  0.00  0.00    +0.004 A 
ATOM      4  C   UNL     1       8.497  -3.213  24.486  0.00  0.00    -0.047 A 
ATOM      5  C   UNL     1       7.531  -2.204  24.574  0.00  0.00    +0.004 A 
ATOM      6  C   UNL     1       7.841  -0.887  24.224  0.00  0.00    +0.005 A 
ENDROOT
BRANCH   1   8
ATOM      7  C   UNL     1      10.717   1.356  24.102  0.00  0.00    +0.024 C 
ATOM      8  C   UNL     1       9.449   0.882  23.391  0.00  0.00    +0.124 C 
BRANCH   8   9
ATOM      9  C   UNL     1       9.557   1.087  21.880  0.00  0.00    +0.312 C 
ATOM     10  O   UNL     1       9.158   0.297  21.037  0.00  0.00    -0.250 OA
BRANCH   9  11
ATOM     11  O   UNL     1      10.194   2.234  21.530  0.00  0.00    -0.480 OA
ATOM     12  H   UNL     1      11.138   2.101  21.318  0.00  0.00    +0.295 HD
ENDBRANCH   9  11
ENDBRANCH   8   9
ENDBRANCH   1   8
BRANCH   4  13
ATOM     13  C   UNL     1       8.131  -4.659  24.739  0.00  0.00    +0.046 C 
BRANCH  13  14
ATOM     14  C   UNL     1       6.739  -4.777  25.355  0.00  0.00    +0.060 C 
ATOM     15  C   UNL     1       6.689  -5.612  26.615  0.00  0.00    +0.137 C 
ATOM     16  O   UNL     1       7.568  -5.638  27.467  0.00  0.00    -0.297 OA
ATOM     17  C   UNL     1       5.400  -6.391  26.720  0.00  0.00    +0.074 C 
ATOM     18  C   UNL     1       4.644  -5.945  25.472  0.00  0.00    +0.008 C 
ATOM     19  C   UNL     1       5.731  -5.538  24.488  0.00  0.00    +0.012 C 
ENDBRANCH  13  14
ENDBRANCH   4  13
TORSDOF 5
ENDMDL
MODEL 8
REMARK VINA RESULT:      -6.0      1.729      7.230
REMARK  Name = 
REMARK  6 active torsions:
REMARK  status: ('A' for Active; 'I' for Inactive)
REMARK    1  A    between atoms: C_1  and  C_2
REMARK    2  A    between atoms: C_2  and  C_3
REMARK    3  A    between atoms: C_2  and  C_6
REMARK    4  A    between atoms: C_3  and  O_4
REMARK    5  A    between atoms: C_9  and  C_10
REMARK    6  A    between atoms: C_10  and  C_11
REMARK                            x       y       z     vdW  Elec       q    Type
REMARK                         _______ _______ _______ _____ _____    ______ ____
ROOT
ATOM      1  C   UNL     1       8.742  -2.678  24.786  0.00  0.00    -0.034 A 
ATOM      2  C   UNL     1       9.311  -2.240  23.582  0.00  0.00    +0.005 A 
ATOM      3  C   UNL     1       9.886  -0.971  23.484  0.00  0.00    +0.004 A 
ATOM      4  C   UNL     1       9.896  -0.108  24.585  0.00  0.00    -0.047 A 
ATOM      5  C   UNL     1       9.272  -0.520  25.769  0.00  0.00    +0.004 A 
ATOM      6  C   UNL     1       8.705  -1.793  25.872  0.00  0.00    +0.005 A 
ENDROOT
BRANCH   1   8
ATOM      7  C   UNL     1       7.646  -4.559  23.555  0.00  0.00    +0.024 C 
ATOM      8  C   UNL     1       8.139  -4.068  24.916  0.00  0.00    +0.124 C 
BRANCH   8   9
ATOM      9  C   UNL     1       9.083  -5.085  25.559  0.00  0.00    +0.312 C 
ATOM     10  O   UNL     1      10.256  -5.240  25.254  0.00  0.00    -0.250 OA
BRANCH   9  11
ATOM     11  O   UNL     1       8.488  -5.863  26.498  0.00  0.00    -0.480 OA
ATOM     12  H   UNL     1       8.697  -5.591  27.413  0.00  0.00    +0.295 HD
ENDBRANCH   9  11
ENDBRANCH   8   9
ENDBRANCH   1   8
BRANCH   4  13
ATOM     13  C   UNL     1      10.623   1.217  24.513  0.00  0.00    +0.046 C 
BRANCH  13  14
ATOM     14  C   UNL     1       9.735   2.302  23.908  0.00  0.00    +0.060 C 
ATOM     15  C   UNL     1      10.444   3.614  23.661  0.00  0.00    +0.137 C 
ATOM     16  O   UNL     1      11.606   3.718  23.292  0.00  0.00    -0.297 OA
ATOM     17  C   UNL     1       9.532   4.796  23.893  0.00  0.00    +0.074 C 
ATOM     18  C   UNL     1       8.209   4.124  24.248  0.00  0.00    +0.008 C 
ATOM     19  C   UNL     1       8.605   2.774  24.828  0.00  0.00    +0.012 C 
ENDBRANCH  13  14
ENDBRANCH   4  13
TORSDOF 5
ENDMDL
MODEL 9
REMARK VINA RESULT:      -6.0      2.016      6.800
REMARK  Name = 
REMARK  6 active torsions:
REMARK  status: ('A' for Active; 'I' for Inactive)
REMARK    1  A    between atoms: C_1  and  C_2
REMARK    2  A    between atoms: C_2  and  C_3
REMARK    3  A    between atoms: C_2  and  C_6
REMARK    4  A    between atoms: C_3  and  O_4
REMARK    5  A    between atoms: C_9  and  C_10
REMARK    6  A    between atoms: C_10  and  C_11
REMARK                            x       y       z     vdW  Elec       q    Type
REMARK                         _______ _______ _______ _____ _____    ______ ____
ROOT
ATOM      1  C   UNL     1       8.500  -2.360  22.890  0.00  0.00    -0.034 A 
ATOM      2  C   UNL     1       8.894  -2.087  24.208  0.00  0.00    +0.005 A 
ATOM      3  C   UNL     1       9.659  -0.956  24.504  0.00  0.00    +0.004 A 
ATOM      4  C   UNL     1      10.056  -0.080  23.489  0.00  0.00    -0.047 A 
ATOM      5  C   UNL     1       9.717  -0.386  22.164  0.00  0.00    +0.004 A 
ATOM      6  C   UNL     1       8.943  -1.510  21.868  0.00  0.00    +0.005 A 
ENDROOT
BRANCH   1   8
ATOM      7  C   UNL     1       7.576  -4.517  23.755  0.00  0.00    +0.024 C 
ATOM      8  C   UNL     1       7.640  -3.570  22.557  0.00  0.00    +0.124 C 
BRANCH   8   9
ATOM      9  C   UNL     1       6.239  -3.206  22.066  0.00  0.00    +0.312 C 
ATOM     10  O   UNL     1       5.691  -3.697  21.090  0.00  0.00    -0.250 OA
BRANCH   9  11
ATOM     11  O   UNL     1       5.643  -2.230  22.796  0.00  0.00    -0.480 OA
ATOM     12  H   UNL     1       4.774  -1.959  22.440  0.00  0.00    +0.295 HD
ENDBRANCH   9  11
ENDBRANCH   8   9
ENDBRANCH   1   8
BRANCH   4  13
ATOM     13  C   UNL     1      10.783   1.203  23.825  0.00  0.00    +0.046 C 
BRANCH  13  14
ATOM     14  C   UNL     1       9.908   2.423  23.546  0.00  0.00    +0.060 C 
ATOM     15  C   UNL     1      10.652   3.738  23.577  0.00  0.00    +0.137 C 
ATOM     16  O   UNL     1      11.797   3.898  23.176  0.00  0.00    -0.297 OA
ATOM     17  C   UNL     1       9.798   4.853  24.134  0.00  0.00    +0.074 C 
ATOM     18  C   UNL     1       8.470   4.149  24.396  0.00  0.00    +0.008 C 
ATOM     19  C   UNL     1       8.844   2.690  24.616  0.00  0.00    +0.012 C 
ENDBRANCH  13  14
ENDBRANCH   4  13
TORSDOF 5
ENDMDL
