MODEL 1
REMARK VINA RESULT:      -5.4      0.000      0.000
REMARK  Name = 
REMARK  5 active torsions:
REMARK  status: ('A' for Active; 'I' for Inactive)
REMARK    1  A    between atoms: O_1  and  C_2
REMARK    2  A    between atoms: C_5  and  N_13
REMARK    3  A    between atoms: C_7  and  O_8
REMARK    4  A    between atoms: O_8  and  S_9
REMARK    5  A    between atoms: S_9  and  O_10
REMARK                            x       y       z     vdW  Elec       q    Type
REMARK                         _______ _______ _______ _____ _____    ______ ____
ROOT
ATOM      1  C   UNL     1       9.817   1.066  22.202  0.00  0.00    +0.162 A 
ATOM      2  C   UNL     1       9.716   1.154  23.593  0.00  0.00    +0.206 A 
ATOM      3  C   UNL     1       9.599  -0.015  24.350  0.00  0.00    +0.136 A 
ATOM      4  C   UNL     1       9.541  -1.259  23.709  0.00  0.00    +0.277 A 
ATOM      5  C   UNL     1       9.607  -1.341  22.312  0.00  0.00    +0.088 A 
ATOM      6  C   UNL     1       9.748  -0.173  21.559  0.00  0.00    +0.056 A 
ENDROOT
BRANCH   4   7
ATOM      7  N   UNL     1       9.427  -2.485  24.510  0.00  0.00    +0.080 N 
ATOM      8  O   UNL     1       8.695  -2.455  25.508  0.00  0.00    +0.041 OA
ATOM      9  O   UNL     1      10.076  -3.474  24.141  0.00  0.00    -0.576 OA
ENDBRANCH   4   7
BRANCH   1  10
ATOM     10  O   UNL     1      10.028   2.190  21.449  0.00  0.00    -0.503 OA
ATOM     11  H   UNL     1      10.590   2.790  21.980  0.00  0.00    +0.292 HD
ENDBRANCH   1  10
BRANCH   2  12
ATOM     12  O   UNL     1       9.776   2.309  24.328  0.00  0.00    -0.321 OA
BRANCH  12  13
ATOM     13  S   UNL     1       8.734   3.549  24.133  0.00  0.00    +0.251 S 
ATOM     14  O   UNL     1       8.543   4.170  25.426  0.00  0.00    -0.108 OA
ATOM     15  O   UNL     1       7.594   3.125  23.347  0.00  0.00    -0.108 OA
BRANCH  13  16
ATOM     16  O   UNL     1       9.579   4.584  23.225  0.00  0.00    -0.222 OA
ATOM     17  H   UNL     1      10.529   4.379  23.375  0.00  0.00    +0.248 HD
ENDBRANCH  13  16
ENDBRANCH  12  13
ENDBRANCH   2  12
TORSDOF 5
ENDMDL
MODEL 2
REMARK VINA RESULT:      -5.3      3.580      4.863
REMARK  Name = 
REMARK  5 active torsions:
REMARK  status: ('A' for Active; 'I' for Inactive)
REMARK    1  A    between atoms: O_1  and  C_2
REMARK    2  A    between atoms: C_5  and  N_13
REMARK    3  A    between atoms: C_7  and  O_8
REMARK    4  A    between atoms: O_8  and  S_9
REMARK    5  A    between atoms: S_9  and  O_10
REMARK                            x       y       z     vdW  Elec       q    Type
REMARK                         _______ _______ _______ _____ _____    ______ ____
ROOT
ATOM      1  C   UNL     1       8.604  -2.810  24.331  0.00  0.00    +0.162 A 
ATOM      2  C   UNL     1       8.081  -2.316  23.134  0.00  0.00    +0.206 A 
ATOM      3  C   UNL     1       7.396  -3.179  22.273  0.00  0.00    +0.136 A 
ATOM      4  C   UNL     1       7.278  -4.536  22.596  0.00  0.00    +0.277 A 
ATOM      5  C   UNL     1       7.835  -5.036  23.780  0.00  0.00    +0.088 A 
ATOM      6  C   UNL     1       8.498  -4.167  24.649  0.00  0.00    +0.056 A 
ENDROOT
BRANCH   4   7
ATOM      7  N   UNL     1       6.551  -5.437  21.692  0.00  0.00    +0.080 N 
ATOM      8  O   UNL     1       6.622  -6.654  21.910  0.00  0.00    +0.041 OA
ATOM      9  O   UNL     1       5.913  -4.924  20.761  0.00  0.00    -0.576 OA
ENDBRANCH   4   7
BRANCH   1  10
ATOM     10  O   UNL     1       9.195  -1.965  25.232  0.00  0.00    -0.503 OA
ATOM     11  H   UNL     1      10.136  -1.887  24.977  0.00  0.00    +0.292 HD
ENDBRANCH   1  10
BRANCH   2  12
ATOM     12  O   UNL     1       8.122  -1.009  22.722  0.00  0.00    -0.321 OA
BRANCH  12  13
ATOM     13  S   UNL     1       9.474  -0.289  22.161  0.00  0.00    +0.251 S 
ATOM     14  O   UNL     1      10.278   0.088  23.303  0.00  0.00    -0.108 OA
ATOM     15  O   UNL     1       9.136   0.688  21.146  0.00  0.00    -0.108 OA
BRANCH  13  16
ATOM     16  O   UNL     1      10.239  -1.501  21.416  0.00  0.00    -0.222 OA
ATOM     17  H   UNL     1      10.023  -2.320  21.916  0.00  0.00    +0.248 HD
ENDBRANCH  13  16
ENDBRANCH  12  13
ENDBRANCH   2  12
TORSDOF 5
ENDMDL
MODEL 3
REMARK VINA RESULT:      -5.3      2.180      3.243
REMARK  Name = 
REMARK  5 active torsions:
REMARK  status: ('A' for Active; 'I' for Inactive)
REMARK    1  A    between atoms: O_1  and  C_2
REMARK    2  A    between atoms: C_5  and  N_13
REMARK    3  A    between atoms: C_7  and  O_8
REMARK    4  A    between atoms: O_8  and  S_9
REMARK    5  A    between atoms: S_9  and  O_10
REMARK                            x       y       z     vdW  Elec       q    Type
REMARK                         _______ _______ _______ _____ _____    ______ ____
ROOT
ATOM      1  C   UNL     1       8.985  -0.076  25.432  0.00  0.00    +0.162 A 
ATOM      2  C   UNL     1       9.626  -0.514  24.271  0.00  0.00    +0.206 A 
ATOM      3  C   UNL     1       9.674  -1.882  23.984  0.00  0.00    +0.136 A 
ATOM      4  C   UNL     1       9.117  -2.802  24.882  0.00  0.00    +0.277 A 
ATOM      5  C   UNL     1       8.506  -2.362  26.063  0.00  0.00    +0.088 A 
ATOM      6  C   UNL     1       8.439  -0.993  26.335  0.00  0.00    +0.056 A 
ENDROOT
BRANCH   4   7
ATOM      7  N   UNL     1       9.161  -4.237  24.572  0.00  0.00    +0.080 N 
ATOM      8  O   UNL     1       8.182  -4.734  24.000  0.00  0.00    +0.041 OA
ATOM      9  O   UNL     1      10.175  -4.866  24.908  0.00  0.00    -0.576 OA
ENDBRANCH   4   7
BRANCH   1  10
ATOM     10  O   UNL     1       8.844   1.262  25.684  0.00  0.00    -0.503 OA
ATOM     11  H   UNL     1       9.745   1.634  25.772  0.00  0.00    +0.292 HD
ENDBRANCH   1  10
BRANCH   2  12
ATOM     12  O   UNL     1      10.191   0.291  23.316  0.00  0.00    -0.321 OA
BRANCH  12  13
ATOM     13  S   UNL     1       9.350   0.929  22.072  0.00  0.00    +0.251 S 
ATOM     14  O   UNL     1       8.131   1.494  22.610  0.00  0.00    -0.108 OA
ATOM     15  O   UNL     1       9.301  -0.008  20.969  0.00  0.00    -0.108 OA
BRANCH  13  16
ATOM     16  O   UNL     1      10.284   2.162  21.607  0.00  0.00    -0.222 OA
ATOM     17  H   UNL     1      11.017   1.775  21.078  0.00  0.00    +0.248 HD
ENDBRANCH  13  16
ENDBRANCH  12  13
ENDBRANCH   2  12
TORSDOF 5
ENDMDL
MODEL 4
REMARK VINA RESULT:      -5.3      1.769      2.479
REMARK  Name = 
REMARK  5 active torsions:
REMARK  status: ('A' for Active; 'I' for Inactive)
REMARK    1  A    between atoms: O_1  and  C_2
REMARK    2  A    between atoms: C_5  and  N_13
REMARK    3  A    between atoms: C_7  and  O_8
REMARK    4  A    between atoms: O_8  and  S_9
REMARK    5  A    between atoms: S_9  and  O_10
REMARK                            x       y       z     vdW  Elec       q    Type
REMARK                         _______ _______ _______ _____ _____    ______ ____
ROOT
ATOM      1  C   UNL     1       9.213  -1.263  22.237  0.00  0.00    +0.162 A 
ATOM      2  C   UNL     1       9.705  -0.602  23.365  0.00  0.00    +0.206 A 
ATOM      3  C   UNL     1       9.394  -1.086  24.639  0.00  0.00    +0.136 A 
ATOM      4  C   UNL     1       8.560  -2.202  24.776  0.00  0.00    +0.277 A 
ATOM      5  C   UNL     1       8.038  -2.842  23.644  0.00  0.00    +0.088 A 
ATOM      6  C   UNL     1       8.369  -2.370  22.372  0.00  0.00    +0.056 A 
ENDROOT
BRANCH   4   7
ATOM      7  N   UNL     1       8.243  -2.713  26.116  0.00  0.00    +0.080 N 
ATOM      8  O   UNL     1       8.808  -3.751  26.486  0.00  0.00    +0.041 OA
ATOM      9  O   UNL     1       7.424  -2.076  26.794  0.00  0.00    -0.576 OA
ENDBRANCH   4   7
BRANCH   1  10
ATOM     10  O   UNL     1       9.581  -0.863  20.981  0.00  0.00    -0.503 OA
ATOM     11  H   UNL     1      10.396  -1.354  20.752  0.00  0.00    +0.292 HD
ENDBRANCH   1  10
BRANCH   2  12
ATOM     12  O   UNL     1      10.539   0.486  23.354  0.00  0.00    -0.321 OA
BRANCH  12  13
ATOM     13  S   UNL     1      10.020   2.010  23.092  0.00  0.00    +0.251 S 
ATOM     14  O   UNL     1      11.046   2.912  23.569  0.00  0.00    -0.108 OA
ATOM     15  O   UNL     1       8.650   2.155  23.540  0.00  0.00    -0.108 OA
BRANCH  13  16
ATOM     16  O   UNL     1      10.006   2.110  21.481  0.00  0.00    -0.222 OA
ATOM     17  H   UNL     1      10.945   2.172  21.194  0.00  0.00    +0.248 HD
ENDBRANCH  13  16
ENDBRANCH  12  13
ENDBRANCH   2  12
TORSDOF 5
ENDMDL
MODEL 5
REMARK VINA RESULT:      -5.2      4.346      6.906
REMARK  Name = 
REMARK  5 active torsions:
REMARK  status: ('A' for Active; 'I' for Inactive)
REMARK    1  A    between atoms: O_1  and  C_2
REMARK    2  A    between atoms: C_5  and  N_13
REMARK    3  A    between atoms: C_7  and  O_8
REMARK    4  A    between atoms: O_8  and  S_9
REMARK    5  A    between atoms: S_9  and  O_10
REMARK                            x       y       z     vdW  Elec       q    Type
REMARK                         _______ _______ _______ _____ _____    ______ ____
ROOT
ATOM      1  C   UNL     1       6.884  -4.732  23.508  0.00  0.00    +0.162 A 
ATOM      2  C   UNL     1       7.858  -4.708  24.509  0.00  0.00    +0.206 A 
ATOM      3  C   UNL     1       8.863  -3.737  24.470  0.00  0.00    +0.136 A 
ATOM      4  C   UNL     1       8.910  -2.825  23.408  0.00  0.00    +0.277 A 
ATOM      5  C   UNL     1       7.952  -2.874  22.386  0.00  0.00    +0.088 A 
ATOM      6  C   UNL     1       6.936  -3.831  22.441  0.00  0.00    +0.056 A 
ENDROOT
BRANCH   4   7
ATOM      7  N   UNL     1       9.962  -1.801  23.376  0.00  0.00    +0.080 N 
ATOM      8  O   UNL     1      10.049  -1.033  24.343  0.00  0.00    +0.041 OA
ATOM      9  O   UNL     1      10.696  -1.763  22.377  0.00  0.00    -0.576 OA
ENDBRANCH   4   7
BRANCH   1  10
ATOM     10  O   UNL     1       5.838  -5.613  23.578  0.00  0.00    -0.503 OA
ATOM     11  H   UNL     1       5.109  -5.155  24.044  0.00  0.00    +0.292 HD
ENDBRANCH   1  10
BRANCH   2  12
ATOM     12  O   UNL     1       7.905  -5.536  25.600  0.00  0.00    -0.321 OA
BRANCH  12  13
ATOM     13  S   UNL     1       6.795  -5.506  26.795  0.00  0.00    +0.251 S 
ATOM     14  O   UNL     1       5.735  -6.423  26.434  0.00  0.00    -0.108 OA
ATOM     15  O   UNL     1       6.490  -4.138  27.159  0.00  0.00    -0.108 OA
BRANCH  13  16
ATOM     16  O   UNL     1       7.592  -6.162  28.038  0.00  0.00    -0.222 OA
ATOM     17  H   UNL     1       7.320  -7.106  28.080  0.00  0.00    +0.248 HD
ENDBRANCH  13  16
ENDBRANCH  12  13
ENDBRANCH   2  12
TORSDOF 5
ENDMDL
MODEL 6
REMARK VINA RESULT:      -5.2      2.574      5.094
REMARK  Name = 
REMARK  5 active torsions:
REMARK  status: ('A' for Active; 'I' for Inactive)
REMARK    1  A    between atoms: O_1  and  C_2
REMARK    2  A    between atoms: C_5  and  N_13
REMARK    3  A    between atoms: C_7  and  O_8
REMARK    4  A    between atoms: O_8  and  S_9
REMARK    5  A    between atoms: S_9  and  O_10
REMARK                            x       y       z     vdW  Elec       q    Type
REMARK                         _______ _______ _______ _____ _____    ______ ____
ROOT
ATOM      1  C   UNL     1       9.734  -0.465  22.103  0.00  0.00    +0.162 A 
ATOM      2  C   UNL     1       9.820  -0.628  23.488  0.00  0.00    +0.206 A 
ATOM      3  C   UNL     1       9.507   0.444  24.329  0.00  0.00    +0.136 A 
ATOM      4  C   UNL     1       9.153   1.682  23.778  0.00  0.00    +0.277 A 
ATOM      5  C   UNL     1       9.103   1.853  22.389  0.00  0.00    +0.088 A 
ATOM      6  C   UNL     1       9.393   0.773  21.551  0.00  0.00    +0.056 A 
ENDROOT
BRANCH   4   7
ATOM      7  N   UNL     1       8.817   2.802  24.666  0.00  0.00    +0.080 N 
ATOM      8  O   UNL     1       8.051   2.578  25.614  0.00  0.00    +0.041 OA
ATOM      9  O   UNL     1       9.315   3.908  24.409  0.00  0.00    -0.576 OA
ENDBRANCH   4   7
BRANCH   1  10
ATOM     10  O   UNL     1       9.943  -1.526  21.265  0.00  0.00    -0.503 OA
ATOM     11  H   UNL     1       9.520  -1.305  20.411  0.00  0.00    +0.292 HD
ENDBRANCH   1  10
BRANCH   2  12
ATOM     12  O   UNL     1      10.139  -1.792  24.138  0.00  0.00    -0.321 OA
BRANCH  12  13
ATOM     13  S   UNL     1       9.059  -2.979  24.432  0.00  0.00    +0.251 S 
ATOM     14  O   UNL     1       8.299  -3.192  23.219  0.00  0.00    -0.108 OA
ATOM     15  O   UNL     1       8.383  -2.738  25.690  0.00  0.00    -0.108 OA
BRANCH  13  16
ATOM     16  O   UNL     1      10.002  -4.274  24.640  0.00  0.00    -0.222 OA
ATOM     17  H   UNL     1       9.907  -4.823  23.830  0.00  0.00    +0.248 HD
ENDBRANCH  13  16
ENDBRANCH  12  13
ENDBRANCH   2  12
TORSDOF 5
ENDMDL
MODEL 7
REMARK VINA RESULT:      -5.1      3.033      5.947
REMARK  Name = 
REMARK  5 active torsions:
REMARK  status: ('A' for Active; 'I' for Inactive)
REMARK    1  A    between atoms: O_1  and  C_2
REMARK    2  A    between atoms: C_5  and  N_13
REMARK    3  A    between atoms: C_7  and  O_8
REMARK    4  A    between atoms: O_8  and  S_9
REMARK    5  A    between atoms: S_9  and  O_10
REMARK                            x       y       z     vdW  Elec       q    Type
REMARK                         _______ _______ _______ _____ _____    ______ ____
ROOT
ATOM      1  C   UNL     1       7.759  -2.336  23.137  0.00  0.00    +0.162 A 
ATOM      2  C   UNL     1       8.959  -2.585  23.808  0.00  0.00    +0.206 A 
ATOM      3  C   UNL     1       9.709  -1.512  24.299  0.00  0.00    +0.136 A 
ATOM      4  C   UNL     1       9.275  -0.199  24.078  0.00  0.00    +0.277 A 
ATOM      5  C   UNL     1       8.090   0.049  23.374  0.00  0.00    +0.088 A 
ATOM      6  C   UNL     1       7.331  -1.026  22.905  0.00  0.00    +0.056 A 
ENDROOT
BRANCH   4   7
ATOM      7  N   UNL     1      10.062   0.924  24.604  0.00  0.00    +0.080 N 
ATOM      8  O   UNL     1      11.235   0.702  24.934  0.00  0.00    +0.041 OA
ATOM      9  O   UNL     1       9.502   2.027  24.691  0.00  0.00    -0.576 OA
ENDBRANCH   4   7
BRANCH   1  10
ATOM     10  O   UNL     1       6.963  -3.373  22.732  0.00  0.00    -0.503 OA
ATOM     11  H   UNL     1       6.054  -3.020  22.647  0.00  0.00    +0.292 HD
ENDBRANCH   1  10
BRANCH   2  12
ATOM     12  O   UNL     1       9.474  -3.822  24.095  0.00  0.00    -0.321 OA
BRANCH  12  13
ATOM     13  S   UNL     1       8.910  -4.769  25.298  0.00  0.00    +0.251 S 
ATOM     14  O   UNL     1       7.621  -5.281  24.887  0.00  0.00    -0.108 OA
ATOM     15  O   UNL     1       9.062  -4.099  26.573  0.00  0.00    -0.108 OA
BRANCH  13  16
ATOM     16  O   UNL     1       9.944  -6.010  25.287  0.00  0.00    -0.222 OA
ATOM     17  H   UNL     1       9.430  -6.806  25.551  0.00  0.00    +0.248 HD
ENDBRANCH  13  16
ENDBRANCH  12  13
ENDBRANCH   2  12
TORSDOF 5
ENDMDL
MODEL 8
REMARK VINA RESULT:      -5.0      6.053      8.167
REMARK  Name = 
REMARK  5 active torsions:
REMARK  status: ('A' for Active; 'I' for Inactive)
REMARK    1  A    between atoms: O_1  and  C_2
REMARK    2  A    between atoms: C_5  and  N_13
REMARK    3  A    between atoms: C_7  and  O_8
REMARK    4  A    between atoms: O_8  and  S_9
REMARK    5  A    between atoms: S_9  and  O_10
REMARK                            x       y       z     vdW  Elec       q    Type
REMARK                         _______ _______ _______ _____ _____    ______ ____
ROOT
ATOM      1  C   UNL     1       7.886  -4.602  25.993  0.00  0.00    +0.162 A 
ATOM      2  C   UNL     1       6.702  -5.328  25.847  0.00  0.00    +0.206 A 
ATOM      3  C   UNL     1       5.853  -5.054  24.770  0.00  0.00    +0.136 A 
ATOM      4  C   UNL     1       6.176  -4.029  23.872  0.00  0.00    +0.277 A 
ATOM      5  C   UNL     1       7.346  -3.278  24.041  0.00  0.00    +0.088 A 
ATOM      6  C   UNL     1       8.204  -3.570  25.105  0.00  0.00    +0.056 A 
ENDROOT
BRANCH   4   7
ATOM      7  N   UNL     1       5.286  -3.751  22.737  0.00  0.00    +0.080 N 
ATOM      8  O   UNL     1       4.294  -4.478  22.590  0.00  0.00    +0.041 OA
ATOM      9  O   UNL     1       5.586  -2.808  21.990  0.00  0.00    -0.576 OA
ENDBRANCH   4   7
BRANCH   1  10
ATOM     10  O   UNL     1       8.776  -4.917  26.984  0.00  0.00    -0.503 OA
ATOM     11  H   UNL     1       8.269  -5.361  27.694  0.00  0.00    +0.292 HD
ENDBRANCH   1  10
BRANCH   2  12
ATOM     12  O   UNL     1       6.292  -6.360  26.651  0.00  0.00    -0.321 OA
BRANCH  12  13
ATOM     13  S   UNL     1       5.591  -6.136  28.107  0.00  0.00    +0.251 S 
ATOM     14  O   UNL     1       4.280  -5.567  27.881  0.00  0.00    -0.108 OA
ATOM     15  O   UNL     1       6.521  -5.499  29.016  0.00  0.00    -0.108 OA
BRANCH  13  16
ATOM     16  O   UNL     1       5.373  -7.647  28.633  0.00  0.00    -0.222 OA
ATOM     17  H   UNL     1       6.088  -7.824  29.285  0.00  0.00    +0.248 HD
ENDBRANCH  13  16
ENDBRANCH  12  13
ENDBRANCH   2  12
TORSDOF 5
ENDMDL
MODEL 9
REMARK VINA RESULT:      -5.0      3.258      5.254
REMARK  Name = 
REMARK  5 active torsions:
REMARK  status: ('A' for Active; 'I' for Inactive)
REMARK    1  A    between atoms: O_1  and  C_2
REMARK    2  A    between atoms: C_5  and  N_13
REMARK    3  A    between atoms: C_7  and  O_8
REMARK    4  A    between atoms: O_8  and  S_9
REMARK    5  A    between atoms: S_9  and  O_10
REMARK                            x       y       z     vdW  Elec       q    Type
REMARK                         _______ _______ _______ _____ _____    ______ ____
ROOT
ATOM      1  C   UNL     1       9.310  -0.642  21.916  0.00  0.00    +0.162 A 
ATOM      2  C   UNL     1       8.215  -1.020  22.698  0.00  0.00    +0.206 A 
ATOM      3  C   UNL     1       7.210  -0.088  22.972  0.00  0.00    +0.136 A 
ATOM      4  C   UNL     1       7.328   1.225  22.499  0.00  0.00    +0.277 A 
ATOM      5  C   UNL     1       8.444   1.610  21.745  0.00  0.00    +0.088 A 
ATOM      6  C   UNL     1       9.436   0.671  21.453  0.00  0.00    +0.056 A 
ENDROOT
BRANCH   4   7
ATOM      7  N   UNL     1       6.265   2.198  22.783  0.00  0.00    +0.080 N 
ATOM      8  O   UNL     1       6.179   3.189  22.046  0.00  0.00    +0.041 OA
ATOM      9  O   UNL     1       5.522   1.970  23.748  0.00  0.00    -0.576 OA
ENDBRANCH   4   7
BRANCH   1  10
ATOM     10  O   UNL     1      10.256  -1.563  21.556  0.00  0.00    -0.503 OA
ATOM     11  H   UNL     1       9.800  -2.424  21.468  0.00  0.00    +0.292 HD
ENDBRANCH   1  10
BRANCH   2  12
ATOM     12  O   UNL     1       7.986  -2.274  23.200  0.00  0.00    -0.321 OA
BRANCH  12  13
ATOM     13  S   UNL     1       8.784  -2.883  24.486  0.00  0.00    +0.251 S 
ATOM     14  O   UNL     1      10.084  -3.326  24.027  0.00  0.00    -0.108 OA
ATOM     15  O   UNL     1       7.924  -3.781  25.229  0.00  0.00    -0.108 OA
BRANCH  13  16
ATOM     16  O   UNL     1       9.021  -1.579  25.408  0.00  0.00    -0.222 OA
ATOM     17  H   UNL     1       8.601  -0.823  24.939  0.00  0.00    +0.248 HD
ENDBRANCH  13  16
ENDBRANCH  12  13
ENDBRANCH   2  12
TORSDOF 5
ENDMDL
