MODEL 1
REMARK VINA RESULT:      -7.3      0.000      0.000
REMARK  Name = 
REMARK  4 active torsions:
REMARK  status: ('A' for Active; 'I' for Inactive)
REMARK    1  A    between atoms: C_1  and  C_2
REMARK    2  A    between atoms: C_9  and  N_10
REMARK    3  A    between atoms: N_10  and  C_11
REMARK    4  A    between atoms: C_14  and  C_17
REMARK                            x       y       z     vdW  Elec       q    Type
REMARK                         _______ _______ _______ _____ _____    ______ ____
ROOT
ATOM      1  N   UNL     1       9.388  -3.476  24.495  0.00  0.00    -0.299 N 
ATOM      2  H   UNL     1      10.172  -3.926  24.969  0.00  0.00    +0.154 HD
ENDROOT
BRANCH   1   6
ATOM      3  C   UNL     1       5.678  -5.617  22.010  0.00  0.00    +0.066 C 
ATOM      4  C   UNL     1       6.385  -5.426  23.325  0.00  0.00    +0.045 A 
ATOM      5  C   UNL     1       7.671  -4.688  23.250  0.00  0.00    +0.067 A 
ATOM      6  C   UNL     1       8.243  -4.275  24.396  0.00  0.00    +0.130 A 
ATOM      7  N   UNL     1       7.666  -4.772  25.595  0.00  0.00    -0.182 N 
ATOM      8  C   UNL     1       6.514  -5.581  25.573  0.00  0.00    +0.255 A 
ATOM      9  N   UNL     1       6.241  -5.972  26.799  0.00  0.00    -0.197 NA
ATOM     10  C   UNL     1       7.222  -5.394  27.543  0.00  0.00    +0.247 A 
ATOM     11  N   UNL     1       8.099  -4.639  26.880  0.00  0.00    -0.151 NA
ATOM     12  N   UNL     1       5.838  -5.859  24.420  0.00  0.00    -0.216 NA
ENDBRANCH   1   6
BRANCH   1  13
ATOM     13  C   UNL     1       9.590  -2.149  24.062  0.00  0.00    +0.032 A 
ATOM     14  C   UNL     1      10.091  -1.907  22.777  0.00  0.00    +0.024 A 
ATOM     15  C   UNL     1      10.111  -0.607  22.236  0.00  0.00    +0.014 A 
ATOM     16  C   UNL     1       9.601   0.480  22.962  0.00  0.00    +0.055 A 
ATOM     17  C   UNL     1       9.156   0.252  24.265  0.00  0.00    +0.014 A 
ATOM     18  C   UNL     1       9.188  -1.033  24.809  0.00  0.00    +0.024 A 
BRANCH  16  19
ATOM     19  C   UNL     1       9.537   1.865  22.363  0.00  0.00    +0.417 C 
ATOM     20  F   UNL     1       8.550   1.988  21.432  0.00  0.00    -0.166 F 
ATOM     21  F   UNL     1      10.693   2.220  21.740  0.00  0.00    -0.166 F 
ATOM     22  F   UNL     1       9.296   2.840  23.285  0.00  0.00    -0.166 F 
ENDBRANCH  16  19
ENDBRANCH   1  13
TORSDOF 3
ENDMDL
MODEL 2
REMARK VINA RESULT:      -7.1      1.814      2.452
REMARK  Name = 
REMARK  4 active torsions:
REMARK  status: ('A' for Active; 'I' for Inactive)
REMARK    1  A    between atoms: C_1  and  C_2
REMARK    2  A    between atoms: C_9  and  N_10
REMARK    3  A    between atoms: N_10  and  C_11
REMARK    4  A    between atoms: C_14  and  C_17
REMARK                            x       y       z     vdW  Elec       q    Type
REMARK                         _______ _______ _______ _____ _____    ______ ____
ROOT
ATOM      1  N   UNL     1      10.005  -1.896  22.886  0.00  0.00    -0.299 N 
ATOM      2  H   UNL     1      10.846  -2.381  22.574  0.00  0.00    +0.154 HD
ENDROOT
BRANCH   1   6
ATOM      3  C   UNL     1       5.315  -3.324  22.190  0.00  0.00    +0.066 C 
ATOM      4  C   UNL     1       6.642  -3.594  22.845  0.00  0.00    +0.045 A 
ATOM      5  C   UNL     1       7.755  -2.716  22.402  0.00  0.00    +0.067 A 
ATOM      6  C   UNL     1       8.906  -2.737  23.099  0.00  0.00    +0.130 A 
ATOM      7  N   UNL     1       9.024  -3.759  24.078  0.00  0.00    -0.182 N 
ATOM      8  C   UNL     1       7.960  -4.641  24.348  0.00  0.00    +0.255 A 
ATOM      9  N   UNL     1       8.358  -5.537  25.225  0.00  0.00    -0.197 NA
ATOM     10  C   UNL     1       9.647  -5.185  25.477  0.00  0.00    +0.247 A 
ATOM     11  N   UNL     1      10.101  -4.108  24.835  0.00  0.00    -0.151 NA
ATOM     12  N   UNL     1       6.736  -4.512  23.757  0.00  0.00    -0.216 NA
ENDBRANCH   1   6
BRANCH   1  13
ATOM     13  C   UNL     1      10.109  -0.502  23.068  0.00  0.00    +0.032 A 
ATOM     14  C   UNL     1       9.878   0.360  21.988  0.00  0.00    +0.024 A 
ATOM     15  C   UNL     1       9.769   1.750  22.175  0.00  0.00    +0.014 A 
ATOM     16  C   UNL     1       9.864   2.311  23.458  0.00  0.00    +0.055 A 
ATOM     17  C   UNL     1      10.154   1.464  24.528  0.00  0.00    +0.014 A 
ATOM     18  C   UNL     1      10.309   0.091  24.322  0.00  0.00    +0.024 A 
BRANCH  16  19
ATOM     19  C   UNL     1       9.665   3.790  23.687  0.00  0.00    +0.417 C 
ATOM     20  F   UNL     1      10.803   4.511  23.483  0.00  0.00    -0.166 F 
ATOM     21  F   UNL     1       9.258   4.074  24.954  0.00  0.00    -0.166 F 
ATOM     22  F   UNL     1       8.729   4.342  22.863  0.00  0.00    -0.166 F 
ENDBRANCH  16  19
ENDBRANCH   1  13
TORSDOF 3
ENDMDL
MODEL 3
REMARK VINA RESULT:      -7.0      1.222      2.787
REMARK  Name = 
REMARK  4 active torsions:
REMARK  status: ('A' for Active; 'I' for Inactive)
REMARK    1  A    between atoms: C_1  and  C_2
REMARK    2  A    between atoms: C_9  and  N_10
REMARK    3  A    between atoms: N_10  and  C_11
REMARK    4  A    between atoms: C_14  and  C_17
REMARK                            x       y       z     vdW  Elec       q    Type
REMARK                         _______ _______ _______ _____ _____    ______ ____
ROOT
ATOM      1  N   UNL     1       9.519  -3.130  24.029  0.00  0.00    -0.299 N 
ATOM      2  H   UNL     1      10.390  -3.642  23.889  0.00  0.00    +0.154 HD
ENDROOT
BRANCH   1   6
ATOM      3  C   UNL     1       6.999  -5.481  27.585  0.00  0.00    +0.066 C 
ATOM      4  C   UNL     1       7.089  -5.095  26.133  0.00  0.00    +0.045 A 
ATOM      5  C   UNL     1       8.169  -4.131  25.802  0.00  0.00    +0.067 A 
ATOM      6  C   UNL     1       8.463  -3.916  24.507  0.00  0.00    +0.130 A 
ATOM      7  N   UNL     1       7.565  -4.478  23.561  0.00  0.00    -0.182 N 
ATOM      8  C   UNL     1       6.481  -5.280  23.967  0.00  0.00    +0.255 A 
ATOM      9  N   UNL     1       5.764  -5.598  22.912  0.00  0.00    -0.197 NA
ATOM     10  C   UNL     1       6.421  -4.995  21.886  0.00  0.00    +0.247 A 
ATOM     11  N   UNL     1       7.528  -4.323  22.208  0.00  0.00    -0.151 NA
ATOM     12  N   UNL     1       6.283  -5.634  25.271  0.00  0.00    -0.216 NA
ENDBRANCH   1   6
BRANCH   1  13
ATOM     13  C   UNL     1       9.545  -1.749  23.746  0.00  0.00    +0.032 A 
ATOM     14  C   UNL     1       9.716  -0.829  24.789  0.00  0.00    +0.024 A 
ATOM     15  C   UNL     1       9.954   0.533  24.526  0.00  0.00    +0.014 A 
ATOM     16  C   UNL     1      10.053   1.004  23.208  0.00  0.00    +0.055 A 
ATOM     17  C   UNL     1       9.824   0.103  22.168  0.00  0.00    +0.014 A 
ATOM     18  C   UNL     1       9.540  -1.237  22.441  0.00  0.00    +0.024 A 
BRANCH  16  19
ATOM     19  C   UNL     1      10.392   2.445  22.911  0.00  0.00    +0.417 C 
ATOM     20  F   UNL     1      10.873   2.621  21.649  0.00  0.00    -0.166 F 
ATOM     21  F   UNL     1      11.340   2.944  23.750  0.00  0.00    -0.166 F 
ATOM     22  F   UNL     1       9.323   3.283  23.016  0.00  0.00    -0.166 F 
ENDBRANCH  16  19
ENDBRANCH   1  13
TORSDOF 3
ENDMDL
MODEL 4
REMARK VINA RESULT:      -6.9      1.679      3.029
REMARK  Name = 
REMARK  4 active torsions:
REMARK  status: ('A' for Active; 'I' for Inactive)
REMARK    1  A    between atoms: C_1  and  C_2
REMARK    2  A    between atoms: C_9  and  N_10
REMARK    3  A    between atoms: N_10  and  C_11
REMARK    4  A    between atoms: C_14  and  C_17
REMARK                            x       y       z     vdW  Elec       q    Type
REMARK                         _______ _______ _______ _____ _____    ______ ____
ROOT
ATOM      1  N   UNL     1       9.762  -2.343  23.362  0.00  0.00    -0.299 N 
ATOM      2  H   UNL     1      10.459  -2.875  22.840  0.00  0.00    +0.154 HD
ENDROOT
BRANCH   1   6
ATOM      3  C   UNL     1       7.962  -5.332  26.875  0.00  0.00    +0.066 C 
ATOM      4  C   UNL     1       7.712  -4.576  25.599  0.00  0.00    +0.045 A 
ATOM      5  C   UNL     1       8.805  -3.661  25.182  0.00  0.00    +0.067 A 
ATOM      6  C   UNL     1       8.763  -3.129  23.947  0.00  0.00    +0.130 A 
ATOM      7  N   UNL     1       7.557  -3.328  23.223  0.00  0.00    -0.182 N 
ATOM      8  C   UNL     1       6.508  -4.108  23.748  0.00  0.00    +0.255 A 
ATOM      9  N   UNL     1       5.484  -4.060  22.924  0.00  0.00    -0.197 NA
ATOM     10  C   UNL     1       5.925  -3.263  21.914  0.00  0.00    +0.247 A 
ATOM     11  N   UNL     1       7.175  -2.808  22.024  0.00  0.00    -0.151 NA
ATOM     12  N   UNL     1       6.620  -4.783  24.929  0.00  0.00    -0.216 NA
ENDBRANCH   1   6
BRANCH   1  13
ATOM     13  C   UNL     1       9.946  -0.946  23.419  0.00  0.00    +0.032 A 
ATOM     14  C   UNL     1       9.850  -0.184  22.248  0.00  0.00    +0.024 A 
ATOM     15  C   UNL     1       9.821   1.223  22.295  0.00  0.00    +0.014 A 
ATOM     16  C   UNL     1       9.861   1.901  23.522  0.00  0.00    +0.055 A 
ATOM     17  C   UNL     1      10.016   1.148  24.687  0.00  0.00    +0.014 A 
ATOM     18  C   UNL     1      10.094  -0.245  24.624  0.00  0.00    +0.024 A 
BRANCH  16  19
ATOM     19  C   UNL     1       9.745   3.404  23.594  0.00  0.00    +0.417 C 
ATOM     20  F   UNL     1       9.376   3.844  24.830  0.00  0.00    -0.166 F 
ATOM     21  F   UNL     1       8.823   3.901  22.725  0.00  0.00    -0.166 F 
ATOM     22  F   UNL     1      10.911   4.050  23.309  0.00  0.00    -0.166 F 
ENDBRANCH  16  19
ENDBRANCH   1  13
TORSDOF 3
ENDMDL
MODEL 5
REMARK VINA RESULT:      -6.9      1.031      2.441
REMARK  Name = 
REMARK  4 active torsions:
REMARK  status: ('A' for Active; 'I' for Inactive)
REMARK    1  A    between atoms: C_1  and  C_2
REMARK    2  A    between atoms: C_9  and  N_10
REMARK    3  A    between atoms: N_10  and  C_11
REMARK    4  A    between atoms: C_14  and  C_17
REMARK                            x       y       z     vdW  Elec       q    Type
REMARK                         _______ _______ _______ _____ _____    ______ ____
ROOT
ATOM      1  N   UNL     1       9.556  -3.514  24.419  0.00  0.00    -0.299 N 
ATOM      2  H   UNL     1      10.385  -4.108  24.411  0.00  0.00    +0.154 HD
ENDROOT
BRANCH   1   6
ATOM      3  C   UNL     1       6.583  -5.610  27.779  0.00  0.00    +0.066 C 
ATOM      4  C   UNL     1       6.794  -5.201  26.346  0.00  0.00    +0.045 A 
ATOM      5  C   UNL     1       8.003  -4.377  26.095  0.00  0.00    +0.067 A 
ATOM      6  C   UNL     1       8.386  -4.168  24.823  0.00  0.00    +0.130 A 
ATOM      7  N   UNL     1       7.471  -4.584  23.819  0.00  0.00    -0.182 N 
ATOM      8  C   UNL     1       6.274  -5.249  24.150  0.00  0.00    +0.255 A 
ATOM      9  N   UNL     1       5.575  -5.443  23.053  0.00  0.00    -0.197 NA
ATOM     10  C   UNL     1       6.355  -4.904  22.079  0.00  0.00    +0.247 A 
ATOM     11  N   UNL     1       7.521  -4.390  22.472  0.00  0.00    -0.151 NA
ATOM     12  N   UNL     1       5.968  -5.608  25.431  0.00  0.00    -0.216 NA
ENDBRANCH   1   6
BRANCH   1  13
ATOM     13  C   UNL     1       9.743  -2.164  24.056  0.00  0.00    +0.032 A 
ATOM     14  C   UNL     1      10.145  -1.844  22.753  0.00  0.00    +0.024 A 
ATOM     15  C   UNL     1      10.141  -0.513  22.296  0.00  0.00    +0.014 A 
ATOM     16  C   UNL     1       9.708   0.530  23.128  0.00  0.00    +0.055 A 
ATOM     17  C   UNL     1       9.365   0.224  24.446  0.00  0.00    +0.014 A 
ATOM     18  C   UNL     1       9.420  -1.095  24.903  0.00  0.00    +0.024 A 
BRANCH  16  19
ATOM     19  C   UNL     1       9.618   1.951  22.626  0.00  0.00    +0.417 C 
ATOM     20  F   UNL     1       8.402   2.240  22.084  0.00  0.00    -0.166 F 
ATOM     21  F   UNL     1      10.537   2.226  21.661  0.00  0.00    -0.166 F 
ATOM     22  F   UNL     1       9.814   2.882  23.603  0.00  0.00    -0.166 F 
ENDBRANCH  16  19
ENDBRANCH   1  13
TORSDOF 3
ENDMDL
MODEL 6
REMARK VINA RESULT:      -6.8      1.544      2.220
REMARK  Name = 
REMARK  4 active torsions:
REMARK  status: ('A' for Active; 'I' for Inactive)
REMARK    1  A    between atoms: C_1  and  C_2
REMARK    2  A    between atoms: C_9  and  N_10
REMARK    3  A    between atoms: N_10  and  C_11
REMARK    4  A    between atoms: C_14  and  C_17
REMARK                            x       y       z     vdW  Elec       q    Type
REMARK                         _______ _______ _______ _____ _____    ______ ____
ROOT
ATOM      1  N   UNL     1       7.792  -3.158  22.284  0.00  0.00    -0.299 N 
ATOM      2  H   UNL     1       8.032  -3.698  21.453  0.00  0.00    +0.154 HD
ENDROOT
BRANCH   1   6
ATOM      3  C   UNL     1       3.826  -5.016  24.595  0.00  0.00    +0.066 C 
ATOM      4  C   UNL     1       5.326  -4.917  24.523  0.00  0.00    +0.045 A 
ATOM      5  C   UNL     1       5.858  -4.233  23.317  0.00  0.00    +0.067 A 
ATOM      6  C   UNL     1       7.161  -3.900  23.289  0.00  0.00    +0.130 A 
ATOM      7  N   UNL     1       7.962  -4.427  24.337  0.00  0.00    -0.182 N 
ATOM      8  C   UNL     1       7.397  -5.182  25.382  0.00  0.00    +0.255 A 
ATOM      9  N   UNL     1       8.359  -5.618  26.165  0.00  0.00    -0.197 NA
ATOM     10  C   UNL     1       9.486  -5.120  25.592  0.00  0.00    +0.247 A 
ATOM     11  N   UNL     1       9.313  -4.373  24.500  0.00  0.00    -0.151 NA
ATOM     12  N   UNL     1       6.050  -5.377  25.497  0.00  0.00    -0.216 NA
ENDBRANCH   1   6
BRANCH   1  13
ATOM     13  C   UNL     1       8.159  -1.796  22.279  0.00  0.00    +0.032 A 
ATOM     14  C   UNL     1       7.393  -0.867  22.995  0.00  0.00    +0.024 A 
ATOM     15  C   UNL     1       7.839   0.454  23.183  0.00  0.00    +0.014 A 
ATOM     16  C   UNL     1       9.081   0.871  22.681  0.00  0.00    +0.055 A 
ATOM     17  C   UNL     1       9.820  -0.033  21.916  0.00  0.00    +0.014 A 
ATOM     18  C   UNL     1       9.343  -1.327  21.694  0.00  0.00    +0.024 A 
BRANCH  16  19
ATOM     19  C   UNL     1       9.612   2.259  22.947  0.00  0.00    +0.417 C 
ATOM     20  F   UNL     1      10.722   2.546  22.212  0.00  0.00    -0.166 F 
ATOM     21  F   UNL     1       9.961   2.445  24.249  0.00  0.00    -0.166 F 
ATOM     22  F   UNL     1       8.716   3.245  22.658  0.00  0.00    -0.166 F 
ENDBRANCH  16  19
ENDBRANCH   1  13
TORSDOF 3
ENDMDL
MODEL 7
REMARK VINA RESULT:      -6.7      0.854      1.383
REMARK  Name = 
REMARK  4 active torsions:
REMARK  status: ('A' for Active; 'I' for Inactive)
REMARK    1  A    between atoms: C_1  and  C_2
REMARK    2  A    between atoms: C_9  and  N_10
REMARK    3  A    between atoms: N_10  and  C_11
REMARK    4  A    between atoms: C_14  and  C_17
REMARK                            x       y       z     vdW  Elec       q    Type
REMARK                         _______ _______ _______ _____ _____    ______ ____
ROOT
ATOM      1  N   UNL     1       9.216  -3.088  24.069  0.00  0.00    -0.299 N 
ATOM      2  H   UNL     1      10.116  -3.509  24.297  0.00  0.00    +0.154 HD
ENDROOT
BRANCH   1   6
ATOM      3  C   UNL     1       5.554  -5.559  21.833  0.00  0.00    +0.066 C 
ATOM      4  C   UNL     1       6.336  -5.312  23.094  0.00  0.00    +0.045 A 
ATOM      5  C   UNL     1       7.535  -4.450  22.936  0.00  0.00    +0.067 A 
ATOM      6  C   UNL     1       8.150  -3.995  24.042  0.00  0.00    +0.130 A 
ATOM      7  N   UNL     1       7.717  -4.557  25.273  0.00  0.00    -0.182 N 
ATOM      8  C   UNL     1       6.651  -5.475  25.323  0.00  0.00    +0.255 A 
ATOM      9  N   UNL     1       6.511  -5.903  26.559  0.00  0.00    -0.197 NA
ATOM     10  C   UNL     1       7.485  -5.239  27.237  0.00  0.00    +0.247 A 
ATOM     11  N   UNL     1       8.231  -4.395  26.523  0.00  0.00    -0.151 NA
ATOM     12  N   UNL     1       5.919  -5.807  24.219  0.00  0.00    -0.216 NA
ENDBRANCH   1   6
BRANCH   1  13
ATOM     13  C   UNL     1       9.206  -1.694  23.855  0.00  0.00    +0.032 A 
ATOM     14  C   UNL     1       8.521  -0.858  24.747  0.00  0.00    +0.024 A 
ATOM     15  C   UNL     1       8.660   0.541  24.686  0.00  0.00    +0.014 A 
ATOM     16  C   UNL     1       9.511   1.138  23.744  0.00  0.00    +0.055 A 
ATOM     17  C   UNL     1      10.148   0.313  22.816  0.00  0.00    +0.014 A 
ATOM     18  C   UNL     1       9.965  -1.070  22.854  0.00  0.00    +0.024 A 
BRANCH  16  19
ATOM     19  C   UNL     1       9.736   2.631  23.721  0.00  0.00    +0.417 C 
ATOM     20  F   UNL     1       9.092   3.243  22.689  0.00  0.00    -0.166 F 
ATOM     21  F   UNL     1      11.051   2.960  23.596  0.00  0.00    -0.166 F 
ATOM     22  F   UNL     1       9.300   3.259  24.850  0.00  0.00    -0.166 F 
ENDBRANCH  16  19
ENDBRANCH   1  13
TORSDOF 3
ENDMDL
MODEL 8
REMARK VINA RESULT:      -6.5      4.245      6.987
REMARK  Name = 
REMARK  4 active torsions:
REMARK  status: ('A' for Active; 'I' for Inactive)
REMARK    1  A    between atoms: C_1  and  C_2
REMARK    2  A    between atoms: C_9  and  N_10
REMARK    3  A    between atoms: N_10  and  C_11
REMARK    4  A    between atoms: C_14  and  C_17
REMARK                            x       y       z     vdW  Elec       q    Type
REMARK                         _______ _______ _______ _____ _____    ______ ____
ROOT
ATOM      1  N   UNL     1       9.365  -1.737  24.414  0.00  0.00    -0.299 N 
ATOM      2  H   UNL     1      10.274  -1.959  24.819  0.00  0.00    +0.154 HD
ENDROOT
BRANCH   1   6
ATOM      3  C   UNL     1       6.833   1.704  26.918  0.00  0.00    +0.066 C 
ATOM      4  C   UNL     1       7.780   1.391  25.792  0.00  0.00    +0.045 A 
ATOM      5  C   UNL     1       8.276  -0.009  25.753  0.00  0.00    +0.067 A 
ATOM      6  C   UNL     1       8.934  -0.428  24.657  0.00  0.00    +0.130 A 
ATOM      7  N   UNL     1       9.282   0.578  23.716  0.00  0.00    -0.182 N 
ATOM      8  C   UNL     1       8.883   1.917  23.893  0.00  0.00    +0.255 A 
ATOM      9  N   UNL     1       9.404   2.650  22.934  0.00  0.00    -0.197 NA
ATOM     10  C   UNL     1      10.102   1.752  22.190  0.00  0.00    +0.247 A 
ATOM     11  N   UNL     1      10.050   0.482  22.596  0.00  0.00    -0.151 NA
ATOM     12  N   UNL     1       8.072   2.307  24.920  0.00  0.00    -0.216 NA
ENDBRANCH   1   6
BRANCH   1  13
ATOM     13  C   UNL     1       8.735  -2.760  23.676  0.00  0.00    +0.032 A 
ATOM     14  C   UNL     1       8.689  -4.062  24.192  0.00  0.00    +0.024 A 
ATOM     15  C   UNL     1       7.897  -5.056  23.588  0.00  0.00    +0.014 A 
ATOM     16  C   UNL     1       7.108  -4.763  22.466  0.00  0.00    +0.055 A 
ATOM     17  C   UNL     1       7.197  -3.484  21.914  0.00  0.00    +0.014 A 
ATOM     18  C   UNL     1       8.025  -2.520  22.492  0.00  0.00    +0.024 A 
BRANCH  16  19
ATOM     19  C   UNL     1       6.188  -5.795  21.859  0.00  0.00    +0.417 C 
ATOM     20  F   UNL     1       6.624  -7.070  22.060  0.00  0.00    -0.166 F 
ATOM     21  F   UNL     1       6.053  -5.649  20.513  0.00  0.00    -0.166 F 
ATOM     22  F   UNL     1       4.923  -5.755  22.366  0.00  0.00    -0.166 F 
ENDBRANCH  16  19
ENDBRANCH   1  13
TORSDOF 3
ENDMDL
MODEL 9
REMARK VINA RESULT:      -6.5      5.800      8.979
REMARK  Name = 
REMARK  4 active torsions:
REMARK  status: ('A' for Active; 'I' for Inactive)
REMARK    1  A    between atoms: C_1  and  C_2
REMARK    2  A    between atoms: C_9  and  N_10
REMARK    3  A    between atoms: N_10  and  C_11
REMARK    4  A    between atoms: C_14  and  C_17
REMARK                            x       y       z     vdW  Elec       q    Type
REMARK                         _______ _______ _______ _____ _____    ______ ____
ROOT
ATOM      1  N   UNL     1       9.071   3.977  22.961  0.00  0.00    -0.299 N 
ATOM      2  H   UNL     1       8.667   4.387  22.119  0.00  0.00    +0.154 HD
ENDROOT
BRANCH   1   6
ATOM      3  C   UNL     1       8.225   7.097  26.712  0.00  0.00    +0.066 C 
ATOM      4  C   UNL     1       9.229   6.462  25.788  0.00  0.00    +0.045 A 
ATOM      5  C   UNL     1       8.697   5.372  24.932  0.00  0.00    +0.067 A 
ATOM      6  C   UNL     1       9.463   4.915  23.924  0.00  0.00    +0.130 A 
ATOM      7  N   UNL     1      10.806   5.377  23.902  0.00  0.00    -0.182 N 
ATOM      8  C   UNL     1      11.271   6.320  24.838  0.00  0.00    +0.255 A 
ATOM      9  N   UNL     1      12.559   6.509  24.652  0.00  0.00    -0.197 NA
ATOM     10  C   UNL     1      12.854   5.688  23.610  0.00  0.00    +0.247 A 
ATOM     11  N   UNL     1      11.836   4.995  23.097  0.00  0.00    -0.151 NA
ATOM     12  N   UNL     1      10.447   6.908  25.755  0.00  0.00    -0.216 NA
ENDBRANCH   1   6
BRANCH   1  13
ATOM     13  C   UNL     1       9.134   2.569  23.011  0.00  0.00    +0.032 A 
ATOM     14  C   UNL     1       8.769   1.817  21.887  0.00  0.00    +0.024 A 
ATOM     15  C   UNL     1       9.013   0.432  21.827  0.00  0.00    +0.014 A 
ATOM     16  C   UNL     1       9.655  -0.230  22.884  0.00  0.00    +0.055 A 
ATOM     17  C   UNL     1       9.966   0.504  24.029  0.00  0.00    +0.014 A 
ATOM     18  C   UNL     1       9.674   1.868  24.097  0.00  0.00    +0.024 A 
BRANCH  16  19
ATOM     19  C   UNL     1      10.000  -1.697  22.799  0.00  0.00    +0.417 C 
ATOM     20  F   UNL     1      10.137  -2.276  24.024  0.00  0.00    -0.166 F 
ATOM     21  F   UNL     1      11.169  -1.923  22.141  0.00  0.00    -0.166 F 
ATOM     22  F   UNL     1       9.058  -2.437  22.147  0.00  0.00    -0.166 F 
ENDBRANCH  16  19
ENDBRANCH   1  13
TORSDOF 3
ENDMDL
