MODEL 1
REMARK VINA RESULT:      -6.9      0.000      0.000
REMARK  Name = 
REMARK  4 active torsions:
REMARK  status: ('A' for Active; 'I' for Inactive)
REMARK    1  A    between atoms: O_1  and  C_2
REMARK    2  A    between atoms: C_2  and  C_16
REMARK    3  A    between atoms: C_3  and  C_4
REMARK    4  A    between atoms: C_4  and  C_6
REMARK                            x       y       z     vdW  Elec       q    Type
REMARK                         _______ _______ _______ _____ _____    ______ ____
ROOT
ATOM      1  C   UNL     1       7.396  -2.235  23.486  0.00  0.00    +0.192 C 
ATOM      2  O   UNL     1       6.729  -1.929  24.465  0.00  0.00    -0.287 OA
ENDROOT
BRANCH   1   3
ATOM      3  C   UNL     1       8.356  -1.302  22.904  0.00  0.00    +0.047 A 
ATOM      4  C   UNL     1       8.696   0.063  23.204  0.00  0.00    +0.012 A 
ATOM      5  C   UNL     1       9.627   0.477  22.243  0.00  0.00    +0.047 A 
ATOM      6  C   UNL     1      10.152   1.774  22.186  0.00  0.00    +0.027 A 
ATOM      7  C   UNL     1       9.722   2.690  23.146  0.00  0.00    +0.022 A 
ATOM      8  C   UNL     1       8.803   2.314  24.118  0.00  0.00    +0.042 A 
ATOM      9 CL   UNL     1       8.293   3.472  25.287  0.00  0.00    -0.084 Cl
ATOM     10  N   UNL     1       9.866  -0.589  21.412  0.00  0.00    -0.360 N 
ATOM     11  H   UNL     1      10.490  -0.574  20.617  0.00  0.00    +0.165 HD
ATOM     12  C   UNL     1       8.278   1.016  24.160  0.00  0.00    +0.030 A 
ATOM     13  C   UNL     1       9.101  -1.652  21.789  0.00  0.00    +0.095 A 
ENDBRANCH   1   3
BRANCH   1  15
ATOM     14  C   UNL     1       7.570  -4.698  23.259  0.00  0.00    +0.168 C 
ATOM     15  C   UNL     1       7.201  -3.510  22.747  0.00  0.00    +0.100 C 
BRANCH  14  16
ATOM     16  C   UNL     1       8.261  -4.886  24.498  0.00  0.00    +0.238 A 
ATOM     17  N   UNL     1       9.626  -4.750  24.552  0.00  0.00    -0.105 NA
ATOM     18  N   UNL     1       9.985  -5.049  25.794  0.00  0.00    -0.048 NA
ATOM     19  N   UNL     1       8.833  -5.345  26.411  0.00  0.00    -0.176 N 
ATOM     20  H   UNL     1       8.813  -5.637  27.384  0.00  0.00    +0.214 HD
ATOM     21  N   UNL     1       7.717  -5.232  25.676  0.00  0.00    -0.130 NA
ENDBRANCH  14  16
BRANCH  14  22
ATOM     22  O   UNL     1       7.327  -5.887  22.584  0.00  0.00    -0.503 OA
ATOM     23  H   UNL     1       6.549  -5.786  22.014  0.00  0.00    +0.292 HD
ENDBRANCH  14  22
ENDBRANCH   1  15
TORSDOF 4
ENDMDL
MODEL 2
REMARK VINA RESULT:      -6.8      3.518      6.412
REMARK  Name = 
REMARK  4 active torsions:
REMARK  status: ('A' for Active; 'I' for Inactive)
REMARK    1  A    between atoms: O_1  and  C_2
REMARK    2  A    between atoms: C_2  and  C_16
REMARK    3  A    between atoms: C_3  and  C_4
REMARK    4  A    between atoms: C_4  and  C_6
REMARK                            x       y       z     vdW  Elec       q    Type
REMARK                         _______ _______ _______ _____ _____    ______ ____
ROOT
ATOM      1  C   UNL     1       9.666  -1.928  23.401  0.00  0.00    +0.192 C 
ATOM      2  O   UNL     1      10.563  -2.006  22.572  0.00  0.00    -0.287 OA
ENDROOT
BRANCH   1   3
ATOM      3  C   UNL     1       8.426  -2.682  23.246  0.00  0.00    +0.047 A 
ATOM      4  C   UNL     1       7.723  -3.593  24.111  0.00  0.00    +0.012 A 
ATOM      5  C   UNL     1       6.631  -4.089  23.387  0.00  0.00    +0.047 A 
ATOM      6  C   UNL     1       5.742  -5.045  23.891  0.00  0.00    +0.027 A 
ATOM      7  C   UNL     1       5.962  -5.517  25.185  0.00  0.00    +0.022 A 
ATOM      8  C   UNL     1       7.032  -5.044  25.936  0.00  0.00    +0.042 A 
ATOM      9 CL   UNL     1       7.275  -5.649  27.530  0.00  0.00    -0.084 Cl
ATOM     10  N   UNL     1       6.648  -3.491  22.151  0.00  0.00    -0.360 N 
ATOM     11  H   UNL     1       5.981  -3.671  21.413  0.00  0.00    +0.165 HD
ATOM     12  C   UNL     1       7.920  -4.093  25.418  0.00  0.00    +0.030 A 
ATOM     13  C   UNL     1       7.724  -2.661  22.051  0.00  0.00    +0.095 A 
ENDBRANCH   1   3
BRANCH   1  15
ATOM     14  C   UNL     1       9.458   0.330  24.405  0.00  0.00    +0.168 C 
ATOM     15  C   UNL     1       9.711  -0.984  24.549  0.00  0.00    +0.100 C 
BRANCH  14  16
ATOM     16  C   UNL     1       9.214   0.994  23.161  0.00  0.00    +0.238 A 
ATOM     17  N   UNL     1       7.939   1.063  22.657  0.00  0.00    -0.105 NA
ATOM     18  N   UNL     1       8.034   1.664  21.477  0.00  0.00    -0.048 NA
ATOM     19  N   UNL     1       9.341   1.920  21.338  0.00  0.00    -0.176 N 
ATOM     20  H   UNL     1       9.708   2.364  20.501  0.00  0.00    +0.214 HD
ATOM     21  N   UNL     1      10.131   1.563  22.361  0.00  0.00    -0.130 NA
ENDBRANCH  14  16
BRANCH  14  22
ATOM     22  O   UNL     1       9.444   1.190  25.495  0.00  0.00    -0.503 OA
ATOM     23  H   UNL     1       8.931   1.984  25.278  0.00  0.00    +0.292 HD
ENDBRANCH  14  22
ENDBRANCH   1  15
TORSDOF 4
ENDMDL
MODEL 3
REMARK VINA RESULT:      -6.7      2.104      2.549
REMARK  Name = 
REMARK  4 active torsions:
REMARK  status: ('A' for Active; 'I' for Inactive)
REMARK    1  A    between atoms: O_1  and  C_2
REMARK    2  A    between atoms: C_2  and  C_16
REMARK    3  A    between atoms: C_3  and  C_4
REMARK    4  A    between atoms: C_4  and  C_6
REMARK                            x       y       z     vdW  Elec       q    Type
REMARK                         _______ _______ _______ _____ _____    ______ ____
ROOT
ATOM      1  C   UNL     1       8.588  -2.431  25.400  0.00  0.00    +0.192 C 
ATOM      2  O   UNL     1       8.383  -2.265  26.595  0.00  0.00    -0.287 OA
ENDROOT
BRANCH   1   3
ATOM      3  C   UNL     1       7.961  -1.573  24.399  0.00  0.00    +0.047 A 
ATOM      4  C   UNL     1       8.333  -0.306  23.828  0.00  0.00    +0.012 A 
ATOM      5  C   UNL     1       7.290   0.086  22.980  0.00  0.00    +0.047 A 
ATOM      6  C   UNL     1       7.277   1.301  22.283  0.00  0.00    +0.027 A 
ATOM      7  C   UNL     1       8.369   2.154  22.447  0.00  0.00    +0.022 A 
ATOM      8  C   UNL     1       9.426   1.795  23.277  0.00  0.00    +0.042 A 
ATOM      9 CL   UNL     1      10.757   2.873  23.457  0.00  0.00    -0.084 Cl
ATOM     10  N   UNL     1       6.339  -0.903  23.007  0.00  0.00    -0.360 N 
ATOM     11  H   UNL     1       5.467  -0.882  22.497  0.00  0.00    +0.165 HD
ATOM     12  C   UNL     1       9.423   0.581  23.975  0.00  0.00    +0.030 A 
ATOM     13  C   UNL     1       6.723  -1.892  23.863  0.00  0.00    +0.095 A 
ENDBRANCH   1   3
BRANCH   1  15
ATOM     14  C   UNL     1       8.998  -4.852  25.051  0.00  0.00    +0.168 C 
ATOM     15  C   UNL     1       9.378  -3.574  24.870  0.00  0.00    +0.100 C 
BRANCH  14  16
ATOM     16  C   UNL     1       7.876  -5.279  25.830  0.00  0.00    +0.238 A 
ATOM     17  N   UNL     1       8.031  -5.556  27.166  0.00  0.00    -0.105 NA
ATOM     18  N   UNL     1       6.854  -5.990  27.598  0.00  0.00    -0.048 NA
ATOM     19  N   UNL     1       6.066  -5.952  26.515  0.00  0.00    -0.176 N 
ATOM     20  H   UNL     1       5.098  -6.258  26.553  0.00  0.00    +0.214 HD
ATOM     21  N   UNL     1       6.625  -5.487  25.388  0.00  0.00    -0.130 NA
ENDBRANCH  14  16
BRANCH  14  22
ATOM     22  O   UNL     1       9.713  -5.907  24.500  0.00  0.00    -0.503 OA
ATOM     23  H   UNL     1       9.099  -6.554  24.120  0.00  0.00    +0.292 HD
ENDBRANCH  14  22
ENDBRANCH   1  15
TORSDOF 4
ENDMDL
MODEL 4
REMARK VINA RESULT:      -6.6      1.700      2.076
REMARK  Name = 
REMARK  4 active torsions:
REMARK  status: ('A' for Active; 'I' for Inactive)
REMARK    1  A    between atoms: O_1  and  C_2
REMARK    2  A    between atoms: C_2  and  C_16
REMARK    3  A    between atoms: C_3  and  C_4
REMARK    4  A    between atoms: C_4  and  C_6
REMARK                            x       y       z     vdW  Elec       q    Type
REMARK                         _______ _______ _______ _____ _____    ______ ____
ROOT
ATOM      1  C   UNL     1       8.625  -2.377  24.872  0.00  0.00    +0.192 C 
ATOM      2  O   UNL     1       7.539  -2.155  25.391  0.00  0.00    -0.287 OA
ENDROOT
BRANCH   1   3
ATOM      3  C   UNL     1       9.152  -1.513  23.820  0.00  0.00    +0.047 A 
ATOM      4  C   UNL     1       9.248  -0.084  23.689  0.00  0.00    +0.012 A 
ATOM      5  C   UNL     1       9.759   0.179  22.412  0.00  0.00    +0.047 A 
ATOM      6  C   UNL     1       9.944   1.472  21.906  0.00  0.00    +0.027 A 
ATOM      7  C   UNL     1       9.604   2.545  22.729  0.00  0.00    +0.022 A 
ATOM      8  C   UNL     1       9.099   2.323  24.005  0.00  0.00    +0.042 A 
ATOM      9 CL   UNL     1       8.687   3.672  24.994  0.00  0.00    -0.084 Cl
ATOM     10  N   UNL     1       9.991  -1.028  21.802  0.00  0.00    -0.360 N 
ATOM     11  H   UNL     1      10.350  -1.143  20.864  0.00  0.00    +0.165 HD
ATOM     12  C   UNL     1       8.909   1.025  24.497  0.00  0.00    +0.030 A 
ATOM     13  C   UNL     1       9.618  -2.045  22.628  0.00  0.00    +0.095 A 
ENDBRANCH   1   3
BRANCH   1  15
ATOM     14  C   UNL     1       8.998  -4.829  24.863  0.00  0.00    +0.168 C 
ATOM     15  C   UNL     1       9.427  -3.593  25.174  0.00  0.00    +0.100 C 
BRANCH  14  16
ATOM     16  C   UNL     1       7.718  -5.145  24.306  0.00  0.00    +0.238 A 
ATOM     17  N   UNL     1       7.556  -5.207  22.944  0.00  0.00    -0.105 NA
ATOM     18  N   UNL     1       6.268  -5.444  22.729  0.00  0.00    -0.048 NA
ATOM     19  N   UNL     1       5.733  -5.511  23.955  0.00  0.00    -0.176 N 
ATOM     20  H   UNL     1       4.738  -5.664  24.091  0.00  0.00    +0.214 HD
ATOM     21  N   UNL     1       6.581  -5.369  24.985  0.00  0.00    -0.130 NA
ENDBRANCH  14  16
BRANCH  14  22
ATOM     22  O   UNL     1       9.783  -5.951  25.096  0.00  0.00    -0.503 OA
ATOM     23  H   UNL     1       9.583  -6.632  24.435  0.00  0.00    +0.292 HD
ENDBRANCH  14  22
ENDBRANCH   1  15
TORSDOF 4
ENDMDL
MODEL 5
REMARK VINA RESULT:      -6.4      2.151      2.405
REMARK  Name = 
REMARK  4 active torsions:
REMARK  status: ('A' for Active; 'I' for Inactive)
REMARK    1  A    between atoms: O_1  and  C_2
REMARK    2  A    between atoms: C_2  and  C_16
REMARK    3  A    between atoms: C_3  and  C_4
REMARK    4  A    between atoms: C_4  and  C_6
REMARK                            x       y       z     vdW  Elec       q    Type
REMARK                         _______ _______ _______ _____ _____    ______ ____
ROOT
ATOM      1  C   UNL     1       8.445  -1.173  26.047  0.00  0.00    +0.192 C 
ATOM      2  O   UNL     1       9.028  -0.862  27.077  0.00  0.00    -0.287 OA
ENDROOT
BRANCH   1   3
ATOM      3  C   UNL     1       8.914  -0.714  24.744  0.00  0.00    +0.047 A 
ATOM      4  C   UNL     1       8.401   0.250  23.806  0.00  0.00    +0.012 A 
ATOM      5  C   UNL     1       9.223   0.201  22.673  0.00  0.00    +0.047 A 
ATOM      6  C   UNL     1       9.000   0.969  21.524  0.00  0.00    +0.027 A 
ATOM      7  C   UNL     1       7.902   1.829  21.522  0.00  0.00    +0.022 A 
ATOM      8  C   UNL     1       7.067   1.908  22.630  0.00  0.00    +0.042 A 
ATOM      9 CL   UNL     1       5.718   2.980  22.593  0.00  0.00    -0.084 Cl
ATOM     10  N   UNL     1      10.207  -0.726  22.915  0.00  0.00    -0.360 N 
ATOM     11  H   UNL     1      10.936  -0.979  22.263  0.00  0.00    +0.165 HD
ATOM     12  C   UNL     1       7.295   1.128  23.771  0.00  0.00    +0.030 A 
ATOM     13  C   UNL     1      10.022  -1.289  24.143  0.00  0.00    +0.095 A 
ENDBRANCH   1   3
BRANCH   1  15
ATOM     14  C   UNL     1       7.123  -3.270  25.971  0.00  0.00    +0.168 C 
ATOM     15  C   UNL     1       7.163  -1.928  26.045  0.00  0.00    +0.100 C 
BRANCH  14  16
ATOM     16  C   UNL     1       8.258  -4.124  25.793  0.00  0.00    +0.238 A 
ATOM     17  N   UNL     1       8.577  -4.593  24.543  0.00  0.00    -0.105 NA
ATOM     18  N   UNL     1       9.616  -5.403  24.701  0.00  0.00    -0.048 NA
ATOM     19  N   UNL     1       9.862  -5.378  26.017  0.00  0.00    -0.176 N 
ATOM     20  H   UNL     1      10.605  -5.936  26.428  0.00  0.00    +0.214 HD
ATOM     21  N   UNL     1       9.079  -4.576  26.755  0.00  0.00    -0.130 NA
ENDBRANCH  14  16
BRANCH  14  22
ATOM     22  O   UNL     1       5.922  -3.965  26.031  0.00  0.00    -0.503 OA
ATOM     23  H   UNL     1       5.181  -3.339  26.019  0.00  0.00    +0.292 HD
ENDBRANCH  14  22
ENDBRANCH   1  15
TORSDOF 4
ENDMDL
MODEL 6
REMARK VINA RESULT:      -6.3      3.362      6.713
REMARK  Name = 
REMARK  4 active torsions:
REMARK  status: ('A' for Active; 'I' for Inactive)
REMARK    1  A    between atoms: O_1  and  C_2
REMARK    2  A    between atoms: C_2  and  C_16
REMARK    3  A    between atoms: C_3  and  C_4
REMARK    4  A    between atoms: C_4  and  C_6
REMARK                            x       y       z     vdW  Elec       q    Type
REMARK                         _______ _______ _______ _____ _____    ______ ____
ROOT
ATOM      1  C   UNL     1       9.534  -1.949  23.329  0.00  0.00    +0.192 C 
ATOM      2  O   UNL     1       9.769  -2.018  22.130  0.00  0.00    -0.287 OA
ENDROOT
BRANCH   1   3
ATOM      3  C   UNL     1       8.473  -2.745  23.938  0.00  0.00    +0.047 A 
ATOM      4  C   UNL     1       7.569  -3.733  23.412  0.00  0.00    +0.012 A 
ATOM      5  C   UNL     1       6.697  -4.088  24.449  0.00  0.00    +0.047 A 
ATOM      6  C   UNL     1       5.642  -4.995  24.293  0.00  0.00    +0.027 A 
ATOM      7  C   UNL     1       5.465  -5.574  23.037  0.00  0.00    +0.022 A 
ATOM      8  C   UNL     1       6.314  -5.250  21.985  0.00  0.00    +0.042 A 
ATOM      9 CL   UNL     1       6.065  -5.982  20.445  0.00  0.00    -0.084 Cl
ATOM     10  N   UNL     1       7.065  -3.374  25.562  0.00  0.00    -0.360 N 
ATOM     11  H   UNL     1       6.601  -3.420  26.458  0.00  0.00    +0.165 HD
ATOM     12  C   UNL     1       7.361  -4.334  22.150  0.00  0.00    +0.030 A 
ATOM     13  C   UNL     1       8.115  -2.558  25.264  0.00  0.00    +0.095 A 
ENDBRANCH   1   3
BRANCH   1  15
ATOM     14  C   UNL     1      10.102   0.352  24.057  0.00  0.00    +0.168 C 
ATOM     15  C   UNL     1      10.213  -0.978  24.227  0.00  0.00    +0.100 C 
BRANCH  14  16
ATOM     16  C   UNL     1       9.422   0.994  22.974  0.00  0.00    +0.238 A 
ATOM     17  N   UNL     1       8.061   1.169  23.023  0.00  0.00    -0.105 NA
ATOM     18  N   UNL     1       7.711   1.718  21.866  0.00  0.00    -0.048 NA
ATOM     19  N   UNL     1       8.863   1.840  21.194  0.00  0.00    -0.176 N 
ATOM     20  H   UNL     1       8.888   2.218  20.251  0.00  0.00    +0.214 HD
ATOM     21  N   UNL     1       9.972   1.443  21.834  0.00  0.00    -0.130 NA
ENDBRANCH  14  16
BRANCH  14  22
ATOM     22  O   UNL     1      10.691   1.249  24.939  0.00  0.00    -0.503 OA
ATOM     23  H   UNL     1      10.263   2.115  24.859  0.00  0.00    +0.292 HD
ENDBRANCH  14  22
ENDBRANCH   1  15
TORSDOF 4
ENDMDL
MODEL 7
REMARK VINA RESULT:      -6.3      2.309      2.988
REMARK  Name = 
REMARK  4 active torsions:
REMARK  status: ('A' for Active; 'I' for Inactive)
REMARK    1  A    between atoms: O_1  and  C_2
REMARK    2  A    between atoms: C_2  and  C_16
REMARK    3  A    between atoms: C_3  and  C_4
REMARK    4  A    between atoms: C_4  and  C_6
REMARK                            x       y       z     vdW  Elec       q    Type
REMARK                         _______ _______ _______ _____ _____    ______ ____
ROOT
ATOM      1  C   UNL     1       6.197  -2.496  25.234  0.00  0.00    +0.192 C 
ATOM      2  O   UNL     1       5.140  -2.347  25.831  0.00  0.00    -0.287 OA
ENDROOT
BRANCH   1   3
ATOM      3  C   UNL     1       7.347  -1.639  25.504  0.00  0.00    +0.047 A 
ATOM      4  C   UNL     1       8.157  -0.798  24.663  0.00  0.00    +0.012 A 
ATOM      5  C   UNL     1       9.188  -0.287  25.461  0.00  0.00    +0.047 A 
ATOM      6  C   UNL     1      10.207   0.538  24.970  0.00  0.00    +0.027 A 
ATOM      7  C   UNL     1      10.180   0.865  23.615  0.00  0.00    +0.022 A 
ATOM      8  C   UNL     1       9.169   0.381  22.792  0.00  0.00    +0.042 A 
ATOM      9 CL   UNL     1       9.167   0.803  21.122  0.00  0.00    -0.084 Cl
ATOM     10  N   UNL     1       9.003  -0.767  26.734  0.00  0.00    -0.360 N 
ATOM     11  H   UNL     1       9.608  -0.571  27.519  0.00  0.00    +0.165 HD
ATOM     12  C   UNL     1       8.160  -0.451  23.293  0.00  0.00    +0.030 A 
ATOM     13  C   UNL     1       7.916  -1.588  26.767  0.00  0.00    +0.095 A 
ENDBRANCH   1   3
BRANCH   1  15
ATOM     14  C   UNL     1       6.677  -4.754  24.327  0.00  0.00    +0.168 C 
ATOM     15  C   UNL     1       6.360  -3.464  24.116  0.00  0.00    +0.100 C 
BRANCH  14  16
ATOM     16  C   UNL     1       6.984  -5.334  25.599  0.00  0.00    +0.238 A 
ATOM     17  N   UNL     1       6.000  -5.954  26.328  0.00  0.00    -0.105 NA
ATOM     18  N   UNL     1       6.559  -6.322  27.474  0.00  0.00    -0.048 NA
ATOM     19  N   UNL     1       7.829  -5.909  27.375  0.00  0.00    -0.176 N 
ATOM     20  H   UNL     1       8.491  -6.043  28.133  0.00  0.00    +0.214 HD
ATOM     21  N   UNL     1       8.174  -5.317  26.221  0.00  0.00    -0.130 NA
ENDBRANCH  14  16
BRANCH  14  22
ATOM     22  O   UNL     1       6.766  -5.661  23.278  0.00  0.00    -0.503 OA
ATOM     23  H   UNL     1       7.584  -6.176  23.361  0.00  0.00    +0.292 HD
ENDBRANCH  14  22
ENDBRANCH   1  15
TORSDOF 4
ENDMDL
MODEL 8
REMARK VINA RESULT:      -6.2      2.389      3.234
REMARK  Name = 
REMARK  4 active torsions:
REMARK  status: ('A' for Active; 'I' for Inactive)
REMARK    1  A    between atoms: O_1  and  C_2
REMARK    2  A    between atoms: C_2  and  C_16
REMARK    3  A    between atoms: C_3  and  C_4
REMARK    4  A    between atoms: C_4  and  C_6
REMARK                            x       y       z     vdW  Elec       q    Type
REMARK                         _______ _______ _______ _____ _____    ______ ____
ROOT
ATOM      1  C   UNL     1       6.498  -3.868  23.571  0.00  0.00    +0.192 C 
ATOM      2  O   UNL     1       5.602  -4.519  23.050  0.00  0.00    -0.287 OA
ENDROOT
BRANCH   1   3
ATOM      3  C   UNL     1       6.280  -2.493  24.005  0.00  0.00    +0.047 A 
ATOM      4  C   UNL     1       6.896  -1.245  23.641  0.00  0.00    +0.012 A 
ATOM      5  C   UNL     1       6.341  -0.255  24.462  0.00  0.00    +0.047 A 
ATOM      6  C   UNL     1       6.737   1.088  24.428  0.00  0.00    +0.027 A 
ATOM      7  C   UNL     1       7.733   1.447  23.520  0.00  0.00    +0.022 A 
ATOM      8  C   UNL     1       8.304   0.493  22.685  0.00  0.00    +0.042 A 
ATOM      9 CL   UNL     1       9.533   0.971  21.577  0.00  0.00    -0.084 Cl
ATOM     10  N   UNL     1       5.411  -0.861  25.270  0.00  0.00    -0.360 N 
ATOM     11  H   UNL     1       4.862  -0.389  25.974  0.00  0.00    +0.165 HD
ATOM     12  C   UNL     1       7.906  -0.849  22.734  0.00  0.00    +0.030 A 
ATOM     13  C   UNL     1       5.378  -2.199  25.016  0.00  0.00    +0.095 A 
ENDBRANCH   1   3
BRANCH   1  15
ATOM     14  C   UNL     1       8.307  -5.089  24.749  0.00  0.00    +0.168 C 
ATOM     15  C   UNL     1       7.893  -4.372  23.689  0.00  0.00    +0.100 C 
BRANCH  14  16
ATOM     16  C   UNL     1       7.522  -5.376  25.912  0.00  0.00    +0.238 A 
ATOM     17  N   UNL     1       7.912  -4.902  27.139  0.00  0.00    -0.105 NA
ATOM     18  N   UNL     1       7.043  -5.382  28.020  0.00  0.00    -0.048 NA
ATOM     19  N   UNL     1       6.191  -6.109  27.286  0.00  0.00    -0.176 N 
ATOM     20  H   UNL     1       5.422  -6.617  27.714  0.00  0.00    +0.214 HD
ATOM     21  N   UNL     1       6.406  -6.122  25.962  0.00  0.00    -0.130 NA
ENDBRANCH  14  16
BRANCH  14  22
ATOM     22  O   UNL     1       9.595  -5.604  24.820  0.00  0.00    -0.503 OA
ATOM     23  H   UNL     1      10.239  -4.881  24.769  0.00  0.00    +0.292 HD
ENDBRANCH  14  22
ENDBRANCH   1  15
TORSDOF 4
ENDMDL
MODEL 9
REMARK VINA RESULT:      -6.2      2.756      3.702
REMARK  Name = 
REMARK  4 active torsions:
REMARK  status: ('A' for Active; 'I' for Inactive)
REMARK    1  A    between atoms: O_1  and  C_2
REMARK    2  A    between atoms: C_2  and  C_16
REMARK    3  A    between atoms: C_3  and  C_4
REMARK    4  A    between atoms: C_4  and  C_6
REMARK                            x       y       z     vdW  Elec       q    Type
REMARK                         _______ _______ _______ _____ _____    ______ ____
ROOT
ATOM      1  C   UNL     1       7.749  -4.947  23.678  0.00  0.00    +0.192 C 
ATOM      2  O   UNL     1       7.747  -5.844  22.845  0.00  0.00    -0.287 OA
ENDROOT
BRANCH   1   3
ATOM      3  C   UNL     1       7.285  -3.605  23.344  0.00  0.00    +0.047 A 
ATOM      4  C   UNL     1       7.849  -2.297  23.552  0.00  0.00    +0.012 A 
ATOM      5  C   UNL     1       6.903  -1.365  23.107  0.00  0.00    +0.047 A 
ATOM      6  C   UNL     1       7.083   0.021  23.198  0.00  0.00    +0.027 A 
ATOM      7  C   UNL     1       8.274   0.484  23.757  0.00  0.00    +0.022 A 
ATOM      8  C   UNL     1       9.238  -0.411  24.204  0.00  0.00    +0.042 A 
ATOM      9 CL   UNL     1      10.697   0.195  24.890  0.00  0.00    -0.084 Cl
ATOM     10  N   UNL     1       5.825  -2.066  22.626  0.00  0.00    -0.360 N 
ATOM     11  H   UNL     1       4.984  -1.649  22.252  0.00  0.00    +0.165 HD
ATOM     12  C   UNL     1       9.043  -1.796  24.116  0.00  0.00    +0.030 A 
ATOM     13  C   UNL     1       6.036  -3.404  22.777  0.00  0.00    +0.095 A 
ENDBRANCH   1   3
BRANCH   1  15
ATOM     14  C   UNL     1       7.568  -5.373  26.114  0.00  0.00    +0.168 C 
ATOM     15  C   UNL     1       8.330  -5.113  25.037  0.00  0.00    +0.100 C 
BRANCH  14  16
ATOM     16  C   UNL     1       6.137  -5.429  26.121  0.00  0.00    +0.238 A 
ATOM     17  N   UNL     1       5.496  -6.637  25.998  0.00  0.00    -0.105 NA
ATOM     18  N   UNL     1       4.196  -6.370  25.966  0.00  0.00    -0.048 NA
ATOM     19  N   UNL     1       4.127  -5.036  26.069  0.00  0.00    -0.176 N 
ATOM     20  H   UNL     1       3.237  -4.548  26.049  0.00  0.00    +0.214 HD
ATOM     21  N   UNL     1       5.294  -4.388  26.205  0.00  0.00    -0.130 NA
ENDBRANCH  14  16
BRANCH  14  22
ATOM     22  O   UNL     1       8.128  -5.585  27.367  0.00  0.00    -0.503 OA
ATOM     23  H   UNL     1       7.741  -6.379  27.768  0.00  0.00    +0.292 HD
ENDBRANCH  14  22
ENDBRANCH   1  15
TORSDOF 4
ENDMDL
