MODEL 1
REMARK VINA RESULT:      -7.5      0.000      0.000
REMARK  Name = 
REMARK  13 active torsions:
REMARK  status: ('A' for Active; 'I' for Inactive)
REMARK    1  A    between atoms: C_1  and  N_2
REMARK    2  A    between atoms: N_2  and  C_3
REMARK    3  A    between atoms: N_2  and  C_16
REMARK    4  A    between atoms: C_3  and  C_4
REMARK    5  A    between atoms: C_9  and  C_10
REMARK    6  A    between atoms: C_19  and  C_21
REMARK    7  A    between atoms: N_23  and  CA_24
REMARK    8  A    between atoms: CA_24  and  CB_26
REMARK    9  A    between atoms: CA_24  and  C_31
REMARK   10  A    between atoms: CB_26  and  CG_27
REMARK   11  A    between atoms: CG_27  and  CD_28
REMARK   12  A    between atoms: CD_28  and  OE1_29
REMARK   13  A    between atoms: C_31  and  O_32
REMARK                            x       y       z     vdW  Elec       q    Type
REMARK                         _______ _______ _______ _____ _____    ______ ____
ROOT
ATOM      1  C   UNK A   0      10.041   1.805  22.998  0.00  0.00    +0.069 A 
ATOM      2  S   UNK A   0      10.242   0.408  23.989  0.00  0.00    -0.069 S 
ATOM      3  C   UNK A   0       9.662  -0.661  22.792  0.00  0.00    +0.076 A 
ATOM      4  C   UNK A   0       9.468  -0.001  21.597  0.00  0.00    +0.022 A 
ATOM      5  C   UNK A   0       9.694   1.403  21.717  0.00  0.00    +0.032 A 
ENDROOT
BRANCH   3   6
ATOM      6  C   UNK A   0       9.412  -2.062  23.080  0.00  0.00    +0.251 C 
ATOM      7  N   GLU A   1       8.159  -2.525  22.720  0.00  0.00    -0.298 N 
ATOM      8  H   GLU A   1       7.465  -1.828  22.464  0.00  0.00    +0.150 HD
ATOM      9  O   UNK A   0      10.251  -2.810  23.574  0.00  0.00    -0.270 OA
BRANCH   7  10
ATOM     10  CA  GLU A   1       7.726  -3.910  22.953  0.00  0.00    +0.182 C 
BRANCH  10  11
ATOM     11  C   GLU A   1       6.722  -4.345  21.866  0.00  0.00    +0.325 C 
ATOM     12  OXT GLU A   1       5.787  -3.659  21.475  0.00  0.00    -0.249 OA
BRANCH  11  13
ATOM     13  O   GLU A   1       6.965  -5.575  21.352  0.00  0.00    -0.479 OA
ATOM     14  H   GLU A   1       7.927  -5.743  21.317  0.00  0.00    +0.295 HD
ENDBRANCH  11  13
ENDBRANCH  10  11
BRANCH  10  15
ATOM     15  CB  GLU A   1       7.141  -4.016  24.367  0.00  0.00    +0.045 C 
BRANCH  15  16
ATOM     16  CG  GLU A   1       7.656  -5.230  25.147  0.00  0.00    +0.123 C 
BRANCH  16  17
ATOM     17  CD  GLU A   1       8.975  -4.963  25.822  0.00  0.00    +0.305 C 
ATOM     18  OE2 GLU A   1       9.115  -4.400  26.896  0.00  0.00    -0.251 OA
BRANCH  17  19
ATOM     19  OE1 GLU A   1      10.018  -5.436  25.098  0.00  0.00    -0.481 OA
ATOM     20  HE1 GLU A   1      10.824  -4.891  25.168  0.00  0.00    +0.295 HD
ENDBRANCH  17  19
ENDBRANCH  16  17
ENDBRANCH  15  16
ENDBRANCH  10  15
ENDBRANCH   7  10
ENDBRANCH   3   6
BRANCH   1  22
ATOM     21  C   UNK A   0      11.529   3.736  23.353  0.00  0.00    +0.130 C 
ATOM     22  N   UNK A   0      10.224   3.088  23.464  0.00  0.00    -0.323 N 
BRANCH  22  23
ATOM     23  C   UNK A   0       9.308   3.641  24.472  0.00  0.00    +0.140 C 
BRANCH  23  24
ATOM     24  C   UNK A   0       7.946   3.968  23.895  0.00  0.00    -0.029 A 
ATOM     25  C   UNK A   0       7.758   5.019  22.982  0.00  0.00    +0.007 A 
ATOM     26  C   UNK A   0       6.502   5.269  22.418  0.00  0.00    +0.027 A 
ATOM     27  C   UNK A   0       5.408   4.483  22.775  0.00  0.00    +0.053 A 
ATOM     28  N   UNK A   0       4.145   4.685  22.222  0.00  0.00    -0.343 N 
ATOM     29  H   UNK A   0       4.020   5.417  21.537  0.00  0.00    +0.167 HD
ATOM     30  C   UNK A   0       3.095   3.906  22.633  0.00  0.00    +0.108 A 
ATOM     31  N   UNK A   0       3.167   2.945  23.498  0.00  0.00    -0.196 NA
ATOM     32  C   UNK A   0       4.387   2.647  24.066  0.00  0.00    +0.281 A 
ATOM     33  O   UNK A   0       4.536   1.724  24.861  0.00  0.00    -0.265 OA
ATOM     34  C   UNK A   0       1.737   4.200  22.042  0.00  0.00    +0.086 C 
ATOM     35  C   UNK A   0       5.579   3.464  23.714  0.00  0.00    +0.065 A 
ATOM     36  C   UNK A   0       6.832   3.210  24.283  0.00  0.00    +0.020 A 
ENDBRANCH  23  24
ENDBRANCH  22  23
ENDBRANCH   1  22
TORSDOF 11
ENDMDL
MODEL 2
REMARK VINA RESULT:      -7.3      3.398      8.658
REMARK  Name = 
REMARK  13 active torsions:
REMARK  status: ('A' for Active; 'I' for Inactive)
REMARK    1  A    between atoms: C_1  and  N_2
REMARK    2  A    between atoms: N_2  and  C_3
REMARK    3  A    between atoms: N_2  and  C_16
REMARK    4  A    between atoms: C_3  and  C_4
REMARK    5  A    between atoms: C_9  and  C_10
REMARK    6  A    between atoms: C_19  and  C_21
REMARK    7  A    between atoms: N_23  and  CA_24
REMARK    8  A    between atoms: CA_24  and  CB_26
REMARK    9  A    between atoms: CA_24  and  C_31
REMARK   10  A    between atoms: CB_26  and  CG_27
REMARK   11  A    between atoms: CG_27  and  CD_28
REMARK   12  A    between atoms: CD_28  and  OE1_29
REMARK   13  A    between atoms: C_31  and  O_32
REMARK                            x       y       z     vdW  Elec       q    Type
REMARK                         _______ _______ _______ _____ _____    ______ ____
ROOT
ATOM      1  C   UNK A   0       9.281  -0.245  24.042  0.00  0.00    +0.069 A 
ATOM      2  S   UNK A   0       9.643   1.400  23.673  0.00  0.00    -0.069 S 
ATOM      3  C   UNK A   0       8.557   2.016  24.837  0.00  0.00    +0.076 A 
ATOM      4  C   UNK A   0       8.041   1.000  25.613  0.00  0.00    +0.022 A 
ATOM      5  C   UNK A   0       8.464  -0.286  25.162  0.00  0.00    +0.032 A 
ENDROOT
BRANCH   3   6
ATOM      6  C   UNK A   0       8.255   3.433  24.920  0.00  0.00    +0.251 C 
ATOM      7  N   GLU A   1       8.515   4.162  23.773  0.00  0.00    -0.298 N 
ATOM      8  H   GLU A   1       9.058   3.701  23.047  0.00  0.00    +0.150 HD
ATOM      9  O   UNK A   0       7.768   3.963  25.915  0.00  0.00    -0.270 OA
BRANCH   7  10
ATOM     10  CA  GLU A   1       8.289   5.612  23.683  0.00  0.00    +0.182 C 
BRANCH  10  11
ATOM     11  C   GLU A   1       7.147   5.912  22.690  0.00  0.00    +0.325 C 
ATOM     12  OXT GLU A   1       5.967   6.001  23.001  0.00  0.00    -0.249 OA
BRANCH  11  13
ATOM     13  O   GLU A   1       7.560   6.084  21.412  0.00  0.00    -0.479 OA
ATOM     14  H   GLU A   1       7.948   6.975  21.298  0.00  0.00    +0.295 HD
ENDBRANCH  11  13
ENDBRANCH  10  11
BRANCH  10  15
ATOM     15  CB  GLU A   1       9.603   6.296  23.289  0.00  0.00    +0.045 C 
BRANCH  15  16
ATOM     16  CG  GLU A   1      10.709   6.132  24.337  0.00  0.00    +0.123 C 
BRANCH  16  17
ATOM     17  CD  GLU A   1      11.872   5.325  23.826  0.00  0.00    +0.305 C 
ATOM     18  OE2 GLU A   1      11.787   4.242  23.269  0.00  0.00    -0.251 OA
BRANCH  17  19
ATOM     19  OE1 GLU A   1      13.056   5.948  24.047  0.00  0.00    -0.481 OA
ATOM     20  HE1 GLU A   1      13.833   5.387  23.867  0.00  0.00    +0.295 HD
ENDBRANCH  17  19
ENDBRANCH  16  17
ENDBRANCH  15  16
ENDBRANCH  10  15
ENDBRANCH   7  10
ENDBRANCH   3   6
BRANCH   1  22
ATOM     21  C   UNK A   0       9.653  -1.310  21.853  0.00  0.00    +0.130 C 
ATOM     22  N   UNK A   0       9.769  -1.304  23.309  0.00  0.00    -0.323 N 
BRANCH  22  23
ATOM     23  C   UNK A   0       9.968  -2.612  23.950  0.00  0.00    +0.140 C 
BRANCH  23  24
ATOM     24  C   UNK A   0       8.684  -3.411  24.038  0.00  0.00    -0.029 A 
ATOM     25  C   UNK A   0       7.785  -3.495  22.962  0.00  0.00    +0.007 A 
ATOM     26  C   UNK A   0       6.633  -4.284  23.045  0.00  0.00    +0.027 A 
ATOM     27  C   UNK A   0       6.349  -4.986  24.216  0.00  0.00    +0.053 A 
ATOM     28  N   UNK A   0       5.223  -5.798  24.334  0.00  0.00    -0.343 N 
ATOM     29  H   UNK A   0       4.598  -5.888  23.545  0.00  0.00    +0.167 HD
ATOM     30  C   UNK A   0       4.974  -6.438  25.519  0.00  0.00    +0.108 A 
ATOM     31  N   UNK A   0       5.722  -6.385  26.574  0.00  0.00    -0.196 NA
ATOM     32  C   UNK A   0       6.880  -5.638  26.534  0.00  0.00    +0.281 A 
ATOM     33  O   UNK A   0       7.657  -5.575  27.482  0.00  0.00    -0.265 OA
ATOM     34  C   UNK A   0       3.713  -7.265  25.611  0.00  0.00    +0.086 C 
ATOM     35  C   UNK A   0       7.217  -4.872  25.305  0.00  0.00    +0.065 A 
ATOM     36  C   UNK A   0       8.370  -4.083  25.229  0.00  0.00    +0.020 A 
ENDBRANCH  23  24
ENDBRANCH  22  23
ENDBRANCH   1  22
TORSDOF 11
ENDMDL
MODEL 3
REMARK VINA RESULT:      -7.1      3.531      8.683
REMARK  Name = 
REMARK  13 active torsions:
REMARK  status: ('A' for Active; 'I' for Inactive)
REMARK    1  A    between atoms: C_1  and  N_2
REMARK    2  A    between atoms: N_2  and  C_3
REMARK    3  A    between atoms: N_2  and  C_16
REMARK    4  A    between atoms: C_3  and  C_4
REMARK    5  A    between atoms: C_9  and  C_10
REMARK    6  A    between atoms: C_19  and  C_21
REMARK    7  A    between atoms: N_23  and  CA_24
REMARK    8  A    between atoms: CA_24  and  CB_26
REMARK    9  A    between atoms: CA_24  and  C_31
REMARK   10  A    between atoms: CB_26  and  CG_27
REMARK   11  A    between atoms: CG_27  and  CD_28
REMARK   12  A    between atoms: CD_28  and  OE1_29
REMARK   13  A    between atoms: C_31  and  O_32
REMARK                            x       y       z     vdW  Elec       q    Type
REMARK                         _______ _______ _______ _____ _____    ______ ____
ROOT
ATOM      1  C   UNK A   0       9.120  -0.354  23.964  0.00  0.00    +0.069 A 
ATOM      2  S   UNK A   0       9.789   1.214  23.705  0.00  0.00    -0.069 S 
ATOM      3  C   UNK A   0       8.716   1.974  24.793  0.00  0.00    +0.076 A 
ATOM      4  C   UNK A   0       7.964   1.039  25.473  0.00  0.00    +0.022 A 
ATOM      5  C   UNK A   0       8.204  -0.287  25.003  0.00  0.00    +0.032 A 
ENDROOT
BRANCH   3   6
ATOM      6  C   UNK A   0       8.652   3.419  24.914  0.00  0.00    +0.251 C 
ATOM      7  N   GLU A   1       9.521   4.119  24.097  0.00  0.00    -0.298 N 
ATOM      8  H   GLU A   1      10.247   3.584  23.629  0.00  0.00    +0.150 HD
ATOM      9  O   UNK A   0       7.864   4.001  25.655  0.00  0.00    -0.270 OA
BRANCH   7  10
ATOM     10  CA  GLU A   1       9.607   5.587  24.101  0.00  0.00    +0.182 C 
BRANCH  10  11
ATOM     11  C   GLU A   1       8.421   6.192  23.322  0.00  0.00    +0.325 C 
ATOM     12  OXT GLU A   1       7.719   7.107  23.733  0.00  0.00    -0.249 OA
BRANCH  11  13
ATOM     13  O   GLU A   1       8.212   5.626  22.109  0.00  0.00    -0.479 OA
ATOM     14  H   GLU A   1       7.345   5.902  21.751  0.00  0.00    +0.295 HD
ENDBRANCH  11  13
ENDBRANCH  10  11
BRANCH  10  15
ATOM     15  CB  GLU A   1      10.963   6.007  23.522  0.00  0.00    +0.045 C 
BRANCH  15  16
ATOM     16  CG  GLU A   1      11.966   4.852  23.429  0.00  0.00    +0.123 C 
BRANCH  16  17
ATOM     17  CD  GLU A   1      13.207   5.226  22.664  0.00  0.00    +0.305 C 
ATOM     18  OE2 GLU A   1      13.223   5.738  21.555  0.00  0.00    -0.251 OA
BRANCH  17  19
ATOM     19  OE1 GLU A   1      14.335   4.935  23.357  0.00  0.00    -0.481 OA
ATOM     20  HE1 GLU A   1      14.729   5.706  23.806  0.00  0.00    +0.295 HD
ENDBRANCH  17  19
ENDBRANCH  16  17
ENDBRANCH  15  16
ENDBRANCH  10  15
ENDBRANCH   7  10
ENDBRANCH   3   6
BRANCH   1  22
ATOM     21  C   UNK A   0       9.091  -1.583  21.830  0.00  0.00    +0.130 C 
ATOM     22  N   UNK A   0       9.490  -1.459  23.230  0.00  0.00    -0.323 N 
BRANCH  22  23
ATOM     23  C   UNK A   0       9.854  -2.708  23.914  0.00  0.00    +0.140 C 
BRANCH  23  24
ATOM     24  C   UNK A   0       8.651  -3.590  24.182  0.00  0.00    -0.029 A 
ATOM     25  C   UNK A   0       8.462  -4.234  25.416  0.00  0.00    +0.007 A 
ATOM     26  C   UNK A   0       7.316  -4.998  25.661  0.00  0.00    +0.027 A 
ATOM     27  C   UNK A   0       6.350  -5.148  24.668  0.00  0.00    +0.053 A 
ATOM     28  N   UNK A   0       5.186  -5.885  24.878  0.00  0.00    -0.343 N 
ATOM     29  H   UNK A   0       5.033  -6.315  25.779  0.00  0.00    +0.167 HD
ATOM     30  C   UNK A   0       4.285  -6.029  23.855  0.00  0.00    +0.108 A 
ATOM     31  N   UNK A   0       4.397  -5.507  22.676  0.00  0.00    -0.196 NA
ATOM     32  C   UNK A   0       5.499  -4.728  22.392  0.00  0.00    +0.281 A 
ATOM     33  O   UNK A   0       5.650  -4.170  21.310  0.00  0.00    -0.265 OA
ATOM     34  C   UNK A   0       3.065  -6.879  24.118  0.00  0.00    +0.086 C 
ATOM     35  C   UNK A   0       6.554  -4.546  23.424  0.00  0.00    +0.065 A 
ATOM     36  C   UNK A   0       7.698  -3.782  23.172  0.00  0.00    +0.020 A 
ENDBRANCH  23  24
ENDBRANCH  22  23
ENDBRANCH   1  22
TORSDOF 11
ENDMDL
MODEL 4
REMARK VINA RESULT:      -7.1      3.136      4.751
REMARK  Name = 
REMARK  13 active torsions:
REMARK  status: ('A' for Active; 'I' for Inactive)
REMARK    1  A    between atoms: C_1  and  N_2
REMARK    2  A    between atoms: N_2  and  C_3
REMARK    3  A    between atoms: N_2  and  C_16
REMARK    4  A    between atoms: C_3  and  C_4
REMARK    5  A    between atoms: C_9  and  C_10
REMARK    6  A    between atoms: C_19  and  C_21
REMARK    7  A    between atoms: N_23  and  CA_24
REMARK    8  A    between atoms: CA_24  and  CB_26
REMARK    9  A    between atoms: CA_24  and  C_31
REMARK   10  A    between atoms: CB_26  and  CG_27
REMARK   11  A    between atoms: CG_27  and  CD_28
REMARK   12  A    between atoms: CD_28  and  OE1_29
REMARK   13  A    between atoms: C_31  and  O_32
REMARK                            x       y       z     vdW  Elec       q    Type
REMARK                         _______ _______ _______ _____ _____    ______ ____
ROOT
ATOM      1  C   UNK A   0       8.714  -2.708  23.731  0.00  0.00    +0.069 A 
ATOM      2  S   UNK A   0       8.727  -3.496  25.264  0.00  0.00    -0.069 S 
ATOM      3  C   UNK A   0       7.501  -4.602  24.831  0.00  0.00    +0.076 A 
ATOM      4  C   UNK A   0       7.192  -4.491  23.492  0.00  0.00    +0.022 A 
ATOM      5  C   UNK A   0       7.892  -3.417  22.867  0.00  0.00    +0.032 A 
ENDROOT
BRANCH   3   6
ATOM      6  C   UNK A   0       6.901  -5.493  25.807  0.00  0.00    +0.251 C 
ATOM      7  N   GLU A   1       5.579  -5.824  25.571  0.00  0.00    -0.298 N 
ATOM      8  H   GLU A   1       5.088  -5.286  24.862  0.00  0.00    +0.150 HD
ATOM      9  O   UNK A   0       7.515  -5.961  26.763  0.00  0.00    -0.270 OA
BRANCH   7  10
ATOM     10  CA  GLU A   1       4.806  -6.699  26.465  0.00  0.00    +0.182 C 
BRANCH  10  11
ATOM     11  C   GLU A   1       3.679  -7.400  25.680  0.00  0.00    +0.325 C 
ATOM     12  OXT GLU A   1       3.737  -7.681  24.491  0.00  0.00    -0.249 OA
BRANCH  11  13
ATOM     13  O   GLU A   1       2.591  -7.701  26.429  0.00  0.00    -0.479 OA
ATOM     14  H   GLU A   1       2.521  -7.087  27.187  0.00  0.00    +0.295 HD
ENDBRANCH  11  13
ENDBRANCH  10  11
BRANCH  10  15
ATOM     15  CB  GLU A   1       4.274  -5.866  27.637  0.00  0.00    +0.045 C 
BRANCH  15  16
ATOM     16  CG  GLU A   1       4.440  -6.555  28.996  0.00  0.00    +0.123 C 
BRANCH  16  17
ATOM     17  CD  GLU A   1       5.789  -6.298  29.611  0.00  0.00    +0.305 C 
ATOM     18  OE2 GLU A   1       6.074  -5.336  30.307  0.00  0.00    -0.251 OA
BRANCH  17  19
ATOM     19  OE1 GLU A   1       6.676  -7.278  29.313  0.00  0.00    -0.481 OA
ATOM     20  HE1 GLU A   1       7.583  -6.954  29.162  0.00  0.00    +0.295 HD
ENDBRANCH  17  19
ENDBRANCH  16  17
ENDBRANCH  15  16
ENDBRANCH  10  15
ENDBRANCH   7  10
ENDBRANCH   3   6
BRANCH   1  22
ATOM     21  C   UNK A   0      10.311  -1.498  22.299  0.00  0.00    +0.130 C 
ATOM     22  N   UNK A   0       9.437  -1.566  23.467  0.00  0.00    -0.323 N 
BRANCH  22  23
ATOM     23  C   UNK A   0       9.723  -0.611  24.549  0.00  0.00    +0.140 C 
BRANCH  23  24
ATOM     24  C   UNK A   0       9.475   0.824  24.130  0.00  0.00    -0.029 A 
ATOM     25  C   UNK A   0      10.506   1.777  24.094  0.00  0.00    +0.007 A 
ATOM     26  C   UNK A   0      10.266   3.082  23.651  0.00  0.00    +0.027 A 
ATOM     27  C   UNK A   0       8.985   3.461  23.256  0.00  0.00    +0.053 A 
ATOM     28  N   UNK A   0       8.707   4.744  22.789  0.00  0.00    -0.343 N 
ATOM     29  H   UNK A   0       9.458   5.417  22.728  0.00  0.00    +0.167 HD
ATOM     30  C   UNK A   0       7.423   5.075  22.446  0.00  0.00    +0.108 A 
ATOM     31  N   UNK A   0       6.405   4.276  22.486  0.00  0.00    -0.196 NA
ATOM     32  C   UNK A   0       6.594   2.973  22.896  0.00  0.00    +0.281 A 
ATOM     33  O   UNK A   0       5.684   2.150  22.920  0.00  0.00    -0.265 OA
ATOM     34  C   UNK A   0       7.166   6.493  21.995  0.00  0.00    +0.086 C 
ATOM     35  C   UNK A   0       7.946   2.530  23.329  0.00  0.00    +0.065 A 
ATOM     36  C   UNK A   0       8.179   1.224  23.773  0.00  0.00    +0.020 A 
ENDBRANCH  23  24
ENDBRANCH  22  23
ENDBRANCH   1  22
TORSDOF 11
ENDMDL
MODEL 5
REMARK VINA RESULT:      -7.0      3.655      8.861
REMARK  Name = 
REMARK  13 active torsions:
REMARK  status: ('A' for Active; 'I' for Inactive)
REMARK    1  A    between atoms: C_1  and  N_2
REMARK    2  A    between atoms: N_2  and  C_3
REMARK    3  A    between atoms: N_2  and  C_16
REMARK    4  A    between atoms: C_3  and  C_4
REMARK    5  A    between atoms: C_9  and  C_10
REMARK    6  A    between atoms: C_19  and  C_21
REMARK    7  A    between atoms: N_23  and  CA_24
REMARK    8  A    between atoms: CA_24  and  CB_26
REMARK    9  A    between atoms: CA_24  and  C_31
REMARK   10  A    between atoms: CB_26  and  CG_27
REMARK   11  A    between atoms: CG_27  and  CD_28
REMARK   12  A    between atoms: CD_28  and  OE1_29
REMARK   13  A    between atoms: C_31  and  O_32
REMARK                            x       y       z     vdW  Elec       q    Type
REMARK                         _______ _______ _______ _____ _____    ______ ____
ROOT
ATOM      1  C   UNK A   0       9.591   0.151  23.900  0.00  0.00    +0.069 A 
ATOM      2  S   UNK A   0       9.790   1.693  24.646  0.00  0.00    -0.069 S 
ATOM      3  C   UNK A   0      10.312   2.446  23.206  0.00  0.00    +0.076 A 
ATOM      4  C   UNK A   0      10.187   1.590  22.131  0.00  0.00    +0.022 A 
ATOM      5  C   UNK A   0       9.767   0.287  22.531  0.00  0.00    +0.032 A 
ENDROOT
BRANCH   3   6
ATOM      6  C   UNK A   0      10.826   3.803  23.200  0.00  0.00    +0.251 C 
ATOM      7  N   GLU A   1       9.961   4.765  23.690  0.00  0.00    -0.298 N 
ATOM      8  H   GLU A   1       8.994   4.486  23.834  0.00  0.00    +0.150 HD
ATOM      9  O   UNK A   0      11.959   4.096  22.826  0.00  0.00    -0.270 OA
BRANCH   7  10
ATOM     10  CA  GLU A   1      10.306   6.193  23.741  0.00  0.00    +0.182 C 
BRANCH  10  11
ATOM     11  C   GLU A   1      11.311   6.458  24.880  0.00  0.00    +0.325 C 
ATOM     12  OXT GLU A   1      10.996   6.735  26.029  0.00  0.00    -0.249 OA
BRANCH  11  13
ATOM     13  O   GLU A   1      12.608   6.347  24.506  0.00  0.00    -0.479 OA
ATOM     14  H   GLU A   1      13.018   5.567  24.930  0.00  0.00    +0.295 HD
ENDBRANCH  11  13
ENDBRANCH  10  11
BRANCH  10  15
ATOM     15  CB  GLU A   1       9.017   7.010  23.895  0.00  0.00    +0.045 C 
BRANCH  15  16
ATOM     16  CG  GLU A   1       7.746   6.186  23.667  0.00  0.00    +0.123 C 
BRANCH  16  17
ATOM     17  CD  GLU A   1       7.321   6.167  22.224  0.00  0.00    +0.305 C 
ATOM     18  OE2 GLU A   1       6.825   7.108  21.624  0.00  0.00    -0.251 OA
BRANCH  17  19
ATOM     19  OE1 GLU A   1       7.562   4.968  21.640  0.00  0.00    -0.481 OA
ATOM     20  HE1 GLU A   1       8.428   4.915  21.194  0.00  0.00    +0.295 HD
ENDBRANCH  17  19
ENDBRANCH  16  17
ENDBRANCH  15  16
ENDBRANCH  10  15
ENDBRANCH   7  10
ENDBRANCH   3   6
BRANCH   1  22
ATOM     21  C   UNK A   0       9.052  -0.929  26.047  0.00  0.00    +0.130 C 
ATOM     22  N   UNK A   0       9.293  -0.992  24.608  0.00  0.00    -0.323 N 
BRANCH  22  23
ATOM     23  C   UNK A   0       9.667  -2.308  24.069  0.00  0.00    +0.140 C 
BRANCH  23  24
ATOM     24  C   UNK A   0       8.557  -3.328  24.218  0.00  0.00    -0.029 A 
ATOM     25  C   UNK A   0       8.564  -4.292  25.240  0.00  0.00    +0.007 A 
ATOM     26  C   UNK A   0       7.502  -5.188  25.394  0.00  0.00    +0.027 A 
ATOM     27  C   UNK A   0       6.422  -5.149  24.513  0.00  0.00    +0.053 A 
ATOM     28  N   UNK A   0       5.334  -6.010  24.643  0.00  0.00    -0.343 N 
ATOM     29  H   UNK A   0       5.324  -6.677  25.402  0.00  0.00    +0.167 HD
ATOM     30  C   UNK A   0       4.315  -5.953  23.729  0.00  0.00    +0.108 A 
ATOM     31  N   UNK A   0       4.244  -5.128  22.733  0.00  0.00    -0.196 NA
ATOM     32  C   UNK A   0       5.258  -4.211  22.552  0.00  0.00    +0.281 A 
ATOM     33  O   UNK A   0       5.236  -3.373  21.656  0.00  0.00    -0.265 OA
ATOM     34  C   UNK A   0       3.184  -6.942  23.884  0.00  0.00    +0.086 C 
ATOM     35  C   UNK A   0       6.429  -4.222  23.469  0.00  0.00    +0.065 A 
ATOM     36  C   UNK A   0       7.490  -3.324  23.309  0.00  0.00    +0.020 A 
ENDBRANCH  23  24
ENDBRANCH  22  23
ENDBRANCH   1  22
TORSDOF 11
ENDMDL
MODEL 6
REMARK VINA RESULT:      -6.8      3.460      8.779
REMARK  Name = 
REMARK  13 active torsions:
REMARK  status: ('A' for Active; 'I' for Inactive)
REMARK    1  A    between atoms: C_1  and  N_2
REMARK    2  A    between atoms: N_2  and  C_3
REMARK    3  A    between atoms: N_2  and  C_16
REMARK    4  A    between atoms: C_3  and  C_4
REMARK    5  A    between atoms: C_9  and  C_10
REMARK    6  A    between atoms: C_19  and  C_21
REMARK    7  A    between atoms: N_23  and  CA_24
REMARK    8  A    between atoms: CA_24  and  CB_26
REMARK    9  A    between atoms: CA_24  and  C_31
REMARK   10  A    between atoms: CB_26  and  CG_27
REMARK   11  A    between atoms: CG_27  and  CD_28
REMARK   12  A    between atoms: CD_28  and  OE1_29
REMARK   13  A    between atoms: C_31  and  O_32
REMARK                            x       y       z     vdW  Elec       q    Type
REMARK                         _______ _______ _______ _____ _____    ______ ____
ROOT
ATOM      1  C   UNK A   0       9.850  -0.016  23.681  0.00  0.00    +0.069 A 
ATOM      2  S   UNK A   0       9.943   1.444  24.594  0.00  0.00    -0.069 S 
ATOM      3  C   UNK A   0      10.255   2.412  23.223  0.00  0.00    +0.076 A 
ATOM      4  C   UNK A   0      10.130   1.675  22.064  0.00  0.00    +0.022 A 
ATOM      5  C   UNK A   0       9.891   0.294  22.330  0.00  0.00    +0.032 A 
ENDROOT
BRANCH   3   6
ATOM      6  C   UNK A   0      10.615   3.812  23.347  0.00  0.00    +0.251 C 
ATOM      7  N   GLU A   1       9.563   4.673  23.605  0.00  0.00    -0.298 N 
ATOM      8  H   GLU A   1       8.624   4.298  23.503  0.00  0.00    +0.150 HD
ATOM      9  O   UNK A   0      11.770   4.222  23.268  0.00  0.00    -0.270 OA
BRANCH   7  10
ATOM     10  CA  GLU A   1       9.740   6.126  23.742  0.00  0.00    +0.182 C 
BRANCH  10  11
ATOM     11  C   GLU A   1      10.370   6.460  25.109  0.00  0.00    +0.325 C 
ATOM     12  OXT GLU A   1       9.769   6.420  26.175  0.00  0.00    -0.249 OA
BRANCH  11  13
ATOM     13  O   GLU A   1      11.679   6.801  25.045  0.00  0.00    -0.479 OA
ATOM     14  H   GLU A   1      11.944   7.283  25.853  0.00  0.00    +0.295 HD
ENDBRANCH  11  13
ENDBRANCH  10  11
BRANCH  10  15
ATOM     15  CB  GLU A   1       8.384   6.812  23.537  0.00  0.00    +0.045 C 
BRANCH  15  16
ATOM     16  CG  GLU A   1       7.692   6.410  22.231  0.00  0.00    +0.123 C 
BRANCH  16  17
ATOM     17  CD  GLU A   1       6.561   5.442  22.452  0.00  0.00    +0.305 C 
ATOM     18  OE2 GLU A   1       5.512   5.703  23.020  0.00  0.00    -0.251 OA
BRANCH  17  19
ATOM     19  OE1 GLU A   1       6.832   4.220  21.932  0.00  0.00    -0.481 OA
ATOM     20  HE1 GLU A   1       6.877   3.511  22.600  0.00  0.00    +0.295 HD
ENDBRANCH  17  19
ENDBRANCH  16  17
ENDBRANCH  15  16
ENDBRANCH  10  15
ENDBRANCH   7  10
ENDBRANCH   3   6
BRANCH   1  22
ATOM     21  C   UNK A   0       9.994  -2.467  23.479  0.00  0.00    +0.130 C 
ATOM     22  N   UNK A   0       9.741  -1.260  24.262  0.00  0.00    -0.323 N 
BRANCH  22  23
ATOM     23  C   UNK A   0       8.936  -1.433  25.481  0.00  0.00    +0.140 C 
BRANCH  23  24
ATOM     24  C   UNK A   0       7.804  -2.422  25.287  0.00  0.00    -0.029 A 
ATOM     25  C   UNK A   0       6.850  -2.268  24.269  0.00  0.00    +0.007 A 
ATOM     26  C   UNK A   0       5.845  -3.222  24.072  0.00  0.00    +0.027 A 
ATOM     27  C   UNK A   0       5.767  -4.336  24.906  0.00  0.00    +0.053 A 
ATOM     28  N   UNK A   0       4.795  -5.320  24.733  0.00  0.00    -0.343 N 
ATOM     29  H   UNK A   0       4.133  -5.227  23.976  0.00  0.00    +0.167 HD
ATOM     30  C   UNK A   0       4.742  -6.377  25.603  0.00  0.00    +0.108 A 
ATOM     31  N   UNK A   0       5.552  -6.577  26.593  0.00  0.00    -0.196 NA
ATOM     32  C   UNK A   0       6.572  -5.675  26.814  0.00  0.00    +0.281 A 
ATOM     33  O   UNK A   0       7.400  -5.823  27.708  0.00  0.00    -0.265 OA
ATOM     34  C   UNK A   0       3.638  -7.388  25.403  0.00  0.00    +0.086 C 
ATOM     35  C   UNK A   0       6.687  -4.472  25.948  0.00  0.00    +0.065 A 
ATOM     36  C   UNK A   0       7.693  -3.521  26.151  0.00  0.00    +0.020 A 
ENDBRANCH  23  24
ENDBRANCH  22  23
ENDBRANCH   1  22
TORSDOF 11
ENDMDL
MODEL 7
REMARK VINA RESULT:      -6.8      3.531      8.918
REMARK  Name = 
REMARK  13 active torsions:
REMARK  status: ('A' for Active; 'I' for Inactive)
REMARK    1  A    between atoms: C_1  and  N_2
REMARK    2  A    between atoms: N_2  and  C_3
REMARK    3  A    between atoms: N_2  and  C_16
REMARK    4  A    between atoms: C_3  and  C_4
REMARK    5  A    between atoms: C_9  and  C_10
REMARK    6  A    between atoms: C_19  and  C_21
REMARK    7  A    between atoms: N_23  and  CA_24
REMARK    8  A    between atoms: CA_24  and  CB_26
REMARK    9  A    between atoms: CA_24  and  C_31
REMARK   10  A    between atoms: CB_26  and  CG_27
REMARK   11  A    between atoms: CG_27  and  CD_28
REMARK   12  A    between atoms: CD_28  and  OE1_29
REMARK   13  A    between atoms: C_31  and  O_32
REMARK                            x       y       z     vdW  Elec       q    Type
REMARK                         _______ _______ _______ _____ _____    ______ ____
ROOT
ATOM      1  C   UNK A   0       8.069  -1.801  22.368  0.00  0.00    +0.069 A 
ATOM      2  S   UNK A   0       7.704  -0.356  23.236  0.00  0.00    -0.069 S 
ATOM      3  C   UNK A   0       9.301   0.237  23.139  0.00  0.00    +0.076 A 
ATOM      4  C   UNK A   0      10.073  -0.562  22.322  0.00  0.00    +0.022 A 
ATOM      5  C   UNK A   0       9.364  -1.718  21.879  0.00  0.00    +0.032 A 
ENDROOT
BRANCH   3   6
ATOM      6  C   UNK A   0       9.718   1.423  23.866  0.00  0.00    +0.251 C 
ATOM      7  N   GLU A   1       8.766   2.421  23.963  0.00  0.00    -0.298 N 
ATOM      8  H   GLU A   1       7.941   2.332  23.376  0.00  0.00    +0.150 HD
ATOM      9  O   UNK A   0      10.819   1.538  24.396  0.00  0.00    -0.270 OA
BRANCH   7  10
ATOM     10  CA  GLU A   1       9.019   3.699  24.646  0.00  0.00    +0.182 C 
BRANCH  10  11
ATOM     11  C   GLU A   1       7.794   4.102  25.492  0.00  0.00    +0.325 C 
ATOM     12  OXT GLU A   1       6.848   4.753  25.070  0.00  0.00    -0.249 OA
BRANCH  11  13
ATOM     13  O   GLU A   1       7.840   3.662  26.772  0.00  0.00    -0.479 OA
ATOM     14  H   GLU A   1       8.767   3.539  27.056  0.00  0.00    +0.295 HD
ENDBRANCH  11  13
ENDBRANCH  10  11
BRANCH  10  15
ATOM     15  CB  GLU A   1       9.384   4.758  23.599  0.00  0.00    +0.045 C 
BRANCH  15  16
ATOM     16  CG  GLU A   1      10.457   5.740  24.079  0.00  0.00    +0.123 C 
BRANCH  16  17
ATOM     17  CD  GLU A   1      11.851   5.277  23.753  0.00  0.00    +0.305 C 
ATOM     18  OE2 GLU A   1      12.128   4.322  23.043  0.00  0.00    -0.251 OA
BRANCH  17  19
ATOM     19  OE1 GLU A   1      12.794   6.056  24.337  0.00  0.00    -0.481 OA
ATOM     20  HE1 GLU A   1      12.432   6.852  24.770  0.00  0.00    +0.295 HD
ENDBRANCH  17  19
ENDBRANCH  16  17
ENDBRANCH  15  16
ENDBRANCH  10  15
ENDBRANCH   7  10
ENDBRANCH   3   6
BRANCH   1  22
ATOM     21  C   UNK A   0       5.735  -2.589  22.363  0.00  0.00    +0.130 C 
ATOM     22  N   UNK A   0       7.168  -2.831  22.213  0.00  0.00    -0.323 N 
BRANCH  22  23
ATOM     23  C   UNK A   0       7.611  -4.225  22.370  0.00  0.00    +0.140 C 
BRANCH  23  24
ATOM     24  C   UNK A   0       7.607  -4.671  23.818  0.00  0.00    -0.029 A 
ATOM     25  C   UNK A   0       8.704  -4.451  24.667  0.00  0.00    +0.007 A 
ATOM     26  C   UNK A   0       8.658  -4.820  26.015  0.00  0.00    +0.027 A 
ATOM     27  C   UNK A   0       7.520  -5.436  26.532  0.00  0.00    +0.053 A 
ATOM     28  N   UNK A   0       7.425  -5.802  27.874  0.00  0.00    -0.343 N 
ATOM     29  H   UNK A   0       8.201  -5.608  28.491  0.00  0.00    +0.167 HD
ATOM     30  C   UNK A   0       6.296  -6.436  28.322  0.00  0.00    +0.108 A 
ATOM     31  N   UNK A   0       5.256  -6.716  27.604  0.00  0.00    -0.196 NA
ATOM     32  C   UNK A   0       5.245  -6.353  26.274  0.00  0.00    +0.281 A 
ATOM     33  O   UNK A   0       4.278  -6.550  25.544  0.00  0.00    -0.265 OA
ATOM     34  C   UNK A   0       6.265  -6.858  29.772  0.00  0.00    +0.086 C 
ATOM     35  C   UNK A   0       6.442  -5.697  25.683  0.00  0.00    +0.065 A 
ATOM     36  C   UNK A   0       6.482  -5.331  24.333  0.00  0.00    +0.020 A 
ENDBRANCH  23  24
ENDBRANCH  22  23
ENDBRANCH   1  22
TORSDOF 11
ENDMDL
MODEL 8
REMARK VINA RESULT:      -6.7      3.480      5.730
REMARK  Name = 
REMARK  13 active torsions:
REMARK  status: ('A' for Active; 'I' for Inactive)
REMARK    1  A    between atoms: C_1  and  N_2
REMARK    2  A    between atoms: N_2  and  C_3
REMARK    3  A    between atoms: N_2  and  C_16
REMARK    4  A    between atoms: C_3  and  C_4
REMARK    5  A    between atoms: C_9  and  C_10
REMARK    6  A    between atoms: C_19  and  C_21
REMARK    7  A    between atoms: N_23  and  CA_24
REMARK    8  A    between atoms: CA_24  and  CB_26
REMARK    9  A    between atoms: CA_24  and  C_31
REMARK   10  A    between atoms: CB_26  and  CG_27
REMARK   11  A    between atoms: CG_27  and  CD_28
REMARK   12  A    between atoms: CD_28  and  OE1_29
REMARK   13  A    between atoms: C_31  and  O_32
REMARK                            x       y       z     vdW  Elec       q    Type
REMARK                         _______ _______ _______ _____ _____    ______ ____
ROOT
ATOM      1  C   UNK A   0       8.383  -3.405  24.529  0.00  0.00    +0.069 A 
ATOM      2  S   UNK A   0       6.731  -3.884  24.647  0.00  0.00    -0.069 S 
ATOM      3  C   UNK A   0       7.018  -4.954  25.944  0.00  0.00    +0.076 A 
ATOM      4  C   UNK A   0       8.315  -4.838  26.399  0.00  0.00    +0.022 A 
ATOM      5  C   UNK A   0       9.086  -3.947  25.595  0.00  0.00    +0.032 A 
ENDROOT
BRANCH   3   6
ATOM      6  C   UNK A   0       5.986  -5.851  26.433  0.00  0.00    +0.251 C 
ATOM      7  N   GLU A   1       4.854  -5.936  25.643  0.00  0.00    -0.298 N 
ATOM      8  H   GLU A   1       4.753  -5.244  24.905  0.00  0.00    +0.150 HD
ATOM      9  O   UNK A   0       6.103  -6.523  27.454  0.00  0.00    -0.270 OA
BRANCH   7  10
ATOM     10  CA  GLU A   1       3.701  -6.778  25.993  0.00  0.00    +0.182 C 
BRANCH  10  11
ATOM     11  C   GLU A   1       3.399  -7.769  24.851  0.00  0.00    +0.325 C 
ATOM     12  OXT GLU A   1       2.587  -8.682  24.925  0.00  0.00    -0.249 OA
BRANCH  11  13
ATOM     13  O   GLU A   1       4.112  -7.542  23.722  0.00  0.00    -0.479 OA
ATOM     14  H   GLU A   1       3.861  -8.183  23.028  0.00  0.00    +0.295 HD
ENDBRANCH  11  13
ENDBRANCH  10  11
BRANCH  10  15
ATOM     15  CB  GLU A   1       2.505  -5.874  26.317  0.00  0.00    +0.045 C 
BRANCH  15  16
ATOM     16  CG  GLU A   1       1.879  -5.230  25.076  0.00  0.00    +0.123 C 
BRANCH  16  17
ATOM     17  CD  GLU A   1       2.804  -4.252  24.405  0.00  0.00    +0.305 C 
ATOM     18  OE2 GLU A   1       3.179  -3.193  24.884  0.00  0.00    -0.251 OA
BRANCH  17  19
ATOM     19  OE1 GLU A   1       3.198  -4.686  23.182  0.00  0.00    -0.481 OA
ATOM     20  HE1 GLU A   1       3.890  -5.371  23.213  0.00  0.00    +0.295 HD
ENDBRANCH  17  19
ENDBRANCH  16  17
ENDBRANCH  15  16
ENDBRANCH  10  15
ENDBRANCH   7  10
ENDBRANCH   3   6
BRANCH   1  22
ATOM     21  C   UNK A   0      10.287  -2.293  23.431  0.00  0.00    +0.130 C 
ATOM     22  N   UNK A   0       8.861  -2.600  23.520  0.00  0.00    -0.323 N 
BRANCH  22  23
ATOM     23  C   UNK A   0       7.954  -1.674  22.826  0.00  0.00    +0.140 C 
BRANCH  23  24
ATOM     24  C   UNK A   0       8.464  -0.247  22.842  0.00  0.00    -0.029 A 
ATOM     25  C   UNK A   0       9.234   0.279  21.793  0.00  0.00    +0.007 A 
ATOM     26  C   UNK A   0       9.648   1.616  21.802  0.00  0.00    +0.027 A 
ATOM     27  C   UNK A   0       9.315   2.443  22.873  0.00  0.00    +0.053 A 
ATOM     28  N   UNK A   0       9.690   3.784  22.912  0.00  0.00    -0.343 N 
ATOM     29  H   UNK A   0      10.211   4.171  22.138  0.00  0.00    +0.167 HD
ATOM     30  C   UNK A   0       9.367   4.544  24.006  0.00  0.00    +0.108 A 
ATOM     31  N   UNK A   0       8.697   4.133  25.035  0.00  0.00    -0.196 NA
ATOM     32  C   UNK A   0       8.249   2.829  25.063  0.00  0.00    +0.281 A 
ATOM     33  O   UNK A   0       7.575   2.383  25.987  0.00  0.00    -0.265 OA
ATOM     34  C   UNK A   0       9.841   5.978  24.022  0.00  0.00    +0.086 C 
ATOM     35  C   UNK A   0       8.586   1.913  23.941  0.00  0.00    +0.065 A 
ATOM     36  C   UNK A   0       8.171   0.577  23.938  0.00  0.00    +0.020 A 
ENDBRANCH  23  24
ENDBRANCH  22  23
ENDBRANCH   1  22
TORSDOF 11
ENDMDL
MODEL 9
REMARK VINA RESULT:      -6.6      2.616      3.606
REMARK  Name = 
REMARK  13 active torsions:
REMARK  status: ('A' for Active; 'I' for Inactive)
REMARK    1  A    between atoms: C_1  and  N_2
REMARK    2  A    between atoms: N_2  and  C_3
REMARK    3  A    between atoms: N_2  and  C_16
REMARK    4  A    between atoms: C_3  and  C_4
REMARK    5  A    between atoms: C_9  and  C_10
REMARK    6  A    between atoms: C_19  and  C_21
REMARK    7  A    between atoms: N_23  and  CA_24
REMARK    8  A    between atoms: CA_24  and  CB_26
REMARK    9  A    between atoms: CA_24  and  C_31
REMARK   10  A    between atoms: CB_26  and  CG_27
REMARK   11  A    between atoms: CG_27  and  CD_28
REMARK   12  A    between atoms: CD_28  and  OE1_29
REMARK   13  A    between atoms: C_31  and  O_32
REMARK                            x       y       z     vdW  Elec       q    Type
REMARK                         _______ _______ _______ _____ _____    ______ ____
ROOT
ATOM      1  C   UNK A   0       9.488  -1.028  24.084  0.00  0.00    +0.069 A 
ATOM      2  S   UNK A   0       8.968  -2.246  22.980  0.00  0.00    -0.069 S 
ATOM      3  C   UNK A   0       8.135  -3.132  24.176  0.00  0.00    +0.076 A 
ATOM      4  C   UNK A   0       8.105  -2.440  25.368  0.00  0.00    +0.022 A 
ATOM      5  C   UNK A   0       8.870  -1.237  25.308  0.00  0.00    +0.032 A 
ENDROOT
BRANCH   3   6
ATOM      6  C   UNK A   0       7.576  -4.444  23.901  0.00  0.00    +0.251 C 
ATOM      7  N   GLU A   1       6.270  -4.629  24.317  0.00  0.00    -0.298 N 
ATOM      8  H   GLU A   1       5.877  -3.922  24.932  0.00  0.00    +0.150 HD
ATOM      9  O   UNK A   0       8.189  -5.329  23.310  0.00  0.00    -0.270 OA
BRANCH   7  10
ATOM     10  CA  GLU A   1       5.551  -5.899  24.138  0.00  0.00    +0.182 C 
BRANCH  10  11
ATOM     11  C   GLU A   1       4.555  -5.787  22.966  0.00  0.00    +0.325 C 
ATOM     12  OXT GLU A   1       3.405  -5.384  23.073  0.00  0.00    -0.249 OA
BRANCH  11  13
ATOM     13  O   GLU A   1       5.066  -6.169  21.771  0.00  0.00    -0.479 OA
ATOM     14  H   GLU A   1       5.184  -5.393  21.188  0.00  0.00    +0.295 HD
ENDBRANCH  11  13
ENDBRANCH  10  11
BRANCH  10  15
ATOM     15  CB  GLU A   1       4.864  -6.270  25.458  0.00  0.00    +0.045 C 
BRANCH  15  16
ATOM     16  CG  GLU A   1       5.382  -5.470  26.657  0.00  0.00    +0.123 C 
BRANCH  16  17
ATOM     17  CD  GLU A   1       6.109  -6.331  27.654  0.00  0.00    +0.305 C 
ATOM     18  OE2 GLU A   1       5.606  -7.233  28.305  0.00  0.00    -0.251 OA
BRANCH  17  19
ATOM     19  OE1 GLU A   1       7.419  -5.997  27.750  0.00  0.00    -0.481 OA
ATOM     20  HE1 GLU A   1       7.721  -5.852  28.665  0.00  0.00    +0.295 HD
ENDBRANCH  17  19
ENDBRANCH  16  17
ENDBRANCH  15  16
ENDBRANCH  10  15
ENDBRANCH   7  10
ENDBRANCH   3   6
BRANCH   1  22
ATOM     21  C   UNK A   0      11.084   0.717  24.771  0.00  0.00    +0.130 C 
ATOM     22  N   UNK A   0      10.368  -0.027  23.738  0.00  0.00    -0.323 N 
BRANCH  22  23
ATOM     23  C   UNK A   0      10.259   0.626  22.425  0.00  0.00    +0.140 C 
BRANCH  23  24
ATOM     24  C   UNK A   0       9.120   1.624  22.371  0.00  0.00    -0.029 A 
ATOM     25  C   UNK A   0       7.886   1.312  21.778  0.00  0.00    +0.007 A 
ATOM     26  C   UNK A   0       6.829   2.228  21.788  0.00  0.00    +0.027 A 
ATOM     27  C   UNK A   0       6.997   3.481  22.374  0.00  0.00    +0.053 A 
ATOM     28  N   UNK A   0       5.964   4.416  22.423  0.00  0.00    -0.343 N 
ATOM     29  H   UNK A   0       5.065   4.175  22.030  0.00  0.00    +0.167 HD
ATOM     30  C   UNK A   0       6.193   5.646  22.981  0.00  0.00    +0.108 A 
ATOM     31  N   UNK A   0       7.308   6.035  23.512  0.00  0.00    -0.196 NA
ATOM     32  C   UNK A   0       8.373   5.160  23.545  0.00  0.00    +0.281 A 
ATOM     33  O   UNK A   0       9.446   5.446  24.068  0.00  0.00    -0.265 OA
ATOM     34  C   UNK A   0       5.057   6.641  22.963  0.00  0.00    +0.086 C 
ATOM     35  C   UNK A   0       8.236   3.814  22.927  0.00  0.00    +0.065 A 
ATOM     36  C   UNK A   0       9.297   2.903  22.919  0.00  0.00    +0.020 A 
ENDBRANCH  23  24
ENDBRANCH  22  23
ENDBRANCH   1  22
TORSDOF 11
ENDMDL
