MODEL 1
REMARK VINA RESULT:      -6.8      0.000      0.000
REMARK  Name = 
REMARK  6 active torsions:
REMARK  status: ('A' for Active; 'I' for Inactive)
REMARK    1  A    between atoms: O_1  and  C_2
REMARK    2  A    between atoms: C_2  and  C_3
REMARK    3  A    between atoms: C_2  and  C_11
REMARK    4  A    between atoms: C_2  and  C_18
REMARK    5  A    between atoms: C_3  and  C_4
REMARK    6  A    between atoms: C_4  and  N_5
REMARK                            x       y       z     vdW  Elec       q    Type
REMARK                         _______ _______ _______ _____ _____    ______ ____
ROOT
ATOM      1  C   UNL     1       8.253  -3.291  24.450  0.00  0.00    +0.095 C 
ENDROOT
BRANCH   1   2
ATOM      2  C   UNL     1       8.025  -4.068  23.046  0.00  0.00    +0.033 C 
ATOM      3  C   UNL     1       7.425  -5.515  22.989  0.00  0.00    +0.018 C 
ATOM      4  C   UNL     1       7.063  -5.950  21.547  0.00  0.00    -0.027 C 
ATOM      5  C   UNL     1       6.009  -5.215  21.134  0.00  0.00    -0.027 C 
ATOM      6  C   UNL     1       5.761  -4.230  22.243  0.00  0.00    +0.012 C 
ATOM      7  C   UNL     1       5.995  -5.223  23.391  0.00  0.00    +0.015 C 
ATOM      8  C   UNL     1       7.004  -3.310  22.166  0.00  0.00    +0.015 C 
ENDBRANCH   1   2
BRANCH   1   9
ATOM      9  C   UNL     1       7.477  -3.780  25.695  0.00  0.00    -0.016 A 
ATOM     10  C   UNL     1       7.896  -4.912  26.427  0.00  0.00    +0.006 A 
ATOM     11  C   UNL     1       7.144  -5.426  27.493  0.00  0.00    +0.000 A 
ATOM     12  C   UNL     1       5.969  -4.794  27.890  0.00  0.00    +0.000 A 
ATOM     13  C   UNL     1       5.553  -3.651  27.224  0.00  0.00    +0.000 A 
ATOM     14  C   UNL     1       6.299  -3.152  26.149  0.00  0.00    +0.006 A 
ENDBRANCH   1   9
BRANCH   1  15
ATOM     15  O   UNL     1       9.655  -3.339  24.756  0.00  0.00    -0.384 OA
ATOM     16  H   UNL     1      10.118  -3.731  23.998  0.00  0.00    +0.211 HD
ENDBRANCH   1  15
BRANCH   1  17
ATOM     17  C   UNL     1       7.898  -1.817  24.097  0.00  0.00    +0.055 C 
BRANCH  17  18
ATOM     18  C   UNL     1       8.699  -0.615  24.621  0.00  0.00    +0.087 C 
BRANCH  18  19
ATOM     19  N   UNL     1       9.979  -0.549  23.868  0.00  0.00    -0.302 NA
ATOM     20  C   UNL     1      10.828   0.610  24.173  0.00  0.00    +0.084 C 
ATOM     21  C   UNL     1      10.225   1.910  23.657  0.00  0.00    +0.015 C 
ATOM     22  C   UNL     1      10.149   1.836  22.140  0.00  0.00    +0.002 C 
ATOM     23  C   UNL     1       9.374   0.595  21.695  0.00  0.00    +0.015 C 
ATOM     24  C   UNL     1       9.819  -0.685  22.414  0.00  0.00    +0.084 C 
ENDBRANCH  18  19
ENDBRANCH  17  18
ENDBRANCH   1  17
TORSDOF 6
ENDMDL
MODEL 2
REMARK VINA RESULT:      -6.3      1.803      6.326
REMARK  Name = 
REMARK  6 active torsions:
REMARK  status: ('A' for Active; 'I' for Inactive)
REMARK    1  A    between atoms: O_1  and  C_2
REMARK    2  A    between atoms: C_2  and  C_3
REMARK    3  A    between atoms: C_2  and  C_11
REMARK    4  A    between atoms: C_2  and  C_18
REMARK    5  A    between atoms: C_3  and  C_4
REMARK    6  A    between atoms: C_4  and  N_5
REMARK                            x       y       z     vdW  Elec       q    Type
REMARK                         _______ _______ _______ _____ _____    ______ ____
ROOT
ATOM      1  C   UNL     1       8.839  -1.675  23.663  0.00  0.00    +0.095 C 
ENDROOT
BRANCH   1   2
ATOM      2  C   UNL     1       7.521  -1.729  24.605  0.00  0.00    +0.033 C 
ATOM      3  C   UNL     1       7.587  -2.215  26.094  0.00  0.00    +0.018 C 
ATOM      4  C   UNL     1       6.272  -1.941  26.865  0.00  0.00    -0.027 C 
ATOM      5  C   UNL     1       6.147  -0.607  27.032  0.00  0.00    -0.027 C 
ATOM      6  C   UNL     1       7.301  -0.010  26.276  0.00  0.00    +0.012 C 
ATOM      7  C   UNL     1       8.337  -1.056  26.716  0.00  0.00    +0.015 C 
ATOM      8  C   UNL     1       6.936  -0.311  24.802  0.00  0.00    +0.015 C 
ENDBRANCH   1   2
BRANCH   1   9
ATOM      9  C   UNL     1       9.441  -0.292  23.320  0.00  0.00    -0.016 A 
ATOM     10  C   UNL     1      10.304   0.378  24.213  0.00  0.00    +0.006 A 
ATOM     11  C   UNL     1      10.773   1.676  23.959  0.00  0.00    +0.000 A 
ATOM     12  C   UNL     1      10.425   2.327  22.780  0.00  0.00    +0.000 A 
ATOM     13  C   UNL     1       9.617   1.679  21.857  0.00  0.00    +0.000 A 
ATOM     14  C   UNL     1       9.139   0.390  22.124  0.00  0.00    +0.006 A 
ENDBRANCH   1   9
BRANCH   1  15
ATOM     15  O   UNL     1       9.863  -2.457  24.296  0.00  0.00    -0.384 OA
ATOM     16  H   UNL     1      10.726  -2.101  24.028  0.00  0.00    +0.211 HD
ENDBRANCH   1  15
BRANCH   1  17
ATOM     17  C   UNL     1       8.387  -2.436  22.383  0.00  0.00    +0.055 C 
BRANCH  17  18
ATOM     18  C   UNL     1       7.004  -3.092  22.245  0.00  0.00    +0.087 C 
BRANCH  18  19
ATOM     19  N   UNL     1       7.195  -4.566  22.196  0.00  0.00    -0.302 NA
ATOM     20  C   UNL     1       6.049  -5.330  21.685  0.00  0.00    +0.084 C 
ATOM     21  C   UNL     1       4.875  -5.312  22.654  0.00  0.00    +0.015 C 
ATOM     22  C   UNL     1       5.300  -6.006  23.938  0.00  0.00    +0.002 C 
ATOM     23  C   UNL     1       6.562  -5.361  24.512  0.00  0.00    +0.015 C 
ATOM     24  C   UNL     1       7.660  -5.145  23.462  0.00  0.00    +0.084 C 
ENDBRANCH  18  19
ENDBRANCH  17  18
ENDBRANCH   1  17
TORSDOF 6
ENDMDL
MODEL 3
REMARK VINA RESULT:      -6.2      0.632      1.620
REMARK  Name = 
REMARK  6 active torsions:
REMARK  status: ('A' for Active; 'I' for Inactive)
REMARK    1  A    between atoms: O_1  and  C_2
REMARK    2  A    between atoms: C_2  and  C_3
REMARK    3  A    between atoms: C_2  and  C_11
REMARK    4  A    between atoms: C_2  and  C_18
REMARK    5  A    between atoms: C_3  and  C_4
REMARK    6  A    between atoms: C_4  and  N_5
REMARK                            x       y       z     vdW  Elec       q    Type
REMARK                         _______ _______ _______ _____ _____    ______ ____
ROOT
ATOM      1  C   UNL     1       8.165  -3.405  24.638  0.00  0.00    +0.095 C 
ENDROOT
BRANCH   1   2
ATOM      2  C   UNL     1       7.993  -4.100  23.183  0.00  0.00    +0.033 C 
ATOM      3  C   UNL     1       7.353  -5.521  23.016  0.00  0.00    +0.018 C 
ATOM      4  C   UNL     1       7.061  -5.867  21.535  0.00  0.00    -0.027 C 
ATOM      5  C   UNL     1       6.054  -5.077  21.104  0.00  0.00    -0.027 C 
ATOM      6  C   UNL     1       5.775  -4.143  22.250  0.00  0.00    +0.012 C 
ATOM      7  C   UNL     1       5.912  -5.203  23.354  0.00  0.00    +0.015 C 
ATOM      8  C   UNL     1       7.047  -3.263  22.291  0.00  0.00    +0.015 C 
ENDBRANCH   1   2
BRANCH   1   9
ATOM      9  C   UNL     1       7.302  -3.930  25.810  0.00  0.00    -0.016 A 
ATOM     10  C   UNL     1       6.137  -3.252  26.229  0.00  0.00    +0.006 A 
ATOM     11  C   UNL     1       5.406  -3.661  27.354  0.00  0.00    +0.000 A 
ATOM     12  C   UNL     1       5.793  -4.790  28.069  0.00  0.00    +0.000 A 
ATOM     13  C   UNL     1       6.906  -5.509  27.656  0.00  0.00    +0.000 A 
ATOM     14  C   UNL     1       7.642  -5.086  26.542  0.00  0.00    +0.006 A 
ENDBRANCH   1   9
BRANCH   1  15
ATOM     15  O   UNL     1       9.544  -3.519  25.020  0.00  0.00    -0.384 OA
ATOM     16  H   UNL     1       9.820  -4.441  24.888  0.00  0.00    +0.211 HD
ENDBRANCH   1  15
BRANCH   1  17
ATOM     17  C   UNL     1       7.879  -1.903  24.346  0.00  0.00    +0.055 C 
BRANCH  17  18
ATOM     18  C   UNL     1       8.917  -0.794  24.579  0.00  0.00    +0.087 C 
BRANCH  18  19
ATOM     19  N   UNL     1       8.348   0.483  24.071  0.00  0.00    -0.302 NA
ATOM     20  C   UNL     1       8.035   0.503  22.636  0.00  0.00    +0.084 C 
ATOM     21  C   UNL     1       9.294   0.489  21.779  0.00  0.00    +0.015 C 
ATOM     22  C   UNL     1      10.077   1.763  22.053  0.00  0.00    +0.002 C 
ATOM     23  C   UNL     1      10.370   1.909  23.547  0.00  0.00    +0.015 C 
ATOM     24  C   UNL     1       9.138   1.668  24.430  0.00  0.00    +0.084 C 
ENDBRANCH  18  19
ENDBRANCH  17  18
ENDBRANCH   1  17
TORSDOF 6
ENDMDL
MODEL 4
REMARK VINA RESULT:      -6.2      1.994      6.093
REMARK  Name = 
REMARK  6 active torsions:
REMARK  status: ('A' for Active; 'I' for Inactive)
REMARK    1  A    between atoms: O_1  and  C_2
REMARK    2  A    between atoms: C_2  and  C_3
REMARK    3  A    between atoms: C_2  and  C_11
REMARK    4  A    between atoms: C_2  and  C_18
REMARK    5  A    between atoms: C_3  and  C_4
REMARK    6  A    between atoms: C_4  and  N_5
REMARK                            x       y       z     vdW  Elec       q    Type
REMARK                         _______ _______ _______ _____ _____    ______ ____
ROOT
ATOM      1  C   UNL     1       8.657  -4.392  24.734  0.00  0.00    +0.095 C 
ENDROOT
BRANCH   1   2
ATOM      2  C   UNL     1       9.400  -2.966  24.527  0.00  0.00    +0.033 C 
ATOM      3  C   UNL     1       9.679  -2.378  23.100  0.00  0.00    +0.018 C 
ATOM      4  C   UNL     1      10.160  -0.907  23.151  0.00  0.00    -0.027 C 
ATOM      5  C   UNL     1       9.128  -0.135  23.553  0.00  0.00    -0.027 C 
ATOM      6  C   UNL     1       8.022  -1.102  23.878  0.00  0.00    +0.012 C 
ATOM      7  C   UNL     1       8.267  -2.030  22.678  0.00  0.00    +0.015 C 
ATOM      8  C   UNL     1       8.558  -1.822  25.139  0.00  0.00    +0.015 C 
ENDBRANCH   1   2
BRANCH   1   9
ATOM      9  C   UNL     1       7.555  -4.800  23.727  0.00  0.00    -0.016 A 
ATOM     10  C   UNL     1       6.229  -4.337  23.860  0.00  0.00    +0.006 A 
ATOM     11  C   UNL     1       5.200  -4.781  23.015  0.00  0.00    +0.000 A 
ATOM     12  C   UNL     1       5.478  -5.670  21.981  0.00  0.00    +0.000 A 
ATOM     13  C   UNL     1       6.781  -6.108  21.792  0.00  0.00    +0.000 A 
ATOM     14  C   UNL     1       7.801  -5.674  22.649  0.00  0.00    +0.006 A 
ENDBRANCH   1   9
BRANCH   1  15
ATOM     15  O   UNL     1       9.663  -5.416  24.727  0.00  0.00    -0.384 OA
ATOM     16  H   UNL     1       9.218  -6.279  24.768  0.00  0.00    +0.211 HD
ENDBRANCH   1  15
BRANCH   1  17
ATOM     17  C   UNL     1       8.099  -4.289  26.183  0.00  0.00    +0.055 C 
BRANCH  17  18
ATOM     18  C   UNL     1       7.600  -5.508  26.975  0.00  0.00    +0.087 C 
BRANCH  18  19
ATOM     19  N   UNL     1       6.698  -5.020  28.052  0.00  0.00    -0.302 NA
ATOM     20  C   UNL     1       6.095  -6.067  28.888  0.00  0.00    +0.084 C 
ATOM     21  C   UNL     1       5.066  -6.886  28.120  0.00  0.00    +0.015 C 
ATOM     22  C   UNL     1       3.924  -5.967  27.715  0.00  0.00    +0.002 C 
ATOM     23  C   UNL     1       4.448  -4.768  26.924  0.00  0.00    +0.015 C 
ATOM     24  C   UNL     1       5.660  -4.094  27.581  0.00  0.00    +0.084 C 
ENDBRANCH  18  19
ENDBRANCH  17  18
ENDBRANCH   1  17
TORSDOF 6
ENDMDL
MODEL 5
REMARK VINA RESULT:      -6.1      1.623      6.013
REMARK  Name = 
REMARK  6 active torsions:
REMARK  status: ('A' for Active; 'I' for Inactive)
REMARK    1  A    between atoms: O_1  and  C_2
REMARK    2  A    between atoms: C_2  and  C_3
REMARK    3  A    between atoms: C_2  and  C_11
REMARK    4  A    between atoms: C_2  and  C_18
REMARK    5  A    between atoms: C_3  and  C_4
REMARK    6  A    between atoms: C_4  and  N_5
REMARK                            x       y       z     vdW  Elec       q    Type
REMARK                         _______ _______ _______ _____ _____    ______ ____
ROOT
ATOM      1  C   UNL     1       8.637  -2.709  24.065  0.00  0.00    +0.095 C 
ENDROOT
BRANCH   1   2
ATOM      2  C   UNL     1       8.714  -1.129  23.709  0.00  0.00    +0.033 C 
ATOM      3  C   UNL     1       8.367  -0.025  24.767  0.00  0.00    +0.018 C 
ATOM      4  C   UNL     1       8.754   1.396  24.288  0.00  0.00    -0.027 C 
ATOM      5  C   UNL     1      10.101   1.482  24.256  0.00  0.00    -0.027 C 
ATOM      6  C   UNL     1      10.587   0.099  24.592  0.00  0.00    +0.012 C 
ATOM      7  C   UNL     1       9.553  -0.168  25.697  0.00  0.00    +0.015 C 
ATOM      8  C   UNL     1      10.163  -0.723  23.351  0.00  0.00    +0.015 C 
ENDBRANCH   1   2
BRANCH   1   9
ATOM      9  C   UNL     1       7.781  -3.625  23.158  0.00  0.00    -0.016 A 
ATOM     10  C   UNL     1       6.840  -3.092  22.252  0.00  0.00    +0.006 A 
ATOM     11  C   UNL     1       5.986  -3.914  21.500  0.00  0.00    +0.000 A 
ATOM     12  C   UNL     1       6.080  -5.299  21.601  0.00  0.00    +0.000 A 
ATOM     13  C   UNL     1       7.028  -5.857  22.447  0.00  0.00    +0.000 A 
ATOM     14  C   UNL     1       7.866  -5.031  23.207  0.00  0.00    +0.006 A 
ENDBRANCH   1   9
BRANCH   1  15
ATOM     15  O   UNL     1       9.977  -3.223  24.074  0.00  0.00    -0.384 OA
ATOM     16  H   UNL     1      10.430  -2.902  23.277  0.00  0.00    +0.211 HD
ENDBRANCH   1  15
BRANCH   1  17
ATOM     17  C   UNL     1       8.121  -2.713  25.533  0.00  0.00    +0.055 C 
BRANCH  17  18
ATOM     18  C   UNL     1       8.101  -3.975  26.410  0.00  0.00    +0.087 C 
BRANCH  18  19
ATOM     19  N   UNL     1       6.820  -3.993  27.165  0.00  0.00    -0.302 NA
ATOM     20  C   UNL     1       6.278  -5.329  27.448  0.00  0.00    +0.084 C 
ATOM     21  C   UNL     1       5.777  -6.019  26.186  0.00  0.00    +0.015 C 
ATOM     22  C   UNL     1       4.620  -5.210  25.622  0.00  0.00    +0.002 C 
ATOM     23  C   UNL     1       5.037  -3.758  25.386  0.00  0.00    +0.015 C 
ATOM     24  C   UNL     1       5.777  -3.141  26.581  0.00  0.00    +0.084 C 
ENDBRANCH  18  19
ENDBRANCH  17  18
ENDBRANCH   1  17
TORSDOF 6
ENDMDL
MODEL 6
REMARK VINA RESULT:      -6.1      1.264      4.074
REMARK  Name = 
REMARK  6 active torsions:
REMARK  status: ('A' for Active; 'I' for Inactive)
REMARK    1  A    between atoms: O_1  and  C_2
REMARK    2  A    between atoms: C_2  and  C_3
REMARK    3  A    between atoms: C_2  and  C_11
REMARK    4  A    between atoms: C_2  and  C_18
REMARK    5  A    between atoms: C_3  and  C_4
REMARK    6  A    between atoms: C_4  and  N_5
REMARK                            x       y       z     vdW  Elec       q    Type
REMARK                         _______ _______ _______ _____ _____    ______ ____
ROOT
ATOM      1  C   UNL     1       7.334  -3.079  25.118  0.00  0.00    +0.095 C 
ENDROOT
BRANCH   1   2
ATOM      2  C   UNL     1       7.095  -3.845  26.527  0.00  0.00    +0.033 C 
ATOM      3  C   UNL     1       5.700  -3.845  27.242  0.00  0.00    +0.018 C 
ATOM      4  C   UNL     1       5.642  -4.842  28.426  0.00  0.00    -0.027 C 
ATOM      5  C   UNL     1       5.679  -6.096  27.928  0.00  0.00    -0.027 C 
ATOM      6  C   UNL     1       5.881  -5.922  26.448  0.00  0.00    +0.012 C 
ATOM      7  C   UNL     1       4.919  -4.733  26.297  0.00  0.00    +0.015 C 
ATOM      8  C   UNL     1       7.323  -5.366  26.363  0.00  0.00    +0.015 C 
ENDBRANCH   1   2
BRANCH   1   9
ATOM      9  C   UNL     1       7.042  -3.846  23.806  0.00  0.00    -0.016 A 
ATOM     10  C   UNL     1       5.993  -3.458  22.945  0.00  0.00    +0.006 A 
ATOM     11  C   UNL     1       5.653  -4.206  21.808  0.00  0.00    +0.000 A 
ATOM     12  C   UNL     1       6.382  -5.343  21.473  0.00  0.00    +0.000 A 
ATOM     13  C   UNL     1       7.450  -5.726  22.271  0.00  0.00    +0.000 A 
ATOM     14  C   UNL     1       7.775  -4.984  23.415  0.00  0.00    +0.006 A 
ENDBRANCH   1   9
BRANCH   1  15
ATOM     15  O   UNL     1       6.532  -1.890  25.123  0.00  0.00    -0.384 OA
ATOM     16  H   UNL     1       6.281  -1.689  24.206  0.00  0.00    +0.211 HD
ENDBRANCH   1  15
BRANCH   1  17
ATOM     17  C   UNL     1       8.826  -2.643  25.205  0.00  0.00    +0.055 C 
BRANCH  17  18
ATOM     18  C   UNL     1       9.519  -1.811  24.114  0.00  0.00    +0.087 C 
BRANCH  18  19
ATOM     19  N   UNL     1       8.695  -0.598  23.866  0.00  0.00    -0.302 NA
ATOM     20  C   UNL     1       8.323  -0.369  22.463  0.00  0.00    +0.084 C 
ATOM     21  C   UNL     1       9.523   0.026  21.613  0.00  0.00    +0.015 C 
ATOM     22  C   UNL     1      10.059   1.354  22.125  0.00  0.00    +0.002 C 
ATOM     23  C   UNL     1      10.382   1.270  23.617  0.00  0.00    +0.015 C 
ATOM     24  C   UNL     1       9.259   0.629  24.443  0.00  0.00    +0.084 C 
ENDBRANCH  18  19
ENDBRANCH  17  18
ENDBRANCH   1  17
TORSDOF 6
ENDMDL
MODEL 7
REMARK VINA RESULT:      -6.1      1.791      2.654
REMARK  Name = 
REMARK  6 active torsions:
REMARK  status: ('A' for Active; 'I' for Inactive)
REMARK    1  A    between atoms: O_1  and  C_2
REMARK    2  A    between atoms: C_2  and  C_3
REMARK    3  A    between atoms: C_2  and  C_11
REMARK    4  A    between atoms: C_2  and  C_18
REMARK    5  A    between atoms: C_3  and  C_4
REMARK    6  A    between atoms: C_4  and  N_5
REMARK                            x       y       z     vdW  Elec       q    Type
REMARK                         _______ _______ _______ _____ _____    ______ ____
ROOT
ATOM      1  C   UNL     1       6.668  -2.804  23.430  0.00  0.00    +0.095 C 
ENDROOT
BRANCH   1   2
ATOM      2  C   UNL     1       5.120  -3.285  23.386  0.00  0.00    +0.033 C 
ATOM      3  C   UNL     1       4.724  -4.777  23.114  0.00  0.00    +0.018 C 
ATOM      4  C   UNL     1       3.221  -5.047  23.370  0.00  0.00    -0.027 C 
ATOM      5  C   UNL     1       2.993  -4.955  24.698  0.00  0.00    -0.027 C 
ATOM      6  C   UNL     1       4.303  -4.512  25.289  0.00  0.00    +0.012 C 
ATOM      7  C   UNL     1       5.185  -5.412  24.409  0.00  0.00    +0.015 C 
ATOM      8  C   UNL     1       4.444  -3.064  24.759  0.00  0.00    +0.015 C 
ENDBRANCH   1   2
BRANCH   1   9
ATOM      9  C   UNL     1       7.623  -3.495  24.432  0.00  0.00    -0.016 A 
ATOM     10  C   UNL     1       8.390  -4.620  24.061  0.00  0.00    +0.006 A 
ATOM     11  C   UNL     1       9.180  -5.317  24.988  0.00  0.00    +0.000 A 
ATOM     12  C   UNL     1       9.261  -4.881  26.307  0.00  0.00    +0.000 A 
ATOM     13  C   UNL     1       8.557  -3.749  26.694  0.00  0.00    +0.000 A 
ATOM     14  C   UNL     1       7.757  -3.068  25.768  0.00  0.00    +0.006 A 
ENDBRANCH   1   9
BRANCH   1  15
ATOM     15  O   UNL     1       7.216  -2.966  22.113  0.00  0.00    -0.384 OA
ATOM     16  H   UNL     1       7.578  -3.865  22.044  0.00  0.00    +0.211 HD
ENDBRANCH   1  15
BRANCH   1  17
ATOM     17  C   UNL     1       6.553  -1.277  23.708  0.00  0.00    +0.055 C 
BRANCH  17  18
ATOM     18  C   UNL     1       7.280  -0.217  22.866  0.00  0.00    +0.087 C 
BRANCH  18  19
ATOM     19  N   UNL     1       8.736  -0.512  22.910  0.00  0.00    -0.302 NA
ATOM     20  C   UNL     1       9.402  -0.198  24.181  0.00  0.00    +0.084 C 
ATOM     21  C   UNL     1       9.495   1.303  24.420  0.00  0.00    +0.015 C 
ATOM     22  C   UNL     1      10.366   1.910  23.331  0.00  0.00    +0.002 C 
ATOM     23  C   UNL     1       9.828   1.555  21.945  0.00  0.00    +0.015 C 
ATOM     24  C   UNL     1       9.492   0.065  21.791  0.00  0.00    +0.084 C 
ENDBRANCH  18  19
ENDBRANCH  17  18
ENDBRANCH   1  17
TORSDOF 6
ENDMDL
MODEL 8
REMARK VINA RESULT:      -5.8      2.177      6.332
REMARK  Name = 
REMARK  6 active torsions:
REMARK  status: ('A' for Active; 'I' for Inactive)
REMARK    1  A    between atoms: O_1  and  C_2
REMARK    2  A    between atoms: C_2  and  C_3
REMARK    3  A    between atoms: C_2  and  C_11
REMARK    4  A    between atoms: C_2  and  C_18
REMARK    5  A    between atoms: C_3  and  C_4
REMARK    6  A    between atoms: C_4  and  N_5
REMARK                            x       y       z     vdW  Elec       q    Type
REMARK                         _______ _______ _______ _____ _____    ______ ____
ROOT
ATOM      1  C   UNL     1       8.787  -0.677  25.263  0.00  0.00    +0.095 C 
ENDROOT
BRANCH   1   2
ATOM      2  C   UNL     1       7.189  -0.699  25.538  0.00  0.00    +0.033 C 
ATOM      3  C   UNL     1       6.574  -0.180  26.884  0.00  0.00    +0.018 C 
ATOM      4  C   UNL     1       5.031  -0.060  26.822  0.00  0.00    -0.027 C 
ATOM      5  C   UNL     1       4.716   0.952  25.985  0.00  0.00    -0.027 C 
ATOM      6  C   UNL     1       6.031   1.408  25.413  0.00  0.00    +0.012 C 
ATOM      7  C   UNL     1       6.819   1.306  26.728  0.00  0.00    +0.015 C 
ATOM      8  C   UNL     1       6.452   0.210  24.527  0.00  0.00    +0.015 C 
ENDBRANCH   1   2
BRANCH   1   9
ATOM      9  C   UNL     1       9.335   0.303  24.199  0.00  0.00    -0.016 A 
ATOM     10  C   UNL     1       9.770   1.600  24.547  0.00  0.00    +0.006 A 
ATOM     11  C   UNL     1      10.172   2.532  23.579  0.00  0.00    +0.000 A 
ATOM     12  C   UNL     1      10.193   2.178  22.233  0.00  0.00    +0.000 A 
ATOM     13  C   UNL     1       9.818   0.896  21.860  0.00  0.00    +0.000 A 
ATOM     14  C   UNL     1       9.402  -0.025  22.830  0.00  0.00    +0.006 A 
ENDBRANCH   1   9
BRANCH   1  15
ATOM     15  O   UNL     1       9.443  -0.392  26.507  0.00  0.00    -0.384 OA
ATOM     16  H   UNL     1       9.893   0.465  26.423  0.00  0.00    +0.211 HD
ENDBRANCH   1  15
BRANCH   1  17
ATOM     17  C   UNL     1       9.099  -2.157  24.894  0.00  0.00    +0.055 C 
BRANCH  17  18
ATOM     18  C   UNL     1       8.020  -3.250  24.839  0.00  0.00    +0.087 C 
BRANCH  18  19
ATOM     19  N   UNL     1       7.965  -3.774  23.448  0.00  0.00    -0.302 NA
ATOM     20  C   UNL     1       7.186  -2.962  22.503  0.00  0.00    +0.084 C 
ATOM     21  C   UNL     1       5.693  -3.019  22.799  0.00  0.00    +0.015 C 
ATOM     22  C   UNL     1       5.219  -4.452  22.607  0.00  0.00    +0.002 C 
ATOM     23  C   UNL     1       6.040  -5.414  23.467  0.00  0.00    +0.015 C 
ATOM     24  C   UNL     1       7.552  -5.180  23.360  0.00  0.00    +0.084 C 
ENDBRANCH  18  19
ENDBRANCH  17  18
ENDBRANCH   1  17
TORSDOF 6
ENDMDL
MODEL 9
REMARK VINA RESULT:      -5.7      1.831      5.936
REMARK  Name = 
REMARK  6 active torsions:
REMARK  status: ('A' for Active; 'I' for Inactive)
REMARK    1  A    between atoms: O_1  and  C_2
REMARK    2  A    between atoms: C_2  and  C_3
REMARK    3  A    between atoms: C_2  and  C_11
REMARK    4  A    between atoms: C_2  and  C_18
REMARK    5  A    between atoms: C_3  and  C_4
REMARK    6  A    between atoms: C_4  and  N_5
REMARK                            x       y       z     vdW  Elec       q    Type
REMARK                         _______ _______ _______ _____ _____    ______ ____
ROOT
ATOM      1  C   UNL     1       7.713  -2.737  24.573  0.00  0.00    +0.095 C 
ENDROOT
BRANCH   1   2
ATOM      2  C   UNL     1       8.323  -1.308  24.110  0.00  0.00    +0.033 C 
ATOM      3  C   UNL     1       9.868  -1.051  24.039  0.00  0.00    +0.018 C 
ATOM      4  C   UNL     1      10.214   0.283  23.334  0.00  0.00    -0.027 C 
ATOM      5  C   UNL     1       9.910   0.164  22.024  0.00  0.00    -0.027 C 
ATOM      6  C   UNL     1       9.261  -1.187  21.896  0.00  0.00    +0.012 C 
ATOM      7  C   UNL     1      10.223  -1.915  22.847  0.00  0.00    +0.015 C 
ATOM      8  C   UNL     1       7.922  -0.995  22.650  0.00  0.00    +0.015 C 
ENDBRANCH   1   2
BRANCH   1   9
ATOM      9  C   UNL     1       7.233  -3.720  23.479  0.00  0.00    -0.016 A 
ATOM     10  C   UNL     1       7.840  -4.982  23.304  0.00  0.00    +0.006 A 
ATOM     11  C   UNL     1       7.482  -5.837  22.252  0.00  0.00    +0.000 A 
ATOM     12  C   UNL     1       6.472  -5.473  21.366  0.00  0.00    +0.000 A 
ATOM     13  C   UNL     1       5.821  -4.261  21.537  0.00  0.00    +0.000 A 
ATOM     14  C   UNL     1       6.194  -3.403  22.581  0.00  0.00    +0.006 A 
ENDBRANCH   1   9
BRANCH   1  15
ATOM     15  O   UNL     1       8.710  -3.406  25.360  0.00  0.00    -0.384 OA
ATOM     16  H   UNL     1       8.359  -4.273  25.622  0.00  0.00    +0.211 HD
ENDBRANCH   1  15
BRANCH   1  17
ATOM     17  C   UNL     1       6.553  -2.331  25.528  0.00  0.00    +0.055 C 
BRANCH  17  18
ATOM     18  C   UNL     1       6.406  -2.892  26.951  0.00  0.00    +0.087 C 
BRANCH  18  19
ATOM     19  N   UNL     1       5.069  -3.533  27.058  0.00  0.00    -0.302 NA
ATOM     20  C   UNL     1       4.800  -4.214  28.332  0.00  0.00    +0.084 C 
ATOM     21  C   UNL     1       5.641  -5.474  28.493  0.00  0.00    +0.015 C 
ATOM     22  C   UNL     1       5.246  -6.457  27.402  0.00  0.00    +0.002 C 
ATOM     23  C   UNL     1       5.380  -5.818  26.020  0.00  0.00    +0.015 C 
ATOM     24  C   UNL     1       4.747  -4.423  25.936  0.00  0.00    +0.084 C 
ENDBRANCH  18  19
ENDBRANCH  17  18
ENDBRANCH   1  17
TORSDOF 6
ENDMDL
