MODEL 1
REMARK VINA RESULT:      -6.5      0.000      0.000
REMARK  Name = 
REMARK  21 active torsions:
REMARK  status: ('A' for Active; 'I' for Inactive)
REMARK    1  A    between atoms: N_1  and  C_2
REMARK    2  A    between atoms: N_6  and  C_7
REMARK    3  A    between atoms: C_10  and  C_12
REMARK    4  A    between atoms: C_12  and  O_13
REMARK    5  A    between atoms: O_13  and  P_14
REMARK    6  A    between atoms: P_14  and  O_15
REMARK    7  A    between atoms: P_14  and  O_17
REMARK    8  A    between atoms: O_17  and  P_18
REMARK    9  A    between atoms: P_18  and  O_19
REMARK   10  A    between atoms: P_18  and  O_21
REMARK   11  A    between atoms: O_21  and  P_22
REMARK   12  A    between atoms: P_22  and  O_23
REMARK   13  A    between atoms: P_22  and  O_25
REMARK   14  A    between atoms: O_25  and  P_26
REMARK   15  A    between atoms: P_26  and  O_27
REMARK   16  A    between atoms: P_26  and  O_29
REMARK   17  A    between atoms: O_29  and  P_30
REMARK   18  A    between atoms: P_30  and  O_31
REMARK   19  A    between atoms: P_30  and  O_32
REMARK   20  A    between atoms: C_34  and  O_36
REMARK   21  A    between atoms: C_37  and  O_39
REMARK                            x       y       z     vdW  Elec       q    Type
REMARK                         _______ _______ _______ _____ _____    ______ ____
ROOT
ATOM      1  P   UNL     1       9.064  -4.390  24.866  0.00  0.00    +0.483 P 
ATOM      2  O   UNL     1      10.257  -5.047  25.460  0.00  0.00    -0.227 OA
ENDROOT
BRANCH   1   3
ATOM      3  O   UNL     1       8.397  -5.239  23.684  0.00  0.00    -0.302 OA
ATOM      4  H   UNL     1       7.483  -4.940  23.525  0.00  0.00    +0.222 HD
ENDBRANCH   1   3
BRANCH   1   5
ATOM      5  O   UNL     1       7.841  -4.146  25.835  0.00  0.00    -0.186 OA
BRANCH   5   6
ATOM      6  P   UNL     1       6.951  -5.267  26.506  0.00  0.00    +0.492 P 
ATOM      7  O   UNL     1       6.143  -6.189  25.655  0.00  0.00    -0.226 OA
BRANCH   6   8
ATOM      8  O   UNL     1       7.953  -6.070  27.460  0.00  0.00    -0.302 OA
ATOM      9  H   UNL     1       7.472  -6.604  28.123  0.00  0.00    +0.222 HD
ENDBRANCH   6   8
BRANCH   6  10
ATOM     10  O   UNL     1       6.066  -4.458  27.554  0.00  0.00    -0.186 OA
BRANCH  10  11
ATOM     11  P   UNL     1       4.576  -5.255  27.930  0.00  0.00    +0.492 P 
ATOM     12  O   UNL     1       4.495  -4.445  29.228  0.00  0.00    -0.226 OA
BRANCH  11  13
ATOM     13  O   UNL     1       3.830  -4.378  26.765  0.00  0.00    -0.302 OA
ATOM     14  H   UNL     1       4.435  -3.786  26.270  0.00  0.00    +0.222 HD
ENDBRANCH  11  13
BRANCH  11  15
ATOM     15  O   UNL     1       3.087  -6.052  28.305  0.00  0.00    -0.186 OA
BRANCH  15  16
ATOM     16  P   UNL     1       2.328  -6.574  26.841  0.00  0.00    +0.492 P 
ATOM     17  O   UNL     1       1.626  -7.698  27.610  0.00  0.00    -0.226 OA
BRANCH  16  18
ATOM     18  O   UNL     1       3.730  -7.242  26.325  0.00  0.00    -0.302 OA
ATOM     19  H   UNL     1       3.843  -7.034  25.380  0.00  0.00    +0.222 HD
ENDBRANCH  16  18
BRANCH  16  20
ATOM     20  O   UNL     1       1.570  -7.097  25.376  0.00  0.00    -0.186 OA
BRANCH  20  21
ATOM     21  P   UNL     1       1.942  -8.277  24.416  0.00  0.00    +0.481 P 
ATOM     22  O   UNL     1       0.897  -8.694  23.446  0.00  0.00    -0.227 OA
BRANCH  21  23
ATOM     23  O   UNL     1       3.369  -7.884  23.829  0.00  0.00    -0.302 OA
ATOM     24  H   UNL     1       4.033  -8.590  23.909  0.00  0.00    +0.222 HD
ENDBRANCH  21  23
BRANCH  21  25
ATOM     25  O   UNL     1       2.349  -9.403  25.490  0.00  0.00    -0.302 OA
ATOM     26  H   UNL     1       3.313  -9.442  25.633  0.00  0.00    +0.222 HD
ENDBRANCH  21  25
ENDBRANCH  20  21
ENDBRANCH  16  20
ENDBRANCH  15  16
ENDBRANCH  11  15
ENDBRANCH  10  11
ENDBRANCH   6  10
ENDBRANCH   5   6
ENDBRANCH   1   5
BRANCH   1  27
ATOM     27  O   UNL     1       9.324  -2.982  24.159  0.00  0.00    -0.284 OA
BRANCH  27  28
ATOM     28  C   UNL     1       9.398  -1.801  24.934  0.00  0.00    +0.206 C 
BRANCH  28  32
ATOM     29  C   UNL     1       7.214  -0.255  23.171  0.00  0.00    +0.253 C 
ATOM     30  C   UNL     1       7.461   0.984  24.045  0.00  0.00    +0.195 C 
ATOM     31  C   UNL     1       8.760   0.663  24.801  0.00  0.00    +0.178 C 
ATOM     32  C   UNL     1       9.364  -0.536  24.056  0.00  0.00    +0.178 C 
ATOM     33  O   UNL     1       8.543  -0.736  22.880  0.00  0.00    -0.346 OA
BRANCH  29  39
ATOM     34  C   UNL     1       4.553  -4.287  23.288  0.00  0.00    +0.147 A 
ATOM     35  N   UNL     1       5.034  -4.798  22.131  0.00  0.00    -0.219 NA
ATOM     36  C   UNL     1       6.054  -4.158  21.526  0.00  0.00    +0.225 A 
ATOM     37  N   UNL     1       6.682  -3.035  21.913  0.00  0.00    -0.216 NA
ATOM     38  C   UNL     1       6.181  -2.572  23.067  0.00  0.00    +0.167 A 
ATOM     39  N   UNL     1       6.454  -1.383  23.679  0.00  0.00    -0.286 N 
ATOM     40  C   UNL     1       5.671  -1.312  24.804  0.00  0.00    +0.203 A 
ATOM     41  N   UNL     1       4.886  -2.363  24.929  0.00  0.00    -0.231 NA
ATOM     42  C   UNL     1       5.151  -3.128  23.812  0.00  0.00    +0.147 A 
BRANCH  34  43
ATOM     43  N   UNL     1       3.462  -4.919  23.869  0.00  0.00    -0.341 N 
ATOM     44  H   UNL     1       3.481  -5.920  23.728  0.00  0.00    +0.144 HD
ATOM     45  H   UNL     1       3.230  -4.569  24.791  0.00  0.00    +0.144 HD
ENDBRANCH  34  43
ENDBRANCH  29  39
BRANCH  31  46
ATOM     46  O   UNL     1       9.682   1.753  24.823  0.00  0.00    -0.386 OA
ATOM     47  H   UNL     1       9.476   2.318  25.588  0.00  0.00    +0.210 HD
ENDBRANCH  31  46
BRANCH  30  48
ATOM     48  O   UNL     1       7.642   2.146  23.203  0.00  0.00    -0.385 OA
ATOM     49  H   UNL     1       6.882   2.221  22.601  0.00  0.00    +0.210 HD
ENDBRANCH  30  48
ENDBRANCH  28  32
ENDBRANCH  27  28
ENDBRANCH   1  27
TORSDOF 21
ENDMDL
MODEL 2
REMARK VINA RESULT:      -6.3      4.652      7.975
REMARK  Name = 
REMARK  21 active torsions:
REMARK  status: ('A' for Active; 'I' for Inactive)
REMARK    1  A    between atoms: N_1  and  C_2
REMARK    2  A    between atoms: N_6  and  C_7
REMARK    3  A    between atoms: C_10  and  C_12
REMARK    4  A    between atoms: C_12  and  O_13
REMARK    5  A    between atoms: O_13  and  P_14
REMARK    6  A    between atoms: P_14  and  O_15
REMARK    7  A    between atoms: P_14  and  O_17
REMARK    8  A    between atoms: O_17  and  P_18
REMARK    9  A    between atoms: P_18  and  O_19
REMARK   10  A    between atoms: P_18  and  O_21
REMARK   11  A    between atoms: O_21  and  P_22
REMARK   12  A    between atoms: P_22  and  O_23
REMARK   13  A    between atoms: P_22  and  O_25
REMARK   14  A    between atoms: O_25  and  P_26
REMARK   15  A    between atoms: P_26  and  O_27
REMARK   16  A    between atoms: P_26  and  O_29
REMARK   17  A    between atoms: O_29  and  P_30
REMARK   18  A    between atoms: P_30  and  O_31
REMARK   19  A    between atoms: P_30  and  O_32
REMARK   20  A    between atoms: C_34  and  O_36
REMARK   21  A    between atoms: C_37  and  O_39
REMARK                            x       y       z     vdW  Elec       q    Type
REMARK                         _______ _______ _______ _____ _____    ______ ____
ROOT
ATOM      1  P   UNL     1       5.554  -0.293  25.794  0.00  0.00    +0.483 P 
ATOM      2  O   UNL     1       4.360  -1.077  26.207  0.00  0.00    -0.227 OA
ENDROOT
BRANCH   1   3
ATOM      3  O   UNL     1       5.441   0.296  24.310  0.00  0.00    -0.302 OA
ATOM      4  H   UNL     1       4.928  -0.308  23.743  0.00  0.00    +0.222 HD
ENDBRANCH   1   3
BRANCH   1   5
ATOM      5  O   UNL     1       5.874   0.998  26.643  0.00  0.00    -0.186 OA
BRANCH   5   6
ATOM      6  P   UNL     1       6.849   2.169  26.220  0.00  0.00    +0.492 P 
ATOM      7  O   UNL     1       7.436   3.065  27.259  0.00  0.00    -0.226 OA
BRANCH   6   8
ATOM      8  O   UNL     1       7.983   1.462  25.341  0.00  0.00    -0.302 OA
ATOM      9  H   UNL     1       7.610   0.775  24.754  0.00  0.00    +0.222 HD
ENDBRANCH   6   8
BRANCH   6  10
ATOM     10  O   UNL     1       6.017   2.963  25.118  0.00  0.00    -0.186 OA
BRANCH  10  11
ATOM     11  P   UNL     1       6.869   3.119  23.619  0.00  0.00    +0.492 P 
ATOM     12  O   UNL     1       5.773   4.068  23.122  0.00  0.00    -0.226 OA
BRANCH  11  13
ATOM     13  O   UNL     1       7.996   4.037  24.373  0.00  0.00    -0.302 OA
ATOM     14  H   UNL     1       8.633   3.517  24.907  0.00  0.00    +0.222 HD
ENDBRANCH  11  13
BRANCH  11  15
ATOM     15  O   UNL     1       7.719   3.276  22.122  0.00  0.00    -0.186 OA
BRANCH  15  16
ATOM     16  P   UNL     1       8.473   1.770  21.727  0.00  0.00    +0.492 P 
ATOM     17  O   UNL     1       7.371   1.022  22.485  0.00  0.00    -0.226 OA
BRANCH  16  18
ATOM     18  O   UNL     1       9.637   2.032  22.847  0.00  0.00    -0.302 OA
ATOM     19  H   UNL     1      10.183   1.229  22.922  0.00  0.00    +0.222 HD
ENDBRANCH  16  18
BRANCH  16  20
ATOM     20  O   UNL     1       9.229   0.264  21.333  0.00  0.00    -0.186 OA
BRANCH  20  21
ATOM     21  P   UNL     1       9.253  -1.088  22.124  0.00  0.00    +0.481 P 
ATOM     22  O   UNL     1       8.156  -2.045  21.832  0.00  0.00    -0.227 OA
BRANCH  21  23
ATOM     23  O   UNL     1      10.746  -1.619  21.968  0.00  0.00    -0.302 OA
ATOM     24  H   UNL     1      11.397  -1.116  22.487  0.00  0.00    +0.222 HD
ENDBRANCH  21  23
BRANCH  21  25
ATOM     25  O   UNL     1       9.278  -0.536  23.635  0.00  0.00    -0.302 OA
ATOM     26  H   UNL     1       9.510   0.411  23.676  0.00  0.00    +0.222 HD
ENDBRANCH  21  25
ENDBRANCH  20  21
ENDBRANCH  16  20
ENDBRANCH  15  16
ENDBRANCH  11  15
ENDBRANCH  10  11
ENDBRANCH   6  10
ENDBRANCH   5   6
ENDBRANCH   1   5
BRANCH   1  27
ATOM     27  O   UNL     1       6.928  -1.102  25.727  0.00  0.00    -0.284 OA
BRANCH  27  28
ATOM     28  C   UNL     1       6.925  -2.515  25.798  0.00  0.00    +0.206 C 
BRANCH  28  32
ATOM     29  C   UNL     1       8.230  -5.314  26.652  0.00  0.00    +0.253 C 
ATOM     30  C   UNL     1       8.908  -5.359  25.274  0.00  0.00    +0.195 C 
ATOM     31  C   UNL     1       8.753  -3.931  24.728  0.00  0.00    +0.178 C 
ATOM     32  C   UNL     1       8.348  -3.086  25.943  0.00  0.00    +0.178 C 
ATOM     33  O   UNL     1       8.449  -3.957  27.094  0.00  0.00    -0.346 OA
BRANCH  29  39
ATOM     34  C   UNL     1       4.035  -6.871  28.476  0.00  0.00    +0.147 A 
ATOM     35  N   UNL     1       4.408  -6.772  29.773  0.00  0.00    -0.219 NA
ATOM     36  C   UNL     1       5.599  -6.207  30.053  0.00  0.00    +0.225 A 
ATOM     37  N   UNL     1       6.512  -5.718  29.198  0.00  0.00    -0.216 NA
ATOM     38  C   UNL     1       6.095  -5.826  27.928  0.00  0.00    +0.167 A 
ATOM     39  N   UNL     1       6.810  -5.584  26.791  0.00  0.00    -0.286 N 
ATOM     40  C   UNL     1       5.997  -5.879  25.725  0.00  0.00    +0.203 A 
ATOM     41  N   UNL     1       4.820  -6.331  26.110  0.00  0.00    -0.231 NA
ATOM     42  C   UNL     1       4.895  -6.363  27.487  0.00  0.00    +0.147 A 
BRANCH  34  43
ATOM     43  N   UNL     1       2.835  -7.511  28.196  0.00  0.00    -0.341 N 
ATOM     44  H   UNL     1       2.169  -6.895  27.751  0.00  0.00    +0.144 HD
ATOM     45  H   UNL     1       2.948  -8.446  27.822  0.00  0.00    +0.144 HD
ENDBRANCH  34  43
ENDBRANCH  29  39
BRANCH  31  46
ATOM     46  O   UNL     1       9.950  -3.421  24.140  0.00  0.00    -0.386 OA
ATOM     47  H   UNL     1      10.204  -4.000  23.401  0.00  0.00    +0.210 HD
ENDBRANCH  31  46
BRANCH  30  48
ATOM     48  O   UNL     1      10.307  -5.690  25.430  0.00  0.00    -0.385 OA
ATOM     49  H   UNL     1      10.482  -6.538  24.987  0.00  0.00    +0.210 HD
ENDBRANCH  30  48
ENDBRANCH  28  32
ENDBRANCH  27  28
ENDBRANCH   1  27
TORSDOF 21
ENDMDL
MODEL 3
REMARK VINA RESULT:      -6.2      3.092      7.802
REMARK  Name = 
REMARK  21 active torsions:
REMARK  status: ('A' for Active; 'I' for Inactive)
REMARK    1  A    between atoms: N_1  and  C_2
REMARK    2  A    between atoms: N_6  and  C_7
REMARK    3  A    between atoms: C_10  and  C_12
REMARK    4  A    between atoms: C_12  and  O_13
REMARK    5  A    between atoms: O_13  and  P_14
REMARK    6  A    between atoms: P_14  and  O_15
REMARK    7  A    between atoms: P_14  and  O_17
REMARK    8  A    between atoms: O_17  and  P_18
REMARK    9  A    between atoms: P_18  and  O_19
REMARK   10  A    between atoms: P_18  and  O_21
REMARK   11  A    between atoms: O_21  and  P_22
REMARK   12  A    between atoms: P_22  and  O_23
REMARK   13  A    between atoms: P_22  and  O_25
REMARK   14  A    between atoms: O_25  and  P_26
REMARK   15  A    between atoms: P_26  and  O_27
REMARK   16  A    between atoms: P_26  and  O_29
REMARK   17  A    between atoms: O_29  and  P_30
REMARK   18  A    between atoms: P_30  and  O_31
REMARK   19  A    between atoms: P_30  and  O_32
REMARK   20  A    between atoms: C_34  and  O_36
REMARK   21  A    between atoms: C_37  and  O_39
REMARK                            x       y       z     vdW  Elec       q    Type
REMARK                         _______ _______ _______ _____ _____    ______ ____
ROOT
ATOM      1  P   UNL     1       8.364  -4.808  25.386  0.00  0.00    +0.483 P 
ATOM      2  O   UNL     1       8.079  -4.852  23.929  0.00  0.00    -0.227 OA
ENDROOT
BRANCH   1   3
ATOM      3  O   UNL     1       9.650  -5.664  25.805  0.00  0.00    -0.302 OA
ATOM      4  H   UNL     1       9.794  -6.392  25.173  0.00  0.00    +0.222 HD
ENDBRANCH   1   3
BRANCH   1   5
ATOM      5  O   UNL     1       8.694  -3.389  25.995  0.00  0.00    -0.186 OA
BRANCH   5   6
ATOM      6  P   UNL     1       8.662  -2.014  25.215  0.00  0.00    +0.492 P 
ATOM      7  O   UNL     1       7.404  -1.557  24.557  0.00  0.00    -0.226 OA
BRANCH   6   8
ATOM      8  O   UNL     1       9.206  -0.935  26.264  0.00  0.00    -0.302 OA
ATOM      9  H   UNL     1       9.717  -1.356  26.983  0.00  0.00    +0.222 HD
ENDBRANCH   6   8
BRANCH   6  10
ATOM     10  O   UNL     1       9.881  -2.138  24.198  0.00  0.00    -0.186 OA
BRANCH  10  11
ATOM     11  P   UNL     1       9.605  -1.291  22.714  0.00  0.00    +0.492 P 
ATOM     12  O   UNL     1      10.985  -1.743  22.225  0.00  0.00    -0.226 OA
BRANCH  11  13
ATOM     13  O   UNL     1       8.533  -2.447  22.272  0.00  0.00    -0.302 OA
ATOM     14  H   UNL     1       8.007  -2.213  21.478  0.00  0.00    +0.222 HD
ENDBRANCH  11  13
BRANCH  11  15
ATOM     15  O   UNL     1       9.328  -0.445  21.231  0.00  0.00    -0.186 OA
BRANCH  15  16
ATOM     16  P   UNL     1       8.713   1.135  21.574  0.00  0.00    +0.492 P 
ATOM     17  O   UNL     1      10.139   1.629  21.840  0.00  0.00    -0.226 OA
BRANCH  16  18
ATOM     18  O   UNL     1       8.173   0.633  23.035  0.00  0.00    -0.302 OA
ATOM     19  H   UNL     1       8.128   1.402  23.631  0.00  0.00    +0.222 HD
ENDBRANCH  16  18
BRANCH  16  20
ATOM     20  O   UNL     1       8.097   2.714  21.919  0.00  0.00    -0.186 OA
BRANCH  20  21
ATOM     21  P   UNL     1       6.876   3.149  22.798  0.00  0.00    +0.481 P 
ATOM     22  O   UNL     1       7.129   3.301  24.254  0.00  0.00    -0.227 OA
BRANCH  21  23
ATOM     23  O   UNL     1       6.251   4.398  22.032  0.00  0.00    -0.302 OA
ATOM     24  H   UNL     1       6.819   5.186  22.042  0.00  0.00    +0.222 HD
ENDBRANCH  21  23
BRANCH  21  25
ATOM     25  O   UNL     1       5.822   1.994  22.416  0.00  0.00    -0.302 OA
ATOM     26  H   UNL     1       4.913   2.223  22.685  0.00  0.00    +0.222 HD
ENDBRANCH  21  25
ENDBRANCH  20  21
ENDBRANCH  16  20
ENDBRANCH  15  16
ENDBRANCH  11  15
ENDBRANCH  10  11
ENDBRANCH   6  10
ENDBRANCH   5   6
ENDBRANCH   1   5
BRANCH   1  27
ATOM     27  O   UNL     1       7.235  -5.418  26.335  0.00  0.00    -0.284 OA
BRANCH  27  28
ATOM     28  C   UNL     1       6.678  -4.633  27.372  0.00  0.00    +0.206 C 
BRANCH  28  32
ATOM     29  C   UNL     1       3.524  -5.178  27.218  0.00  0.00    +0.253 C 
ATOM     30  C   UNL     1       3.840  -6.679  27.141  0.00  0.00    +0.195 C 
ATOM     31  C   UNL     1       5.316  -6.779  27.557  0.00  0.00    +0.178 C 
ATOM     32  C   UNL     1       5.639  -5.420  28.193  0.00  0.00    +0.178 C 
ATOM     33  O   UNL     1       4.385  -4.703  28.276  0.00  0.00    -0.346 OA
BRANCH  29  39
ATOM     34  C   UNL     1       5.049  -3.596  22.915  0.00  0.00    +0.147 A 
ATOM     35  N   UNL     1       5.086  -4.815  22.329  0.00  0.00    -0.219 NA
ATOM     36  C   UNL     1       4.604  -5.869  23.018  0.00  0.00    +0.225 A 
ATOM     37  N   UNL     1       4.080  -5.888  24.255  0.00  0.00    -0.216 NA
ATOM     38  C   UNL     1       4.053  -4.659  24.790  0.00  0.00    +0.167 A 
ATOM     39  N   UNL     1       3.741  -4.313  26.072  0.00  0.00    -0.286 N 
ATOM     40  C   UNL     1       3.901  -2.954  26.181  0.00  0.00    +0.203 A 
ATOM     41  N   UNL     1       4.333  -2.415  25.058  0.00  0.00    -0.231 NA
ATOM     42  C   UNL     1       4.493  -3.483  24.200  0.00  0.00    +0.147 A 
BRANCH  34  43
ATOM     43  N   UNL     1       5.606  -2.530  22.221  0.00  0.00    -0.341 N 
ATOM     44  H   UNL     1       6.288  -2.030  22.774  0.00  0.00    +0.144 HD
ATOM     45  H   UNL     1       5.834  -2.744  21.257  0.00  0.00    +0.144 HD
ENDBRANCH  34  43
ENDBRANCH  29  39
BRANCH  31  46
ATOM     46  O   UNL     1       5.571  -7.837  28.481  0.00  0.00    -0.386 OA
ATOM     47  H   UNL     1       4.901  -8.530  28.351  0.00  0.00    +0.210 HD
ENDBRANCH  31  46
BRANCH  30  48
ATOM     48  O   UNL     1       3.004  -7.401  28.076  0.00  0.00    -0.385 OA
ATOM     49  H   UNL     1       2.091  -7.075  28.000  0.00  0.00    +0.210 HD
ENDBRANCH  30  48
ENDBRANCH  28  32
ENDBRANCH  27  28
ENDBRANCH   1  27
TORSDOF 21
ENDMDL
MODEL 4
REMARK VINA RESULT:      -6.1      2.938      5.168
REMARK  Name = 
REMARK  21 active torsions:
REMARK  status: ('A' for Active; 'I' for Inactive)
REMARK    1  A    between atoms: N_1  and  C_2
REMARK    2  A    between atoms: N_6  and  C_7
REMARK    3  A    between atoms: C_10  and  C_12
REMARK    4  A    between atoms: C_12  and  O_13
REMARK    5  A    between atoms: O_13  and  P_14
REMARK    6  A    between atoms: P_14  and  O_15
REMARK    7  A    between atoms: P_14  and  O_17
REMARK    8  A    between atoms: O_17  and  P_18
REMARK    9  A    between atoms: P_18  and  O_19
REMARK   10  A    between atoms: P_18  and  O_21
REMARK   11  A    between atoms: O_21  and  P_22
REMARK   12  A    between atoms: P_22  and  O_23
REMARK   13  A    between atoms: P_22  and  O_25
REMARK   14  A    between atoms: O_25  and  P_26
REMARK   15  A    between atoms: P_26  and  O_27
REMARK   16  A    between atoms: P_26  and  O_29
REMARK   17  A    between atoms: O_29  and  P_30
REMARK   18  A    between atoms: P_30  and  O_31
REMARK   19  A    between atoms: P_30  and  O_32
REMARK   20  A    between atoms: C_34  and  O_36
REMARK   21  A    between atoms: C_37  and  O_39
REMARK                            x       y       z     vdW  Elec       q    Type
REMARK                         _______ _______ _______ _____ _____    ______ ____
ROOT
ATOM      1  P   UNL     1       8.285  -4.616  24.342  0.00  0.00    +0.483 P 
ATOM      2  O   UNL     1       9.213  -5.761  24.529  0.00  0.00    -0.227 OA
ENDROOT
BRANCH   1   3
ATOM      3  O   UNL     1       8.902  -3.441  23.446  0.00  0.00    -0.302 OA
ATOM      4  H   UNL     1       8.247  -2.731  23.320  0.00  0.00    +0.222 HD
ENDBRANCH   1   3
BRANCH   1   5
ATOM      5  O   UNL     1       6.927  -4.926  23.598  0.00  0.00    -0.186 OA
BRANCH   5   6
ATOM      6  P   UNL     1       6.544  -4.464  22.135  0.00  0.00    +0.492 P 
ATOM      7  O   UNL     1       6.988  -3.132  21.631  0.00  0.00    -0.226 OA
BRANCH   6   8
ATOM      8  O   UNL     1       7.043  -5.652  21.186  0.00  0.00    -0.302 OA
ATOM      9  H   UNL     1       6.802  -6.528  21.546  0.00  0.00    +0.222 HD
ENDBRANCH   6   8
BRANCH   6  10
ATOM     10  O   UNL     1       4.962  -4.644  22.093  0.00  0.00    -0.186 OA
BRANCH  10  11
ATOM     11  P   UNL     1       4.358  -5.575  23.422  0.00  0.00    +0.492 P 
ATOM     12  O   UNL     1       2.982  -5.603  22.749  0.00  0.00    -0.226 OA
BRANCH  11  13
ATOM     13  O   UNL     1       5.192  -6.873  22.871  0.00  0.00    -0.302 OA
ATOM     14  H   UNL     1       5.261  -7.602  23.523  0.00  0.00    +0.222 HD
ENDBRANCH  11  13
BRANCH  11  15
ATOM     15  O   UNL     1       3.755  -6.506  24.749  0.00  0.00    -0.186 OA
BRANCH  15  16
ATOM     16  P   UNL     1       4.421  -5.902  26.227  0.00  0.00    +0.492 P 
ATOM     17  O   UNL     1       4.315  -4.472  25.686  0.00  0.00    -0.226 OA
BRANCH  16  18
ATOM     18  O   UNL     1       5.916  -6.399  25.784  0.00  0.00    -0.302 OA
ATOM     19  H   UNL     1       6.456  -5.615  25.579  0.00  0.00    +0.222 HD
ENDBRANCH  16  18
BRANCH  16  20
ATOM     20  O   UNL     1       5.088  -5.298  27.704  0.00  0.00    -0.186 OA
BRANCH  20  21
ATOM     21  P   UNL     1       6.012  -6.004  28.754  0.00  0.00    +0.481 P 
ATOM     22  O   UNL     1       6.019  -5.426  30.123  0.00  0.00    -0.227 OA
BRANCH  21  23
ATOM     23  O   UNL     1       5.667  -7.553  28.617  0.00  0.00    -0.302 OA
ATOM     24  H   UNL     1       6.014  -8.096  29.345  0.00  0.00    +0.222 HD
ENDBRANCH  21  23
BRANCH  21  25
ATOM     25  O   UNL     1       7.424  -5.933  27.987  0.00  0.00    -0.302 OA
ATOM     26  H   UNL     1       7.800  -6.819  27.828  0.00  0.00    +0.222 HD
ENDBRANCH  21  25
ENDBRANCH  20  21
ENDBRANCH  16  20
ENDBRANCH  15  16
ENDBRANCH  11  15
ENDBRANCH  10  11
ENDBRANCH   6  10
ENDBRANCH   5   6
ENDBRANCH   1   5
BRANCH   1  27
ATOM     27  O   UNL     1       7.865  -3.836  25.670  0.00  0.00    -0.284 OA
BRANCH  27  28
ATOM     28  C   UNL     1       6.941  -2.767  25.604  0.00  0.00    +0.206 C 
BRANCH  28  32
ATOM     29  C   UNL     1       6.944   0.225  26.750  0.00  0.00    +0.253 C 
ATOM     30  C   UNL     1       5.505  -0.014  27.234  0.00  0.00    +0.195 C 
ATOM     31  C   UNL     1       5.320  -1.537  27.139  0.00  0.00    +0.178 C 
ATOM     32  C   UNL     1       6.740  -2.097  26.977  0.00  0.00    +0.178 C 
ATOM     33  O   UNL     1       7.639  -0.976  27.148  0.00  0.00    -0.346 OA
BRANCH  29  39
ATOM     34  C   UNL     1       9.253   1.494  22.700  0.00  0.00    +0.147 A 
ATOM     35  N   UNL     1      10.499   1.303  23.191  0.00  0.00    -0.219 NA
ATOM     36  C   UNL     1      10.625   0.756  24.417  0.00  0.00    +0.225 A 
ATOM     37  N   UNL     1       9.655   0.367  25.260  0.00  0.00    -0.216 NA
ATOM     38  C   UNL     1       8.441   0.563  24.728  0.00  0.00    +0.167 A 
ATOM     39  N   UNL     1       7.229   0.436  25.343  0.00  0.00    -0.286 N 
ATOM     40  C   UNL     1       6.267   0.790  24.429  0.00  0.00    +0.203 A 
ATOM     41  N   UNL     1       6.790   1.172  23.282  0.00  0.00    -0.231 NA
ATOM     42  C   UNL     1       8.153   1.095  23.480  0.00  0.00    +0.147 A 
BRANCH  34  43
ATOM     43  N   UNL     1       9.134   2.115  21.464  0.00  0.00    -0.341 N 
ATOM     44  H   UNL     1       8.378   2.786  21.445  0.00  0.00    +0.144 HD
ATOM     45  H   UNL     1      10.021   2.381  21.053  0.00  0.00    +0.144 HD
ENDBRANCH  34  43
ENDBRANCH  29  39
BRANCH  31  46
ATOM     46  O   UNL     1       4.690  -2.100  28.290  0.00  0.00    -0.386 OA
ATOM     47  H   UNL     1       3.727  -1.989  28.201  0.00  0.00    +0.210 HD
ENDBRANCH  31  46
BRANCH  30  48
ATOM     48  O   UNL     1       5.373   0.425  28.606  0.00  0.00    -0.385 OA
ATOM     49  H   UNL     1       4.433   0.590  28.794  0.00  0.00    +0.210 HD
ENDBRANCH  30  48
ENDBRANCH  28  32
ENDBRANCH  27  28
ENDBRANCH   1  27
TORSDOF 21
ENDMDL
MODEL 5
REMARK VINA RESULT:      -6.1      3.094      5.380
REMARK  Name = 
REMARK  21 active torsions:
REMARK  status: ('A' for Active; 'I' for Inactive)
REMARK    1  A    between atoms: N_1  and  C_2
REMARK    2  A    between atoms: N_6  and  C_7
REMARK    3  A    between atoms: C_10  and  C_12
REMARK    4  A    between atoms: C_12  and  O_13
REMARK    5  A    between atoms: O_13  and  P_14
REMARK    6  A    between atoms: P_14  and  O_15
REMARK    7  A    between atoms: P_14  and  O_17
REMARK    8  A    between atoms: O_17  and  P_18
REMARK    9  A    between atoms: P_18  and  O_19
REMARK   10  A    between atoms: P_18  and  O_21
REMARK   11  A    between atoms: O_21  and  P_22
REMARK   12  A    between atoms: P_22  and  O_23
REMARK   13  A    between atoms: P_22  and  O_25
REMARK   14  A    between atoms: O_25  and  P_26
REMARK   15  A    between atoms: P_26  and  O_27
REMARK   16  A    between atoms: P_26  and  O_29
REMARK   17  A    between atoms: O_29  and  P_30
REMARK   18  A    between atoms: P_30  and  O_31
REMARK   19  A    between atoms: P_30  and  O_32
REMARK   20  A    between atoms: C_34  and  O_36
REMARK   21  A    between atoms: C_37  and  O_39
REMARK                            x       y       z     vdW  Elec       q    Type
REMARK                         _______ _______ _______ _____ _____    ______ ____
ROOT
ATOM      1  P   UNL     1       6.821   0.600  27.128  0.00  0.00    +0.483 P 
ATOM      2  O   UNL     1       6.412   1.848  26.432  0.00  0.00    -0.227 OA
ENDROOT
BRANCH   1   3
ATOM      3  O   UNL     1       7.696   0.866  28.441  0.00  0.00    -0.302 OA
ATOM      4  H   UNL     1       7.893   0.025  28.894  0.00  0.00    +0.222 HD
ENDBRANCH   1   3
BRANCH   1   5
ATOM      5  O   UNL     1       5.655  -0.311  27.681  0.00  0.00    -0.186 OA
BRANCH   5   6
ATOM      6  P   UNL     1       4.380  -0.779  26.871  0.00  0.00    +0.492 P 
ATOM      7  O   UNL     1       3.201   0.125  26.745  0.00  0.00    -0.226 OA
BRANCH   6   8
ATOM      8  O   UNL     1       4.943  -1.220  25.440  0.00  0.00    -0.302 OA
ATOM      9  H   UNL     1       4.241  -1.604  24.878  0.00  0.00    +0.222 HD
ENDBRANCH   6   8
BRANCH   6  10
ATOM     10  O   UNL     1       4.016  -2.180  27.535  0.00  0.00    -0.186 OA
BRANCH  10  11
ATOM     11  P   UNL     1       3.536  -3.368  26.371  0.00  0.00    +0.492 P 
ATOM     12  O   UNL     1       2.858  -4.161  27.493  0.00  0.00    -0.226 OA
BRANCH  11  13
ATOM     13  O   UNL     1       2.425  -2.320  25.781  0.00  0.00    -0.302 OA
ATOM     14  H   UNL     1       2.393  -1.467  26.265  0.00  0.00    +0.222 HD
ENDBRANCH  11  13
BRANCH  11  15
ATOM     15  O   UNL     1       3.055  -4.555  25.208  0.00  0.00    -0.186 OA
BRANCH  15  16
ATOM     16  P   UNL     1       4.416  -4.989  24.232  0.00  0.00    +0.492 P 
ATOM     17  O   UNL     1       5.255  -5.193  25.497  0.00  0.00    -0.226 OA
BRANCH  16  18
ATOM     18  O   UNL     1       4.656  -3.422  23.828  0.00  0.00    -0.302 OA
ATOM     19  H   UNL     1       3.810  -3.047  23.523  0.00  0.00    +0.222 HD
ENDBRANCH  16  18
BRANCH  16  20
ATOM     20  O   UNL     1       5.777  -5.422  23.255  0.00  0.00    -0.186 OA
BRANCH  20  21
ATOM     21  P   UNL     1       6.049  -5.159  21.735  0.00  0.00    +0.481 P 
ATOM     22  O   UNL     1       5.653  -3.826  21.213  0.00  0.00    -0.227 OA
BRANCH  21  23
ATOM     23  O   UNL     1       7.560  -5.611  21.512  0.00  0.00    -0.302 OA
ATOM     24  H   UNL     1       7.948  -5.283  20.684  0.00  0.00    +0.222 HD
ENDBRANCH  21  23
BRANCH  21  25
ATOM     25  O   UNL     1       5.257  -6.399  21.083  0.00  0.00    -0.302 OA
ATOM     26  H   UNL     1       4.908  -6.186  20.197  0.00  0.00    +0.222 HD
ENDBRANCH  21  25
ENDBRANCH  20  21
ENDBRANCH  16  20
ENDBRANCH  15  16
ENDBRANCH  11  15
ENDBRANCH  10  11
ENDBRANCH   6  10
ENDBRANCH   5   6
ENDBRANCH   1   5
BRANCH   1  27
ATOM     27  O   UNL     1       7.761  -0.385  26.295  0.00  0.00    -0.284 OA
BRANCH  27  28
ATOM     28  C   UNL     1       8.366  -1.496  26.929  0.00  0.00    +0.206 C 
BRANCH  28  32
ATOM     29  C   UNL     1       8.191  -2.982  24.097  0.00  0.00    +0.253 C 
ATOM     30  C   UNL     1       8.976  -4.148  24.718  0.00  0.00    +0.195 C 
ATOM     31  C   UNL     1       8.913  -3.885  26.231  0.00  0.00    +0.178 C 
ATOM     32  C   UNL     1       7.809  -2.831  26.402  0.00  0.00    +0.178 C 
ATOM     33  O   UNL     1       7.201  -2.667  25.099  0.00  0.00    -0.346 OA
BRANCH  29  39
ATOM     34  C   UNL     1       9.050   1.335  22.104  0.00  0.00    +0.147 A 
ATOM     35  N   UNL     1       7.751   1.704  22.020  0.00  0.00    -0.219 NA
ATOM     36  C   UNL     1       6.823   0.907  22.586  0.00  0.00    +0.225 A 
ATOM     37  N   UNL     1       7.006  -0.252  23.238  0.00  0.00    -0.216 NA
ATOM     38  C   UNL     1       8.306  -0.573  23.307  0.00  0.00    +0.167 A 
ATOM     39  N   UNL     1       8.856  -1.740  23.749  0.00  0.00    -0.286 N 
ATOM     40  C   UNL     1      10.216  -1.640  23.585  0.00  0.00    +0.203 A 
ATOM     41  N   UNL     1      10.565  -0.497  23.030  0.00  0.00    -0.231 NA
ATOM     42  C   UNL     1       9.371   0.152  22.793  0.00  0.00    +0.147 A 
BRANCH  34  43
ATOM     43  N   UNL     1       9.990   2.131  21.463  0.00  0.00    -0.341 N 
ATOM     44  H   UNL     1      10.559   2.651  22.117  0.00  0.00    +0.144 HD
ATOM     45  H   UNL     1      10.451   1.673  20.685  0.00  0.00    +0.144 HD
ENDBRANCH  34  43
ENDBRANCH  29  39
BRANCH  31  46
ATOM     46  O   UNL     1       8.610  -5.054  26.993  0.00  0.00    -0.386 OA
ATOM     47  H   UNL     1       8.061  -4.795  27.753  0.00  0.00    +0.210 HD
ENDBRANCH  31  46
BRANCH  30  48
ATOM     48  O   UNL     1       8.326  -5.399  24.397  0.00  0.00    -0.385 OA
ATOM     49  H   UNL     1       8.819  -5.836  23.681  0.00  0.00    +0.210 HD
ENDBRANCH  30  48
ENDBRANCH  28  32
ENDBRANCH  27  28
ENDBRANCH   1  27
TORSDOF 21
ENDMDL
MODEL 6
REMARK VINA RESULT:      -6.0      3.723      8.384
REMARK  Name = 
REMARK  21 active torsions:
REMARK  status: ('A' for Active; 'I' for Inactive)
REMARK    1  A    between atoms: N_1  and  C_2
REMARK    2  A    between atoms: N_6  and  C_7
REMARK    3  A    between atoms: C_10  and  C_12
REMARK    4  A    between atoms: C_12  and  O_13
REMARK    5  A    between atoms: O_13  and  P_14
REMARK    6  A    between atoms: P_14  and  O_15
REMARK    7  A    between atoms: P_14  and  O_17
REMARK    8  A    between atoms: O_17  and  P_18
REMARK    9  A    between atoms: P_18  and  O_19
REMARK   10  A    between atoms: P_18  and  O_21
REMARK   11  A    between atoms: O_21  and  P_22
REMARK   12  A    between atoms: P_22  and  O_23
REMARK   13  A    between atoms: P_22  and  O_25
REMARK   14  A    between atoms: O_25  and  P_26
REMARK   15  A    between atoms: P_26  and  O_27
REMARK   16  A    between atoms: P_26  and  O_29
REMARK   17  A    between atoms: O_29  and  P_30
REMARK   18  A    between atoms: P_30  and  O_31
REMARK   19  A    between atoms: P_30  and  O_32
REMARK   20  A    between atoms: C_34  and  O_36
REMARK   21  A    between atoms: C_37  and  O_39
REMARK                            x       y       z     vdW  Elec       q    Type
REMARK                         _______ _______ _______ _____ _____    ______ ____
ROOT
ATOM      1  P   UNL     1       5.424  -1.537  26.586  0.00  0.00    +0.483 P 
ATOM      2  O   UNL     1       4.339  -1.306  27.575  0.00  0.00    -0.227 OA
ENDROOT
BRANCH   1   3
ATOM      3  O   UNL     1       4.932  -1.415  25.068  0.00  0.00    -0.302 OA
ATOM      4  H   UNL     1       3.975  -1.232  25.034  0.00  0.00    +0.222 HD
ENDBRANCH   1   3
BRANCH   1   5
ATOM      5  O   UNL     1       6.638  -0.529  26.627  0.00  0.00    -0.186 OA
BRANCH   5   6
ATOM      6  P   UNL     1       6.595   0.955  27.169  0.00  0.00    +0.492 P 
ATOM      7  O   UNL     1       6.596   1.215  28.638  0.00  0.00    -0.226 OA
BRANCH   6   8
ATOM      8  O   UNL     1       7.810   1.695  26.438  0.00  0.00    -0.302 OA
ATOM      9  H   UNL     1       8.394   1.061  25.976  0.00  0.00    +0.222 HD
ENDBRANCH   6   8
BRANCH   6  10
ATOM     10  O   UNL     1       5.329   1.581  26.433  0.00  0.00    -0.186 OA
BRANCH  10  11
ATOM     11  P   UNL     1       5.665   3.119  25.713  0.00  0.00    +0.492 P 
ATOM     12  O   UNL     1       4.176   3.263  25.380  0.00  0.00    -0.226 OA
BRANCH  11  13
ATOM     13  O   UNL     1       5.889   3.752  27.207  0.00  0.00    -0.302 OA
ATOM     14  H   UNL     1       5.179   4.369  27.483  0.00  0.00    +0.222 HD
ENDBRANCH  11  13
BRANCH  11  15
ATOM     15  O   UNL     1       6.000   4.656  24.995  0.00  0.00    -0.186 OA
BRANCH  15  16
ATOM     16  P   UNL     1       7.568   4.621  24.265  0.00  0.00    +0.492 P 
ATOM     17  O   UNL     1       7.346   3.160  23.862  0.00  0.00    -0.226 OA
BRANCH  16  18
ATOM     18  O   UNL     1       8.277   4.539  25.738  0.00  0.00    -0.302 OA
ATOM     19  H   UNL     1       8.069   5.354  26.229  0.00  0.00    +0.222 HD
ENDBRANCH  16  18
BRANCH  16  20
ATOM     20  O   UNL     1       9.137   4.587  23.537  0.00  0.00    -0.186 OA
BRANCH  20  21
ATOM     21  P   UNL     1      10.178   3.420  23.442  0.00  0.00    +0.481 P 
ATOM     22  O   UNL     1      11.595   3.813  23.236  0.00  0.00    -0.227 OA
BRANCH  21  23
ATOM     23  O   UNL     1       9.853   2.488  24.692  0.00  0.00    -0.302 OA
ATOM     24  H   UNL     1       9.017   2.709  25.138  0.00  0.00    +0.222 HD
ENDBRANCH  21  23
BRANCH  21  25
ATOM     25  O   UNL     1       9.537   2.561  22.242  0.00  0.00    -0.302 OA
ATOM     26  H   UNL     1      10.142   2.488  21.480  0.00  0.00    +0.222 HD
ENDBRANCH  21  25
ENDBRANCH  20  21
ENDBRANCH  16  20
ENDBRANCH  15  16
ENDBRANCH  11  15
ENDBRANCH  10  11
ENDBRANCH   6  10
ENDBRANCH   5   6
ENDBRANCH   1   5
BRANCH   1  27
ATOM     27  O   UNL     1       6.085  -2.990  26.605  0.00  0.00    -0.284 OA
BRANCH  27  28
ATOM     28  C   UNL     1       5.563  -4.019  25.787  0.00  0.00    +0.206 C 
BRANCH  28  32
ATOM     29  C   UNL     1       8.030  -5.123  24.066  0.00  0.00    +0.253 C 
ATOM     30  C   UNL     1       8.853  -5.154  25.363  0.00  0.00    +0.195 C 
ATOM     31  C   UNL     1       7.809  -5.004  26.480  0.00  0.00    +0.178 C 
ATOM     32  C   UNL     1       6.460  -5.271  25.797  0.00  0.00    +0.178 C 
ATOM     33  O   UNL     1       6.767  -5.706  24.451  0.00  0.00    -0.346 OA
BRANCH  29  39
ATOM     34  C   UNL     1       7.671  -0.378  23.227  0.00  0.00    +0.147 A 
ATOM     35  N   UNL     1       8.736  -0.026  23.984  0.00  0.00    -0.219 NA
ATOM     36  C   UNL     1       9.499  -1.007  24.505  0.00  0.00    +0.225 A 
ATOM     37  N   UNL     1       9.346  -2.336  24.386  0.00  0.00    -0.216 NA
ATOM     38  C   UNL     1       8.288  -2.637  23.619  0.00  0.00    +0.167 A 
ATOM     39  N   UNL     1       7.734  -3.865  23.404  0.00  0.00    -0.286 N 
ATOM     40  C   UNL     1       6.638  -3.685  22.597  0.00  0.00    +0.203 A 
ATOM     41  N   UNL     1       6.435  -2.414  22.314  0.00  0.00    -0.231 NA
ATOM     42  C   UNL     1       7.425  -1.743  23.002  0.00  0.00    +0.147 A 
BRANCH  34  43
ATOM     43  N   UNL     1       6.856   0.639  22.748  0.00  0.00    -0.341 N 
ATOM     44  H   UNL     1       6.068   0.283  22.225  0.00  0.00    +0.144 HD
ATOM     45  H   UNL     1       6.691   1.381  23.418  0.00  0.00    +0.144 HD
ENDBRANCH  34  43
ENDBRANCH  29  39
BRANCH  31  46
ATOM     46  O   UNL     1       8.009  -5.913  27.563  0.00  0.00    -0.386 OA
ATOM     47  H   UNL     1       8.066  -6.815  27.205  0.00  0.00    +0.210 HD
ENDBRANCH  31  46
BRANCH  30  48
ATOM     48  O   UNL     1       9.534  -6.425  25.477  0.00  0.00    -0.385 OA
ATOM     49  H   UNL     1      10.131  -6.533  24.717  0.00  0.00    +0.210 HD
ENDBRANCH  30  48
ENDBRANCH  28  32
ENDBRANCH  27  28
ENDBRANCH   1  27
TORSDOF 21
ENDMDL
MODEL 7
REMARK VINA RESULT:      -6.0      2.022      3.157
REMARK  Name = 
REMARK  21 active torsions:
REMARK  status: ('A' for Active; 'I' for Inactive)
REMARK    1  A    between atoms: N_1  and  C_2
REMARK    2  A    between atoms: N_6  and  C_7
REMARK    3  A    between atoms: C_10  and  C_12
REMARK    4  A    between atoms: C_12  and  O_13
REMARK    5  A    between atoms: O_13  and  P_14
REMARK    6  A    between atoms: P_14  and  O_15
REMARK    7  A    between atoms: P_14  and  O_17
REMARK    8  A    between atoms: O_17  and  P_18
REMARK    9  A    between atoms: P_18  and  O_19
REMARK   10  A    between atoms: P_18  and  O_21
REMARK   11  A    between atoms: O_21  and  P_22
REMARK   12  A    between atoms: P_22  and  O_23
REMARK   13  A    between atoms: P_22  and  O_25
REMARK   14  A    between atoms: O_25  and  P_26
REMARK   15  A    between atoms: P_26  and  O_27
REMARK   16  A    between atoms: P_26  and  O_29
REMARK   17  A    between atoms: O_29  and  P_30
REMARK   18  A    between atoms: P_30  and  O_31
REMARK   19  A    between atoms: P_30  and  O_32
REMARK   20  A    between atoms: C_34  and  O_36
REMARK   21  A    between atoms: C_37  and  O_39
REMARK                            x       y       z     vdW  Elec       q    Type
REMARK                         _______ _______ _______ _____ _____    ______ ____
ROOT
ATOM      1  P   UNL     1       9.761  -2.318  23.581  0.00  0.00    +0.483 P 
ATOM      2  O   UNL     1      10.743  -1.910  22.543  0.00  0.00    -0.227 OA
ENDROOT
BRANCH   1   3
ATOM      3  O   UNL     1       8.339  -2.735  22.978  0.00  0.00    -0.302 OA
ATOM      4  H   UNL     1       7.678  -2.815  23.690  0.00  0.00    +0.222 HD
ENDBRANCH   1   3
BRANCH   1   5
ATOM      5  O   UNL     1      10.141  -3.582  24.448  0.00  0.00    -0.186 OA
BRANCH   5   6
ATOM      6  P   UNL     1       9.175  -4.777  24.820  0.00  0.00    +0.492 P 
ATOM      7  O   UNL     1       8.421  -5.490  23.748  0.00  0.00    -0.226 OA
BRANCH   6   8
ATOM      8  O   UNL     1      10.077  -5.782  25.677  0.00  0.00    -0.302 OA
ATOM      9  H   UNL     1       9.670  -5.985  26.543  0.00  0.00    +0.222 HD
ENDBRANCH   6   8
BRANCH   6  10
ATOM     10  O   UNL     1       8.222  -4.150  25.932  0.00  0.00    -0.186 OA
BRANCH  10  11
ATOM     11  P   UNL     1       6.993  -5.248  26.458  0.00  0.00    +0.492 P 
ATOM     12  O   UNL     1       7.976  -5.823  27.483  0.00  0.00    -0.226 OA
BRANCH  11  13
ATOM     13  O   UNL     1       6.212  -4.004  27.182  0.00  0.00    -0.302 OA
ATOM     14  H   UNL     1       5.286  -4.211  27.428  0.00  0.00    +0.222 HD
ENDBRANCH  11  13
BRANCH  11  15
ATOM     15  O   UNL     1       5.764  -6.346  26.984  0.00  0.00    -0.186 OA
BRANCH  15  16
ATOM     16  P   UNL     1       4.500  -6.405  25.805  0.00  0.00    +0.492 P 
ATOM     17  O   UNL     1       5.409  -5.690  24.800  0.00  0.00    -0.226 OA
BRANCH  16  18
ATOM     18  O   UNL     1       3.700  -5.198  26.567  0.00  0.00    -0.302 OA
ATOM     19  H   UNL     1       3.909  -5.239  27.517  0.00  0.00    +0.222 HD
ENDBRANCH  16  18
BRANCH  16  20
ATOM     20  O   UNL     1       3.235  -6.464  24.626  0.00  0.00    -0.186 OA
BRANCH  20  21
ATOM     21  P   UNL     1       2.624  -5.320  23.747  0.00  0.00    +0.481 P 
ATOM     22  O   UNL     1       1.965  -4.207  24.476  0.00  0.00    -0.227 OA
BRANCH  21  23
ATOM     23  O   UNL     1       3.781  -4.937  22.722  0.00  0.00    -0.302 OA
ATOM     24  H   UNL     1       3.497  -4.326  22.022  0.00  0.00    +0.222 HD
ENDBRANCH  21  23
BRANCH  21  25
ATOM     25  O   UNL     1       1.645  -6.177  22.801  0.00  0.00    -0.302 OA
ATOM     26  H   UNL     1       1.521  -7.087  23.129  0.00  0.00    +0.222 HD
ENDBRANCH  21  25
ENDBRANCH  20  21
ENDBRANCH  16  20
ENDBRANCH  15  16
ENDBRANCH  11  15
ENDBRANCH  10  11
ENDBRANCH   6  10
ENDBRANCH   5   6
ENDBRANCH   1   5
BRANCH   1  27
ATOM     27  O   UNL     1       9.358  -1.192  24.639  0.00  0.00    -0.284 OA
BRANCH  27  28
ATOM     28  C   UNL     1       9.987   0.075  24.601  0.00  0.00    +0.206 C 
BRANCH  28  32
ATOM     29  C   UNL     1       7.398   1.439  23.297  0.00  0.00    +0.253 C 
ATOM     30  C   UNL     1       8.172   2.765  23.274  0.00  0.00    +0.195 C 
ATOM     31  C   UNL     1       9.632   2.358  23.525  0.00  0.00    +0.178 C 
ATOM     32  C   UNL     1       9.661   0.839  23.304  0.00  0.00    +0.178 C 
ATOM     33  O   UNL     1       8.354   0.479  22.799  0.00  0.00    -0.346 OA
BRANCH  29  39
ATOM     34  C   UNL     1       4.730  -1.135  26.397  0.00  0.00    +0.147 A 
ATOM     35  N   UNL     1       4.529  -2.182  25.563  0.00  0.00    -0.219 NA
ATOM     36  C   UNL     1       5.183  -2.194  24.385  0.00  0.00    +0.225 A 
ATOM     37  N   UNL     1       6.033  -1.277  23.893  0.00  0.00    -0.216 NA
ATOM     38  C   UNL     1       6.211  -0.267  24.756  0.00  0.00    +0.167 A 
ATOM     39  N   UNL     1       6.870   0.908  24.541  0.00  0.00    -0.286 N 
ATOM     40  C   UNL     1       6.749   1.661  25.684  0.00  0.00    +0.203 A 
ATOM     41  N   UNL     1       6.021   1.055  26.600  0.00  0.00    -0.231 NA
ATOM     42  C   UNL     1       5.625  -0.124  26.005  0.00  0.00    +0.147 A 
BRANCH  34  43
ATOM     43  N   UNL     1       4.003  -1.102  27.579  0.00  0.00    -0.341 N 
ATOM     44  H   UNL     1       4.068  -1.972  28.091  0.00  0.00    +0.144 HD
ATOM     45  H   UNL     1       4.098  -0.235  28.093  0.00  0.00    +0.144 HD
ENDBRANCH  34  43
ENDBRANCH  29  39
BRANCH  31  46
ATOM     46  O   UNL     1      10.556   3.007  22.652  0.00  0.00    -0.386 OA
ATOM     47  H   UNL     1      10.055   3.545  22.014  0.00  0.00    +0.210 HD
ENDBRANCH  31  46
BRANCH  30  48
ATOM     48  O   UNL     1       8.039   3.385  21.973  0.00  0.00    -0.385 OA
ATOM     49  H   UNL     1       8.925   3.593  21.631  0.00  0.00    +0.210 HD
ENDBRANCH  30  48
ENDBRANCH  28  32
ENDBRANCH  27  28
ENDBRANCH   1  27
TORSDOF 21
ENDMDL
MODEL 8
REMARK VINA RESULT:      -6.0      4.428      7.164
REMARK  Name = 
REMARK  21 active torsions:
REMARK  status: ('A' for Active; 'I' for Inactive)
REMARK    1  A    between atoms: N_1  and  C_2
REMARK    2  A    between atoms: N_6  and  C_7
REMARK    3  A    between atoms: C_10  and  C_12
REMARK    4  A    between atoms: C_12  and  O_13
REMARK    5  A    between atoms: O_13  and  P_14
REMARK    6  A    between atoms: P_14  and  O_15
REMARK    7  A    between atoms: P_14  and  O_17
REMARK    8  A    between atoms: O_17  and  P_18
REMARK    9  A    between atoms: P_18  and  O_19
REMARK   10  A    between atoms: P_18  and  O_21
REMARK   11  A    between atoms: O_21  and  P_22
REMARK   12  A    between atoms: P_22  and  O_23
REMARK   13  A    between atoms: P_22  and  O_25
REMARK   14  A    between atoms: O_25  and  P_26
REMARK   15  A    between atoms: P_26  and  O_27
REMARK   16  A    between atoms: P_26  and  O_29
REMARK   17  A    between atoms: O_29  and  P_30
REMARK   18  A    between atoms: P_30  and  O_31
REMARK   19  A    between atoms: P_30  and  O_32
REMARK   20  A    between atoms: C_34  and  O_36
REMARK   21  A    between atoms: C_37  and  O_39
REMARK                            x       y       z     vdW  Elec       q    Type
REMARK                         _______ _______ _______ _____ _____    ______ ____
ROOT
ATOM      1  P   UNL     1       9.948   3.053  23.199  0.00  0.00    +0.483 P 
ATOM      2  O   UNL     1      11.148   3.815  23.634  0.00  0.00    -0.227 OA
ENDROOT
BRANCH   1   3
ATOM      3  O   UNL     1      10.153   2.293  21.806  0.00  0.00    -0.302 OA
ATOM      4  H   UNL     1      11.078   2.370  21.510  0.00  0.00    +0.222 HD
ENDBRANCH   1   3
BRANCH   1   5
ATOM      5  O   UNL     1       9.474   1.887  24.151  0.00  0.00    -0.186 OA
BRANCH   5   6
ATOM      6  P   UNL     1      10.262   0.548  24.444  0.00  0.00    +0.492 P 
ATOM      7  O   UNL     1      11.537   0.586  25.218  0.00  0.00    -0.226 OA
BRANCH   6   8
ATOM      8  O   UNL     1       9.187  -0.421  25.125  0.00  0.00    -0.302 OA
ATOM      9  H   UNL     1       9.501  -1.346  25.154  0.00  0.00    +0.222 HD
ENDBRANCH   6   8
BRANCH   6  10
ATOM     10  O   UNL     1      10.435  -0.102  23.001  0.00  0.00    -0.186 OA
BRANCH  10  11
ATOM     11  P   UNL     1       9.228  -1.293  22.654  0.00  0.00    +0.492 P 
ATOM     12  O   UNL     1       8.315  -0.182  22.125  0.00  0.00    -0.226 OA
BRANCH  11  13
ATOM     13  O   UNL     1      10.130  -1.819  21.393  0.00  0.00    -0.302 OA
ATOM     14  H   UNL     1      10.986  -2.216  21.660  0.00  0.00    +0.222 HD
ENDBRANCH  11  13
BRANCH  11  15
ATOM     15  O   UNL     1       8.021  -2.483  22.307  0.00  0.00    -0.186 OA
BRANCH  15  16
ATOM     16  P   UNL     1       7.947  -3.624  23.605  0.00  0.00    +0.492 P 
ATOM     17  O   UNL     1       7.141  -2.622  24.437  0.00  0.00    -0.226 OA
BRANCH  16  18
ATOM     18  O   UNL     1       9.507  -3.319  23.993  0.00  0.00    -0.302 OA
ATOM     19  H   UNL     1       9.548  -2.471  24.470  0.00  0.00    +0.222 HD
ENDBRANCH  16  18
BRANCH  16  20
ATOM     20  O   UNL     1       7.875  -4.766  24.903  0.00  0.00    -0.186 OA
BRANCH  20  21
ATOM     21  P   UNL     1       8.715  -4.844  26.223  0.00  0.00    +0.481 P 
ATOM     22  O   UNL     1       8.966  -3.559  26.924  0.00  0.00    -0.227 OA
BRANCH  21  23
ATOM     23  O   UNL     1       8.036  -6.014  27.064  0.00  0.00    -0.302 OA
ATOM     24  H   UNL     1       7.065  -5.961  27.094  0.00  0.00    +0.222 HD
ENDBRANCH  21  23
BRANCH  21  25
ATOM     25  O   UNL     1      10.036  -5.583  25.679  0.00  0.00    -0.302 OA
ATOM     26  H   UNL     1       9.976  -5.788  24.727  0.00  0.00    +0.222 HD
ENDBRANCH  21  25
ENDBRANCH  20  21
ENDBRANCH  16  20
ENDBRANCH  15  16
ENDBRANCH  11  15
ENDBRANCH  10  11
ENDBRANCH   6  10
ENDBRANCH   5   6
ENDBRANCH   1   5
BRANCH   1  27
ATOM     27  O   UNL     1       8.639   3.921  22.915  0.00  0.00    -0.284 OA
BRANCH  27  28
ATOM     28  C   UNL     1       7.541   3.348  22.232  0.00  0.00    +0.206 C 
BRANCH  28  32
ATOM     29  C   UNL     1       5.503   4.731  24.280  0.00  0.00    +0.253 C 
ATOM     30  C   UNL     1       5.994   6.093  23.769  0.00  0.00    +0.195 C 
ATOM     31  C   UNL     1       6.761   5.761  22.479  0.00  0.00    +0.178 C 
ATOM     32  C   UNL     1       6.352   4.322  22.137  0.00  0.00    +0.178 C 
ATOM     33  O   UNL     1       5.307   3.965  23.072  0.00  0.00    -0.346 OA
BRANCH  29  39
ATOM     34  C   UNL     1       6.958   1.110  27.130  0.00  0.00    +0.147 A 
ATOM     35  N   UNL     1       6.237   0.150  26.506  0.00  0.00    -0.219 NA
ATOM     36  C   UNL     1       5.582   0.478  25.375  0.00  0.00    +0.225 A 
ATOM     37  N   UNL     1       5.530   1.670  24.757  0.00  0.00    -0.216 NA
ATOM     38  C   UNL     1       6.266   2.585  25.403  0.00  0.00    +0.167 A 
ATOM     39  N   UNL     1       6.327   3.927  25.165  0.00  0.00    -0.286 N 
ATOM     40  C   UNL     1       7.167   4.473  26.105  0.00  0.00    +0.203 A 
ATOM     41  N   UNL     1       7.615   3.568  26.952  0.00  0.00    -0.231 NA
ATOM     42  C   UNL     1       7.006   2.394  26.560  0.00  0.00    +0.147 A 
BRANCH  34  43
ATOM     43  N   UNL     1       7.576   0.777  28.328  0.00  0.00    -0.341 N 
ATOM     44  H   UNL     1       7.043   1.082  29.131  0.00  0.00    +0.144 HD
ATOM     45  H   UNL     1       7.968  -0.158  28.339  0.00  0.00    +0.144 HD
ENDBRANCH  34  43
ENDBRANCH  29  39
BRANCH  31  46
ATOM     46  O   UNL     1       6.451   6.640  21.397  0.00  0.00    -0.386 OA
ATOM     47  H   UNL     1       5.771   6.220  20.842  0.00  0.00    +0.210 HD
ENDBRANCH  31  46
BRANCH  30  48
ATOM     48  O   UNL     1       4.860   6.942  23.476  0.00  0.00    -0.385 OA
ATOM     49  H   UNL     1       4.972   7.323  22.588  0.00  0.00    +0.210 HD
ENDBRANCH  30  48
ENDBRANCH  28  32
ENDBRANCH  27  28
ENDBRANCH   1  27
TORSDOF 21
ENDMDL
MODEL 9
REMARK VINA RESULT:      -5.9      4.230      7.566
REMARK  Name = 
REMARK  21 active torsions:
REMARK  status: ('A' for Active; 'I' for Inactive)
REMARK    1  A    between atoms: N_1  and  C_2
REMARK    2  A    between atoms: N_6  and  C_7
REMARK    3  A    between atoms: C_10  and  C_12
REMARK    4  A    between atoms: C_12  and  O_13
REMARK    5  A    between atoms: O_13  and  P_14
REMARK    6  A    between atoms: P_14  and  O_15
REMARK    7  A    between atoms: P_14  and  O_17
REMARK    8  A    between atoms: O_17  and  P_18
REMARK    9  A    between atoms: P_18  and  O_19
REMARK   10  A    between atoms: P_18  and  O_21
REMARK   11  A    between atoms: O_21  and  P_22
REMARK   12  A    between atoms: P_22  and  O_23
REMARK   13  A    between atoms: P_22  and  O_25
REMARK   14  A    between atoms: O_25  and  P_26
REMARK   15  A    between atoms: P_26  and  O_27
REMARK   16  A    between atoms: P_26  and  O_29
REMARK   17  A    between atoms: O_29  and  P_30
REMARK   18  A    between atoms: P_30  and  O_31
REMARK   19  A    between atoms: P_30  and  O_32
REMARK   20  A    between atoms: C_34  and  O_36
REMARK   21  A    between atoms: C_37  and  O_39
REMARK                            x       y       z     vdW  Elec       q    Type
REMARK                         _______ _______ _______ _____ _____    ______ ____
ROOT
ATOM      1  P   UNL     1       5.277  -0.441  25.990  0.00  0.00    +0.483 P 
ATOM      2  O   UNL     1       3.975  -1.124  26.214  0.00  0.00    -0.227 OA
ENDROOT
BRANCH   1   3
ATOM      3  O   UNL     1       5.479   0.058  24.483  0.00  0.00    -0.302 OA
ATOM      4  H   UNL     1       6.233  -0.402  24.071  0.00  0.00    +0.222 HD
ENDBRANCH   1   3
BRANCH   1   5
ATOM      5  O   UNL     1       5.528   0.880  26.817  0.00  0.00    -0.186 OA
BRANCH   5   6
ATOM      6  P   UNL     1       6.647   1.959  26.526  0.00  0.00    +0.492 P 
ATOM      7  O   UNL     1       7.232   2.750  27.647  0.00  0.00    -0.226 OA
BRANCH   6   8
ATOM      8  O   UNL     1       7.773   1.171  25.707  0.00  0.00    -0.302 OA
ATOM      9  H   UNL     1       7.572   1.144  24.751  0.00  0.00    +0.222 HD
ENDBRANCH   6   8
BRANCH   6  10
ATOM     10  O   UNL     1       5.992   2.875  25.400  0.00  0.00    -0.186 OA
BRANCH  10  11
ATOM     11  P   UNL     1       7.073   3.199  24.087  0.00  0.00    +0.492 P 
ATOM     12  O   UNL     1       6.096   4.263  23.575  0.00  0.00    -0.226 OA
BRANCH  11  13
ATOM     13  O   UNL     1       8.093   3.941  25.131  0.00  0.00    -0.302 OA
ATOM     14  H   UNL     1       8.589   4.688  24.732  0.00  0.00    +0.222 HD
ENDBRANCH  11  13
BRANCH  11  15
ATOM     15  O   UNL     1       8.153   3.523  22.776  0.00  0.00    -0.186 OA
BRANCH  15  16
ATOM     16  P   UNL     1       8.952   2.061  22.312  0.00  0.00    +0.492 P 
ATOM     17  O   UNL     1       7.741   1.252  22.788  0.00  0.00    -0.226 OA
BRANCH  16  18
ATOM     18  O   UNL     1       9.927   2.150  23.623  0.00  0.00    -0.302 OA
ATOM     19  H   UNL     1      10.796   2.489  23.341  0.00  0.00    +0.222 HD
ENDBRANCH  16  18
BRANCH  16  20
ATOM     20  O   UNL     1       9.752   0.598  21.849  0.00  0.00    -0.186 OA
BRANCH  20  21
ATOM     21  P   UNL     1       9.760  -0.807  22.541  0.00  0.00    +0.481 P 
ATOM     22  O   UNL     1      10.859  -1.728  22.154  0.00  0.00    -0.227 OA
BRANCH  21  23
ATOM     23  O   UNL     1       9.583  -0.493  24.093  0.00  0.00    -0.302 OA
ATOM     24  H   UNL     1      10.407  -0.227  24.535  0.00  0.00    +0.222 HD
ENDBRANCH  21  23
BRANCH  21  25
ATOM     25  O   UNL     1       8.285  -1.323  22.160  0.00  0.00    -0.302 OA
ATOM     26  H   UNL     1       8.308  -2.057  21.517  0.00  0.00    +0.222 HD
ENDBRANCH  21  25
ENDBRANCH  20  21
ENDBRANCH  16  20
ENDBRANCH  15  16
ENDBRANCH  11  15
ENDBRANCH  10  11
ENDBRANCH   6  10
ENDBRANCH   5   6
ENDBRANCH   1   5
BRANCH   1  27
ATOM     27  O   UNL     1       6.580  -1.335  26.223  0.00  0.00    -0.284 OA
BRANCH  27  28
ATOM     28  C   UNL     1       6.931  -2.335  25.286  0.00  0.00    +0.206 C 
BRANCH  28  32
ATOM     29  C   UNL     1       7.580  -5.321  26.246  0.00  0.00    +0.253 C 
ATOM     30  C   UNL     1       8.559  -5.433  25.068  0.00  0.00    +0.195 C 
ATOM     31  C   UNL     1       8.745  -3.983  24.591  0.00  0.00    +0.178 C 
ATOM     32  C   UNL     1       8.181  -3.119  25.727  0.00  0.00    +0.178 C 
ATOM     33  O   UNL     1       7.875  -4.026  26.812  0.00  0.00    -0.346 OA
BRANCH  29  39
ATOM     34  C   UNL     1       3.279  -5.052  24.060  0.00  0.00    +0.147 A 
ATOM     35  N   UNL     1       3.739  -5.347  22.823  0.00  0.00    -0.219 NA
ATOM     36  C   UNL     1       5.031  -5.710  22.692  0.00  0.00    +0.225 A 
ATOM     37  N   UNL     1       5.969  -5.816  23.647  0.00  0.00    -0.216 NA
ATOM     38  C   UNL     1       5.466  -5.527  24.856  0.00  0.00    +0.167 A 
ATOM     39  N   UNL     1       6.145  -5.375  26.029  0.00  0.00    -0.286 N 
ATOM     40  C   UNL     1       5.230  -5.029  26.992  0.00  0.00    +0.203 A 
ATOM     41  N   UNL     1       4.013  -4.912  26.499  0.00  0.00    -0.231 NA
ATOM     42  C   UNL     1       4.161  -5.158  25.150  0.00  0.00    +0.147 A 
BRANCH  34  43
ATOM     43  N   UNL     1       1.965  -4.620  24.174  0.00  0.00    -0.341 N 
ATOM     44  H   UNL     1       1.572  -4.827  25.082  0.00  0.00    +0.144 HD
ATOM     45  H   UNL     1       1.801  -3.701  23.780  0.00  0.00    +0.144 HD
ENDBRANCH  34  43
ENDBRANCH  29  39
BRANCH  31  46
ATOM     46  O   UNL     1      10.109  -3.646  24.336  0.00  0.00    -0.386 OA
ATOM     47  H   UNL     1      10.317  -3.871  23.412  0.00  0.00    +0.210 HD
ENDBRANCH  31  46
BRANCH  30  48
ATOM     48  O   UNL     1       9.817  -5.977  25.529  0.00  0.00    -0.385 OA
ATOM     49  H   UNL     1      10.455  -5.963  24.794  0.00  0.00    +0.210 HD
ENDBRANCH  30  48
ENDBRANCH  28  32
ENDBRANCH  27  28
ENDBRANCH   1  27
TORSDOF 21
ENDMDL
