MODEL 1
REMARK VINA RESULT:      -5.3      0.000      0.000
REMARK  Name = 
REMARK  7 active torsions:
REMARK  status: ('A' for Active; 'I' for Inactive)
REMARK    1  A    between atoms: C_1  and  C_2
REMARK    2  A    between atoms: C_4  and  N_13
REMARK    3  A    between atoms: C_5  and  N_6
REMARK    4  A    between atoms: N_6  and  C_7
REMARK    5  A    between atoms: C_7  and  C_8
REMARK    6  A    between atoms: C_8  and  C_9
REMARK    7  A    between atoms: C_9  and  N_10
REMARK                            x       y       z     vdW  Elec       q    Type
REMARK                         _______ _______ _______ _____ _____    ______ ____
ROOT
ATOM      1  C   UNL     1       5.017  -5.589  22.681  0.00  0.00    +0.044 C 
ATOM      2  C   UNL     1       6.229  -4.750  22.955  0.00  0.00    -0.044 A 
ATOM      3  C   UNL     1       6.472  -3.602  22.202  0.00  0.00    +0.005 A 
ATOM      4  C   UNL     1       7.595  -2.803  22.455  0.00  0.00    +0.030 A 
ATOM      5  C   UNL     1       8.510  -3.103  23.482  0.00  0.00    +0.105 A 
ATOM      6  C   UNL     1       8.263  -4.286  24.221  0.00  0.00    +0.294 A 
ATOM      7  C   UNL     1       7.130  -5.090  23.966  0.00  0.00    +0.089 A 
ENDROOT
BRANCH   6   8
ATOM      8  N   UNL     1       9.153  -4.713  25.319  0.00  0.00    +0.082 N 
ATOM      9  O   UNL     1       8.675  -4.836  26.458  0.00  0.00    +0.042 OA
ATOM     10  O   UNL     1      10.338  -4.955  25.042  0.00  0.00    -0.576 OA
ENDBRANCH   6   8
BRANCH   5  11
ATOM     11  N   UNL     1       9.672  -2.334  23.638  0.00  0.00    -0.339 N 
ATOM     12  H   UNL     1       9.631  -1.755  24.486  0.00  0.00    +0.146 HD
BRANCH  11  13
ATOM     13  C   UNL     1      10.232  -1.591  22.510  0.00  0.00    +0.103 C 
BRANCH  13  14
ATOM     14  C   UNL     1      10.185  -0.088  22.805  0.00  0.00    +0.033 C 
BRANCH  14  15
ATOM     15  C   UNL     1       9.526   0.694  21.669  0.00  0.00    +0.079 C 
BRANCH  15  16
ATOM     16  N   UNL     1       9.979   2.083  21.671  0.00  0.00    -0.330 NA
ATOM     17  H   UNL     1      10.079   2.399  20.707  0.00  0.00    +0.118 HD
ATOM     18  H   UNL     1       9.272   2.678  22.098  0.00  0.00    +0.118 HD
ENDBRANCH  15  16
ENDBRANCH  14  15
ENDBRANCH  13  14
ENDBRANCH  11  13
ENDBRANCH   5  11
TORSDOF 6
ENDMDL
MODEL 2
REMARK VINA RESULT:      -5.2      2.655      3.322
REMARK  Name = 
REMARK  7 active torsions:
REMARK  status: ('A' for Active; 'I' for Inactive)
REMARK    1  A    between atoms: C_1  and  C_2
REMARK    2  A    between atoms: C_4  and  N_13
REMARK    3  A    between atoms: C_5  and  N_6
REMARK    4  A    between atoms: N_6  and  C_7
REMARK    5  A    between atoms: C_7  and  C_8
REMARK    6  A    between atoms: C_8  and  C_9
REMARK    7  A    between atoms: C_9  and  N_10
REMARK                            x       y       z     vdW  Elec       q    Type
REMARK                         _______ _______ _______ _____ _____    ______ ____
ROOT
ATOM      1  C   UNL     1       6.369  -4.927  23.218  0.00  0.00    +0.044 C 
ATOM      2  C   UNL     1       6.772  -3.484  23.265  0.00  0.00    -0.044 A 
ATOM      3  C   UNL     1       5.998  -2.561  23.967  0.00  0.00    +0.005 A 
ATOM      4  C   UNL     1       6.370  -1.211  24.028  0.00  0.00    +0.030 A 
ATOM      5  C   UNL     1       7.540  -0.730  23.411  0.00  0.00    +0.105 A 
ATOM      6  C   UNL     1       8.302  -1.675  22.680  0.00  0.00    +0.294 A 
ATOM      7  C   UNL     1       7.927  -3.036  22.620  0.00  0.00    +0.089 A 
ENDROOT
BRANCH   6   8
ATOM      8  N   UNL     1       9.546  -1.293  21.983  0.00  0.00    +0.082 N 
ATOM      9  O   UNL     1       9.485  -0.442  21.080  0.00  0.00    +0.042 OA
ATOM     10  O   UNL     1      10.604  -1.826  22.352  0.00  0.00    -0.576 OA
ENDBRANCH   6   8
BRANCH   5  11
ATOM     11  N   UNL     1       7.824   0.643  23.412  0.00  0.00    -0.339 N 
ATOM     12  H   UNL     1       8.208   0.950  22.510  0.00  0.00    +0.146 HD
BRANCH  11  13
ATOM     13  C   UNL     1       8.535   1.256  24.532  0.00  0.00    +0.103 C 
BRANCH  13  14
ATOM     14  C   UNL     1       9.991   1.523  24.138  0.00  0.00    +0.033 C 
BRANCH  14  15
ATOM     15  C   UNL     1      10.114   2.716  23.191  0.00  0.00    +0.079 C 
BRANCH  15  16
ATOM     16  N   UNL     1      10.157   2.268  21.802  0.00  0.00    -0.330 NA
ATOM     17  H   UNL     1       9.865   1.292  21.759  0.00  0.00    +0.118 HD
ATOM     18  H   UNL     1       9.484   2.794  21.247  0.00  0.00    +0.118 HD
ENDBRANCH  15  16
ENDBRANCH  14  15
ENDBRANCH  13  14
ENDBRANCH  11  13
ENDBRANCH   5  11
TORSDOF 6
ENDMDL
MODEL 3
REMARK VINA RESULT:      -5.2      1.871      2.209
REMARK  Name = 
REMARK  7 active torsions:
REMARK  status: ('A' for Active; 'I' for Inactive)
REMARK    1  A    between atoms: C_1  and  C_2
REMARK    2  A    between atoms: C_4  and  N_13
REMARK    3  A    between atoms: C_5  and  N_6
REMARK    4  A    between atoms: N_6  and  C_7
REMARK    5  A    between atoms: C_7  and  C_8
REMARK    6  A    between atoms: C_8  and  C_9
REMARK    7  A    between atoms: C_9  and  N_10
REMARK                            x       y       z     vdW  Elec       q    Type
REMARK                         _______ _______ _______ _____ _____    ______ ____
ROOT
ATOM      1  C   UNL     1       6.086  -5.858  21.230  0.00  0.00    +0.044 C 
ATOM      2  C   UNL     1       6.863  -4.953  22.139  0.00  0.00    -0.044 A 
ATOM      3  C   UNL     1       6.878  -3.576  21.913  0.00  0.00    +0.005 A 
ATOM      4  C   UNL     1       7.589  -2.719  22.762  0.00  0.00    +0.030 A 
ATOM      5  C   UNL     1       8.297  -3.193  23.882  0.00  0.00    +0.105 A 
ATOM      6  C   UNL     1       8.293  -4.596  24.084  0.00  0.00    +0.294 A 
ATOM      7  C   UNL     1       7.574  -5.460  23.228  0.00  0.00    +0.089 A 
ENDROOT
BRANCH   6   8
ATOM      8  N   UNL     1       9.003  -5.217  25.219  0.00  0.00    +0.082 N 
ATOM      9  O   UNL     1       8.335  -5.773  26.106  0.00  0.00    +0.042 OA
ATOM     10  O   UNL     1      10.243  -5.175  25.218  0.00  0.00    -0.576 OA
ENDBRANCH   6   8
BRANCH   5  11
ATOM     11  N   UNL     1       9.076  -2.314  24.648  0.00  0.00    -0.339 N 
ATOM     12  H   UNL     1       8.579  -2.008  25.494  0.00  0.00    +0.146 HD
BRANCH  11  13
ATOM     13  C   UNL     1       9.789  -1.205  24.016  0.00  0.00    +0.103 C 
BRANCH  13  14
ATOM     14  C   UNL     1       9.731   0.031  24.919  0.00  0.00    +0.033 C 
BRANCH  14  15
ATOM     15  C   UNL     1       8.524  -0.006  25.856  0.00  0.00    +0.079 C 
BRANCH  15  16
ATOM     16  N   UNL     1       8.921  -0.453  27.189  0.00  0.00    -0.330 NA
ATOM     17  H   UNL     1       8.163  -0.259  27.843  0.00  0.00    +0.118 HD
ATOM     18  H   UNL     1       9.052  -1.463  27.192  0.00  0.00    +0.118 HD
ENDBRANCH  15  16
ENDBRANCH  14  15
ENDBRANCH  13  14
ENDBRANCH  11  13
ENDBRANCH   5  11
TORSDOF 6
ENDMDL
MODEL 4
REMARK VINA RESULT:      -5.1      2.467      3.120
REMARK  Name = 
REMARK  7 active torsions:
REMARK  status: ('A' for Active; 'I' for Inactive)
REMARK    1  A    between atoms: C_1  and  C_2
REMARK    2  A    between atoms: C_4  and  N_13
REMARK    3  A    between atoms: C_5  and  N_6
REMARK    4  A    between atoms: N_6  and  C_7
REMARK    5  A    between atoms: C_7  and  C_8
REMARK    6  A    between atoms: C_8  and  C_9
REMARK    7  A    between atoms: C_9  and  N_10
REMARK                            x       y       z     vdW  Elec       q    Type
REMARK                         _______ _______ _______ _____ _____    ______ ____
ROOT
ATOM      1  C   UNL     1       5.461  -6.335  26.552  0.00  0.00    +0.044 C 
ATOM      2  C   UNL     1       6.498  -5.444  25.936  0.00  0.00    -0.044 A 
ATOM      3  C   UNL     1       7.497  -4.878  26.728  0.00  0.00    +0.005 A 
ATOM      4  C   UNL     1       8.478  -4.053  26.163  0.00  0.00    +0.030 A 
ATOM      5  C   UNL     1       8.519  -3.776  24.784  0.00  0.00    +0.105 A 
ATOM      6  C   UNL     1       7.483  -4.338  23.997  0.00  0.00    +0.294 A 
ATOM      7  C   UNL     1       6.495  -5.171  24.568  0.00  0.00    +0.089 A 
ENDROOT
BRANCH   6   8
ATOM      8  N   UNL     1       7.412  -4.116  22.539  0.00  0.00    +0.082 N 
ATOM      9  O   UNL     1       7.370  -5.104  21.788  0.00  0.00    +0.042 OA
ATOM     10  O   UNL     1       7.369  -2.944  22.134  0.00  0.00    -0.576 OA
ENDBRANCH   6   8
BRANCH   5  11
ATOM     11  N   UNL     1       9.458  -2.868  24.274  0.00  0.00    -0.339 N 
ATOM     12  H   UNL     1      10.420  -3.199  24.420  0.00  0.00    +0.146 HD
BRANCH  11  13
ATOM     13  C   UNL     1       9.337  -1.437  24.548  0.00  0.00    +0.103 C 
BRANCH  13  14
ATOM     14  C   UNL     1      10.359  -0.661  23.712  0.00  0.00    +0.033 C 
BRANCH  14  15
ATOM     15  C   UNL     1       9.849  -0.392  22.297  0.00  0.00    +0.079 C 
BRANCH  15  16
ATOM     16  N   UNL     1      10.018  -1.574  21.455  0.00  0.00    -0.330 NA
ATOM     17  H   UNL     1      10.195  -1.276  20.497  0.00  0.00    +0.118 HD
ATOM     18  H   UNL     1      10.842  -2.095  21.751  0.00  0.00    +0.118 HD
ENDBRANCH  15  16
ENDBRANCH  14  15
ENDBRANCH  13  14
ENDBRANCH  11  13
ENDBRANCH   5  11
TORSDOF 6
ENDMDL
MODEL 5
REMARK VINA RESULT:      -5.1      2.534      3.058
REMARK  Name = 
REMARK  7 active torsions:
REMARK  status: ('A' for Active; 'I' for Inactive)
REMARK    1  A    between atoms: C_1  and  C_2
REMARK    2  A    between atoms: C_4  and  N_13
REMARK    3  A    between atoms: C_5  and  N_6
REMARK    4  A    between atoms: N_6  and  C_7
REMARK    5  A    between atoms: C_7  and  C_8
REMARK    6  A    between atoms: C_8  and  C_9
REMARK    7  A    between atoms: C_9  and  N_10
REMARK                            x       y       z     vdW  Elec       q    Type
REMARK                         _______ _______ _______ _____ _____    ______ ____
ROOT
ATOM      1  C   UNL     1       7.410  -5.300  26.795  0.00  0.00    +0.044 C 
ATOM      2  C   UNL     1       7.722  -4.502  25.565  0.00  0.00    -0.044 A 
ATOM      3  C   UNL     1       8.635  -3.450  25.624  0.00  0.00    +0.005 A 
ATOM      4  C   UNL     1       8.944  -2.704  24.479  0.00  0.00    +0.030 A 
ATOM      5  C   UNL     1       8.374  -2.989  23.224  0.00  0.00    +0.105 A 
ATOM      6  C   UNL     1       7.430  -4.045  23.185  0.00  0.00    +0.294 A 
ATOM      7  C   UNL     1       7.120  -4.797  24.341  0.00  0.00    +0.089 A 
ENDROOT
BRANCH   6   8
ATOM      8  N   UNL     1       6.758  -4.437  21.931  0.00  0.00    +0.082 N 
ATOM      9  O   UNL     1       5.894  -3.681  21.457  0.00  0.00    +0.042 OA
ATOM     10  O   UNL     1       7.109  -5.499  21.393  0.00  0.00    -0.576 OA
ENDBRANCH   6   8
BRANCH   5  11
ATOM     11  N   UNL     1       8.635  -2.158  22.125  0.00  0.00    -0.339 N 
ATOM     12  H   UNL     1       8.799  -2.703  21.270  0.00  0.00    +0.146 HD
BRANCH  11  13
ATOM     13  C   UNL     1       9.576  -1.045  22.239  0.00  0.00    +0.103 C 
BRANCH  13  14
ATOM     14  C   UNL     1       9.251   0.019  21.186  0.00  0.00    +0.033 C 
BRANCH  14  15
ATOM     15  C   UNL     1       8.985   1.383  21.819  0.00  0.00    +0.079 C 
BRANCH  15  16
ATOM     16  N   UNL     1      10.169   2.235  21.723  0.00  0.00    -0.330 NA
ATOM     17  H   UNL     1      10.962   1.748  22.138  0.00  0.00    +0.118 HD
ATOM     18  H   UNL     1      10.405   2.390  20.745  0.00  0.00    +0.118 HD
ENDBRANCH  15  16
ENDBRANCH  14  15
ENDBRANCH  13  14
ENDBRANCH  11  13
ENDBRANCH   5  11
TORSDOF 6
ENDMDL
MODEL 6
REMARK VINA RESULT:      -5.0      3.198      3.959
REMARK  Name = 
REMARK  7 active torsions:
REMARK  status: ('A' for Active; 'I' for Inactive)
REMARK    1  A    between atoms: C_1  and  C_2
REMARK    2  A    between atoms: C_4  and  N_13
REMARK    3  A    between atoms: C_5  and  N_6
REMARK    4  A    between atoms: N_6  and  C_7
REMARK    5  A    between atoms: C_7  and  C_8
REMARK    6  A    between atoms: C_8  and  C_9
REMARK    7  A    between atoms: C_9  and  N_10
REMARK                            x       y       z     vdW  Elec       q    Type
REMARK                         _______ _______ _______ _____ _____    ______ ____
ROOT
ATOM      1  C   UNL     1       8.618  -4.423  26.433  0.00  0.00    +0.044 C 
ATOM      2  C   UNL     1       8.583  -3.066  25.797  0.00  0.00    -0.044 A 
ATOM      3  C   UNL     1       8.032  -1.983  26.482  0.00  0.00    +0.005 A 
ATOM      4  C   UNL     1       8.004  -0.708  25.903  0.00  0.00    +0.030 A 
ATOM      5  C   UNL     1       8.542  -0.454  24.628  0.00  0.00    +0.105 A 
ATOM      6  C   UNL     1       9.075  -1.568  23.934  0.00  0.00    +0.294 A 
ATOM      7  C   UNL     1       9.104  -2.854  24.519  0.00  0.00    +0.089 A 
ENDROOT
BRANCH   6   8
ATOM      8  N   UNL     1       9.662  -1.433  22.586  0.00  0.00    +0.082 N 
ATOM      9  O   UNL     1      10.811  -1.861  22.392  0.00  0.00    +0.042 OA
ATOM     10  O   UNL     1       8.963  -0.918  21.700  0.00  0.00    -0.576 OA
ENDBRANCH   6   8
BRANCH   5  11
ATOM     11  N   UNL     1       8.405   0.815  24.045  0.00  0.00    -0.339 N 
ATOM     12  H   UNL     1       8.741   0.822  23.073  0.00  0.00    +0.146 HD
BRANCH  11  13
ATOM     13  C   UNL     1       8.824   2.016  24.764  0.00  0.00    +0.103 C 
BRANCH  13  14
ATOM     14  C   UNL     1       9.542   2.971  23.805  0.00  0.00    +0.033 C 
BRANCH  14  15
ATOM     15  C   UNL     1      10.400   2.218  22.789  0.00  0.00    +0.079 C 
BRANCH  15  16
ATOM     16  N   UNL     1       9.686   2.069  21.523  0.00  0.00    -0.330 NA
ATOM     17  H   UNL     1      10.353   2.148  20.756  0.00  0.00    +0.118 HD
ATOM     18  H   UNL     1       9.283   1.136  21.460  0.00  0.00    +0.118 HD
ENDBRANCH  15  16
ENDBRANCH  14  15
ENDBRANCH  13  14
ENDBRANCH  11  13
ENDBRANCH   5  11
TORSDOF 6
ENDMDL
MODEL 7
REMARK VINA RESULT:      -5.0      2.455      5.533
REMARK  Name = 
REMARK  7 active torsions:
REMARK  status: ('A' for Active; 'I' for Inactive)
REMARK    1  A    between atoms: C_1  and  C_2
REMARK    2  A    between atoms: C_4  and  N_13
REMARK    3  A    between atoms: C_5  and  N_6
REMARK    4  A    between atoms: N_6  and  C_7
REMARK    5  A    between atoms: C_7  and  C_8
REMARK    6  A    between atoms: C_8  and  C_9
REMARK    7  A    between atoms: C_9  and  N_10
REMARK                            x       y       z     vdW  Elec       q    Type
REMARK                         _______ _______ _______ _____ _____    ______ ____
ROOT
ATOM      1  C   UNL     1      10.278   2.604  23.516  0.00  0.00    +0.044 C 
ATOM      2  C   UNL     1      10.045   1.137  23.723  0.00  0.00    -0.044 A 
ATOM      3  C   UNL     1      10.406   0.223  22.733  0.00  0.00    +0.005 A 
ATOM      4  C   UNL     1      10.204  -1.151  22.919  0.00  0.00    +0.030 A 
ATOM      5  C   UNL     1       9.656  -1.673  24.105  0.00  0.00    +0.105 A 
ATOM      6  C   UNL     1       9.271  -0.730  25.090  0.00  0.00    +0.294 A 
ATOM      7  C   UNL     1       9.476   0.655  24.903  0.00  0.00    +0.089 A 
ENDROOT
BRANCH   6   8
ATOM      8  N   UNL     1       8.678  -1.151  26.375  0.00  0.00    +0.082 N 
ATOM      9  O   UNL     1       9.174  -0.721  27.429  0.00  0.00    +0.042 OA
ATOM     10  O   UNL     1       7.688  -1.899  26.337  0.00  0.00    -0.576 OA
ENDBRANCH   6   8
BRANCH   5  11
ATOM     11  N   UNL     1       9.380  -3.044  24.211  0.00  0.00    -0.339 N 
ATOM     12  H   UNL     1      10.223  -3.611  24.058  0.00  0.00    +0.146 HD
BRANCH  11  13
ATOM     13  C   UNL     1       8.216  -3.624  23.544  0.00  0.00    +0.103 C 
BRANCH  13  14
ATOM     14  C   UNL     1       7.992  -5.055  24.042  0.00  0.00    +0.033 C 
BRANCH  14  15
ATOM     15  C   UNL     1       8.635  -5.288  25.409  0.00  0.00    +0.079 C 
BRANCH  15  16
ATOM     16  N   UNL     1      10.011  -5.753  25.258  0.00  0.00    -0.330 NA
ATOM     17  H   UNL     1      10.577  -5.364  26.011  0.00  0.00    +0.118 HD
ATOM     18  H   UNL     1      10.048  -6.765  25.364  0.00  0.00    +0.118 HD
ENDBRANCH  15  16
ENDBRANCH  14  15
ENDBRANCH  13  14
ENDBRANCH  11  13
ENDBRANCH   5  11
TORSDOF 6
ENDMDL
MODEL 8
REMARK VINA RESULT:      -5.0      2.331      5.127
REMARK  Name = 
REMARK  7 active torsions:
REMARK  status: ('A' for Active; 'I' for Inactive)
REMARK    1  A    between atoms: C_1  and  C_2
REMARK    2  A    between atoms: C_4  and  N_13
REMARK    3  A    between atoms: C_5  and  N_6
REMARK    4  A    between atoms: N_6  and  C_7
REMARK    5  A    between atoms: C_7  and  C_8
REMARK    6  A    between atoms: C_8  and  C_9
REMARK    7  A    between atoms: C_9  and  N_10
REMARK                            x       y       z     vdW  Elec       q    Type
REMARK                         _______ _______ _______ _____ _____    ______ ____
ROOT
ATOM      1  C   UNL     1      10.431   0.124  23.480  0.00  0.00    +0.044 C 
ATOM      2  C   UNL     1       9.591  -1.114  23.394  0.00  0.00    -0.044 A 
ATOM      3  C   UNL     1       8.618  -1.235  22.402  0.00  0.00    +0.005 A 
ATOM      4  C   UNL     1       7.835  -2.392  22.304  0.00  0.00    +0.030 A 
ATOM      5  C   UNL     1       8.002  -3.485  23.175  0.00  0.00    +0.105 A 
ATOM      6  C   UNL     1       8.976  -3.337  24.193  0.00  0.00    +0.294 A 
ATOM      7  C   UNL     1       9.767  -2.170  24.290  0.00  0.00    +0.089 A 
ENDROOT
BRANCH   6   8
ATOM      8  N   UNL     1       9.241  -4.409  25.173  0.00  0.00    +0.082 N 
ATOM      9  O   UNL     1       9.648  -5.506  24.759  0.00  0.00    +0.042 OA
ATOM     10  O   UNL     1       9.068  -4.150  26.374  0.00  0.00    -0.576 OA
ENDBRANCH   6   8
BRANCH   5  11
ATOM     11  N   UNL     1       7.131  -4.582  23.105  0.00  0.00    -0.339 N 
ATOM     12  H   UNL     1       7.046  -5.055  24.013  0.00  0.00    +0.146 HD
BRANCH  11  13
ATOM     13  C   UNL     1       7.231  -5.544  22.008  0.00  0.00    +0.103 C 
BRANCH  13  14
ATOM     14  C   UNL     1       5.829  -5.998  21.588  0.00  0.00    +0.033 C 
BRANCH  14  15
ATOM     15  C   UNL     1       4.816  -5.836  22.720  0.00  0.00    +0.079 C 
BRANCH  15  16
ATOM     16  N   UNL     1       4.844  -6.998  23.605  0.00  0.00    -0.330 NA
ATOM     17  H   UNL     1       5.728  -7.007  24.112  0.00  0.00    +0.118 HD
ATOM     18  H   UNL     1       4.110  -6.918  24.307  0.00  0.00    +0.118 HD
ENDBRANCH  15  16
ENDBRANCH  14  15
ENDBRANCH  13  14
ENDBRANCH  11  13
ENDBRANCH   5  11
TORSDOF 6
ENDMDL
MODEL 9
REMARK VINA RESULT:      -5.0      3.227      5.845
REMARK  Name = 
REMARK  7 active torsions:
REMARK  status: ('A' for Active; 'I' for Inactive)
REMARK    1  A    between atoms: C_1  and  C_2
REMARK    2  A    between atoms: C_4  and  N_13
REMARK    3  A    between atoms: C_5  and  N_6
REMARK    4  A    between atoms: N_6  and  C_7
REMARK    5  A    between atoms: C_7  and  C_8
REMARK    6  A    between atoms: C_8  and  C_9
REMARK    7  A    between atoms: C_9  and  N_10
REMARK                            x       y       z     vdW  Elec       q    Type
REMARK                         _______ _______ _______ _____ _____    ______ ____
ROOT
ATOM      1  C   UNL     1      10.194  -0.978  22.536  0.00  0.00    +0.044 C 
ATOM      2  C   UNL     1       9.292  -2.064  23.041  0.00  0.00    -0.044 A 
ATOM      3  C   UNL     1       9.497  -2.616  24.306  0.00  0.00    +0.005 A 
ATOM      4  C   UNL     1       8.654  -3.623  24.794  0.00  0.00    +0.030 A 
ATOM      5  C   UNL     1       7.560  -4.106  24.053  0.00  0.00    +0.105 A 
ATOM      6  C   UNL     1       7.380  -3.554  22.760  0.00  0.00    +0.294 A 
ATOM      7  C   UNL     1       8.229  -2.538  22.269  0.00  0.00    +0.089 A 
ENDROOT
BRANCH   6   8
ATOM      8  N   UNL     1       6.273  -3.983  21.883  0.00  0.00    +0.082 N 
ATOM      9  O   UNL     1       6.292  -5.136  21.421  0.00  0.00    +0.042 OA
ATOM     10  O   UNL     1       5.357  -3.174  21.669  0.00  0.00    -0.576 OA
ENDBRANCH   6   8
BRANCH   5  11
ATOM     11  N   UNL     1       6.801  -5.182  24.536  0.00  0.00    -0.339 N 
ATOM     12  H   UNL     1       6.580  -5.854  23.790  0.00  0.00    +0.146 HD
BRANCH  11  13
ATOM     13  C   UNL     1       5.650  -4.951  25.406  0.00  0.00    +0.103 C 
BRANCH  13  14
ATOM     14  C   UNL     1       5.539  -6.084  26.432  0.00  0.00    +0.033 C 
BRANCH  14  15
ATOM     15  C   UNL     1       6.311  -5.769  27.712  0.00  0.00    +0.079 C 
BRANCH  15  16
ATOM     16  N   UNL     1       7.751  -5.837  27.475  0.00  0.00    -0.330 NA
ATOM     17  H   UNL     1       8.083  -6.769  27.721  0.00  0.00    +0.118 HD
ATOM     18  H   UNL     1       7.945  -5.714  26.483  0.00  0.00    +0.118 HD
ENDBRANCH  15  16
ENDBRANCH  14  15
ENDBRANCH  13  14
ENDBRANCH  11  13
ENDBRANCH   5  11
TORSDOF 6
ENDMDL
