MODEL 1
REMARK VINA RESULT:      -6.9      0.000      0.000
REMARK  Name = 
REMARK  9 active torsions:
REMARK  status: ('A' for Active; 'I' for Inactive)
REMARK    1  A    between atoms: N_1  and  C_2
REMARK    2  A    between atoms: N_6  and  C_7
REMARK    3  A    between atoms: C_10  and  C_12
REMARK    4  A    between atoms: C_12  and  O_13
REMARK    5  A    between atoms: O_13  and  P_14
REMARK    6  A    between atoms: P_14  and  O_15
REMARK    7  A    between atoms: P_14  and  O_16
REMARK    8  A    between atoms: C_18  and  O_20
REMARK    9  A    between atoms: C_21  and  O_23
REMARK                            x       y       z     vdW  Elec       q    Type
REMARK                         _______ _______ _______ _____ _____    ______ ____
ROOT
ATOM      1  C   UNL     1       5.732  -3.270  22.640  0.00  0.00    +0.253 C 
ATOM      2  C   UNL     1       6.516  -4.288  21.796  0.00  0.00    +0.195 C 
ATOM      3  C   UNL     1       6.615  -5.527  22.688  0.00  0.00    +0.178 C 
ATOM      4  C   UNL     1       5.617  -5.291  23.818  0.00  0.00    +0.178 C 
ATOM      5  O   UNL     1       4.907  -4.067  23.513  0.00  0.00    -0.346 OA
ENDROOT
BRANCH   1  11
ATOM      6  C   UNL     1       9.119  -0.479  24.726  0.00  0.00    +0.147 A 
ATOM      7  N   UNL     1      10.167  -0.976  24.023  0.00  0.00    -0.219 NA
ATOM      8  C   UNL     1       9.920  -1.922  23.093  0.00  0.00    +0.225 A 
ATOM      9  N   UNL     1       8.740  -2.489  22.771  0.00  0.00    -0.216 NA
ATOM     10  C   UNL     1       7.739  -1.964  23.494  0.00  0.00    +0.167 A 
ATOM     11  N   UNL     1       6.415  -2.294  23.459  0.00  0.00    -0.286 N 
ATOM     12  C   UNL     1       5.786  -1.541  24.425  0.00  0.00    +0.203 A 
ATOM     13  N   UNL     1       6.617  -0.730  25.042  0.00  0.00    -0.231 NA
ATOM     14  C   UNL     1       7.842  -0.986  24.471  0.00  0.00    +0.147 A 
BRANCH   6  15
ATOM     15  N   UNL     1       9.385   0.479  25.695  0.00  0.00    -0.341 N 
ATOM     16  H   UNL     1      10.239   0.305  26.206  0.00  0.00    +0.144 HD
ATOM     17  H   UNL     1       8.568   0.785  26.212  0.00  0.00    +0.144 HD
ENDBRANCH   6  15
ENDBRANCH   1  11
BRANCH   2  18
ATOM     18  O   UNL     1       5.794  -4.641  20.590  0.00  0.00    -0.385 OA
ATOM     19  H   UNL     1       4.974  -5.107  20.836  0.00  0.00    +0.210 HD
ENDBRANCH   2  18
BRANCH   3  20
ATOM     20  O   UNL     1       6.256  -6.721  21.984  0.00  0.00    -0.386 OA
ATOM     21  H   UNL     1       5.282  -6.795  22.033  0.00  0.00    +0.210 HD
ENDBRANCH   3  20
BRANCH   4  22
ATOM     22  C   UNL     1       6.318  -5.187  25.178  0.00  0.00    +0.206 C 
BRANCH  22  23
ATOM     23  O   UNL     1       7.719  -5.174  24.959  0.00  0.00    -0.284 OA
BRANCH  23  24
ATOM     24  P   UNL     1       8.651  -4.873  26.221  0.00  0.00    +0.472 P 
ATOM     25  O   UNL     1       8.746  -3.440  26.607  0.00  0.00    -0.228 OA
BRANCH  24  26
ATOM     26  O   UNL     1      10.014  -5.588  25.809  0.00  0.00    -0.303 OA
ATOM     27  H   UNL     1      10.754  -5.209  26.317  0.00  0.00    +0.222 HD
ENDBRANCH  24  26
BRANCH  24  28
ATOM     28  O   UNL     1       8.060  -5.809  27.363  0.00  0.00    -0.303 OA
ATOM     29  H   UNL     1       7.433  -5.324  27.936  0.00  0.00    +0.222 HD
ENDBRANCH  24  28
ENDBRANCH  23  24
ENDBRANCH  22  23
ENDBRANCH   4  22
TORSDOF 9
ENDMDL
MODEL 2
REMARK VINA RESULT:      -6.9      0.976      1.806
REMARK  Name = 
REMARK  9 active torsions:
REMARK  status: ('A' for Active; 'I' for Inactive)
REMARK    1  A    between atoms: N_1  and  C_2
REMARK    2  A    between atoms: N_6  and  C_7
REMARK    3  A    between atoms: C_10  and  C_12
REMARK    4  A    between atoms: C_12  and  O_13
REMARK    5  A    between atoms: O_13  and  P_14
REMARK    6  A    between atoms: P_14  and  O_15
REMARK    7  A    between atoms: P_14  and  O_16
REMARK    8  A    between atoms: C_18  and  O_20
REMARK    9  A    between atoms: C_21  and  O_23
REMARK                            x       y       z     vdW  Elec       q    Type
REMARK                         _______ _______ _______ _____ _____    ______ ____
ROOT
ATOM      1  C   UNL     1       6.439  -2.971  22.408  0.00  0.00    +0.253 C 
ATOM      2  C   UNL     1       6.606  -4.377  21.811  0.00  0.00    +0.195 C 
ATOM      3  C   UNL     1       6.122  -5.320  22.915  0.00  0.00    +0.178 C 
ATOM      4  C   UNL     1       5.398  -4.427  23.919  0.00  0.00    +0.178 C 
ATOM      5  O   UNL     1       5.359  -3.094  23.355  0.00  0.00    -0.346 OA
ENDROOT
BRANCH   1  11
ATOM      6  C   UNL     1       9.162   0.229  24.849  0.00  0.00    +0.147 A 
ATOM      7  N   UNL     1       8.181   1.148  25.023  0.00  0.00    -0.219 NA
ATOM      8  C   UNL     1       6.951   0.866  24.547  0.00  0.00    +0.225 A 
ATOM      9  N   UNL     1       6.547  -0.227  23.869  0.00  0.00    -0.216 NA
ATOM     10  C   UNL     1       7.554  -1.102  23.722  0.00  0.00    +0.167 A 
ATOM     11  N   UNL     1       7.533  -2.308  23.082  0.00  0.00    -0.286 N 
ATOM     12  C   UNL     1       8.812  -2.813  23.130  0.00  0.00    +0.203 A 
ATOM     13  N   UNL     1       9.632  -2.026  23.792  0.00  0.00    -0.231 NA
ATOM     14  C   UNL     1       8.859  -0.951  24.165  0.00  0.00    +0.147 A 
BRANCH   6  15
ATOM     15  N   UNL     1      10.431   0.536  25.324  0.00  0.00    -0.341 N 
ATOM     16  H   UNL     1      10.979   1.082  24.673  0.00  0.00    +0.144 HD
ATOM     17  H   UNL     1      10.885  -0.223  25.818  0.00  0.00    +0.144 HD
ENDBRANCH   6  15
ENDBRANCH   1  11
BRANCH   2  18
ATOM     18  O   UNL     1       5.766  -4.559  20.645  0.00  0.00    -0.385 OA
ATOM     19  H   UNL     1       5.792  -3.748  20.105  0.00  0.00    +0.210 HD
ENDBRANCH   2  18
BRANCH   3  20
ATOM     20  O   UNL     1       5.209  -6.303  22.414  0.00  0.00    -0.386 OA
ATOM     21  H   UNL     1       5.529  -7.171  22.731  0.00  0.00    +0.210 HD
ENDBRANCH   3  20
BRANCH   4  22
ATOM     22  C   UNL     1       6.104  -4.419  25.280  0.00  0.00    +0.206 C 
BRANCH  22  23
ATOM     23  O   UNL     1       7.246  -5.256  25.196  0.00  0.00    -0.284 OA
BRANCH  23  24
ATOM     24  P   UNL     1       8.394  -5.033  26.284  0.00  0.00    +0.472 P 
ATOM     25  O   UNL     1       8.671  -3.613  26.626  0.00  0.00    -0.228 OA
BRANCH  24  26
ATOM     26  O   UNL     1       9.606  -5.864  25.668  0.00  0.00    -0.303 OA
ATOM     27  H   UNL     1       9.503  -5.933  24.702  0.00  0.00    +0.222 HD
ENDBRANCH  24  26
BRANCH  24  28
ATOM     28  O   UNL     1       7.921  -5.911  27.522  0.00  0.00    -0.303 OA
ATOM     29  H   UNL     1       6.945  -5.954  27.580  0.00  0.00    +0.222 HD
ENDBRANCH  24  28
ENDBRANCH  23  24
ENDBRANCH  22  23
ENDBRANCH   4  22
TORSDOF 9
ENDMDL
MODEL 3
REMARK VINA RESULT:      -6.6      1.948      3.866
REMARK  Name = 
REMARK  9 active torsions:
REMARK  status: ('A' for Active; 'I' for Inactive)
REMARK    1  A    between atoms: N_1  and  C_2
REMARK    2  A    between atoms: N_6  and  C_7
REMARK    3  A    between atoms: C_10  and  C_12
REMARK    4  A    between atoms: C_12  and  O_13
REMARK    5  A    between atoms: O_13  and  P_14
REMARK    6  A    between atoms: P_14  and  O_15
REMARK    7  A    between atoms: P_14  and  O_16
REMARK    8  A    between atoms: C_18  and  O_20
REMARK    9  A    between atoms: C_21  and  O_23
REMARK                            x       y       z     vdW  Elec       q    Type
REMARK                         _______ _______ _______ _____ _____    ______ ____
ROOT
ATOM      1  C   UNL     1       8.327  -4.320  26.011  0.00  0.00    +0.253 C 
ATOM      2  C   UNL     1       7.377  -4.871  27.087  0.00  0.00    +0.195 C 
ATOM      3  C   UNL     1       6.103  -5.231  26.321  0.00  0.00    +0.178 C 
ATOM      4  C   UNL     1       6.496  -5.199  24.846  0.00  0.00    +0.178 C 
ATOM      5  O   UNL     1       7.924  -4.970  24.789  0.00  0.00    -0.346 OA
ENDROOT
BRANCH   1  11
ATOM      6  C   UNL     1       9.474   0.010  24.130  0.00  0.00    +0.147 A 
ATOM      7  N   UNL     1      10.298  -0.467  23.164  0.00  0.00    -0.219 NA
ATOM      8  C   UNL     1      10.456  -1.803  23.063  0.00  0.00    +0.225 A 
ATOM      9  N   UNL     1       9.918  -2.768  23.835  0.00  0.00    -0.216 NA
ATOM     10  C   UNL     1       9.115  -2.244  24.774  0.00  0.00    +0.167 A 
ATOM     11  N   UNL     1       8.412  -2.902  25.742  0.00  0.00    -0.286 N 
ATOM     12  C   UNL     1       7.791  -1.945  26.511  0.00  0.00    +0.203 A 
ATOM     13  N   UNL     1       8.023  -0.727  26.072  0.00  0.00    -0.231 NA
ATOM     14  C   UNL     1       8.852  -0.900  24.988  0.00  0.00    +0.147 A 
BRANCH   6  15
ATOM     15  N   UNL     1       9.333   1.388  24.240  0.00  0.00    -0.341 N 
ATOM     16  H   UNL     1       8.373   1.696  24.182  0.00  0.00    +0.144 HD
ATOM     17  H   UNL     1      10.040   1.919  23.745  0.00  0.00    +0.144 HD
ENDBRANCH   6  15
ENDBRANCH   1  11
BRANCH   2  18
ATOM     18  O   UNL     1       7.908  -6.075  27.694  0.00  0.00    -0.385 OA
ATOM     19  H   UNL     1       7.843  -6.808  27.056  0.00  0.00    +0.210 HD
ENDBRANCH   2  18
BRANCH   3  20
ATOM     20  O   UNL     1       5.632  -6.541  26.655  0.00  0.00    -0.386 OA
ATOM     21  H   UNL     1       6.269  -6.914  27.297  0.00  0.00    +0.210 HD
ENDBRANCH   3  20
BRANCH   4  22
ATOM     22  C   UNL     1       5.741  -4.105  24.084  0.00  0.00    +0.206 C 
BRANCH  22  23
ATOM     23  O   UNL     1       5.369  -4.619  22.815  0.00  0.00    -0.284 OA
BRANCH  23  24
ATOM     24  P   UNL     1       6.490  -4.630  21.676  0.00  0.00    +0.472 P 
ATOM     25  O   UNL     1       7.123  -5.952  21.428  0.00  0.00    -0.228 OA
BRANCH  24  26
ATOM     26  O   UNL     1       7.458  -3.457  22.148  0.00  0.00    -0.303 OA
ATOM     27  H   UNL     1       7.406  -3.353  23.116  0.00  0.00    +0.222 HD
ENDBRANCH  24  26
BRANCH  24  28
ATOM     28  O   UNL     1       5.748  -4.024  20.406  0.00  0.00    -0.303 OA
ATOM     29  H   UNL     1       5.687  -3.050  20.458  0.00  0.00    +0.222 HD
ENDBRANCH  24  28
ENDBRANCH  23  24
ENDBRANCH  22  23
ENDBRANCH   4  22
TORSDOF 9
ENDMDL
MODEL 4
REMARK VINA RESULT:      -6.5      2.080      3.973
REMARK  Name = 
REMARK  9 active torsions:
REMARK  status: ('A' for Active; 'I' for Inactive)
REMARK    1  A    between atoms: N_1  and  C_2
REMARK    2  A    between atoms: N_6  and  C_7
REMARK    3  A    between atoms: C_10  and  C_12
REMARK    4  A    between atoms: C_12  and  O_13
REMARK    5  A    between atoms: O_13  and  P_14
REMARK    6  A    between atoms: P_14  and  O_15
REMARK    7  A    between atoms: P_14  and  O_16
REMARK    8  A    between atoms: C_18  and  O_20
REMARK    9  A    between atoms: C_21  and  O_23
REMARK                            x       y       z     vdW  Elec       q    Type
REMARK                         _______ _______ _______ _____ _____    ______ ____
ROOT
ATOM      1  C   UNL     1       8.978  -3.431  25.117  0.00  0.00    +0.253 C 
ATOM      2  C   UNL     1       8.631  -3.930  26.529  0.00  0.00    +0.195 C 
ATOM      3  C   UNL     1       7.437  -4.864  26.320  0.00  0.00    +0.178 C 
ATOM      4  C   UNL     1       7.383  -5.120  24.817  0.00  0.00    +0.178 C 
ATOM      5  O   UNL     1       8.545  -4.484  24.232  0.00  0.00    -0.346 OA
ENDROOT
BRANCH   1  11
ATOM      6  C   UNL     1       8.132   0.540  22.449  0.00  0.00    +0.147 A 
ATOM      7  N   UNL     1       9.075   0.285  21.509  0.00  0.00    -0.219 NA
ATOM      8  C   UNL     1       9.795  -0.851  21.619  0.00  0.00    +0.225 A 
ATOM      9  N   UNL     1       9.730  -1.790  22.584  0.00  0.00    -0.216 NA
ATOM     10  C   UNL     1       8.785  -1.490  23.488  0.00  0.00    +0.167 A 
ATOM     11  N   UNL     1       8.440  -2.189  24.609  0.00  0.00    -0.286 N 
ATOM     12  C   UNL     1       7.471  -1.459  25.258  0.00  0.00    +0.203 A 
ATOM     13  N   UNL     1       7.152  -0.364  24.604  0.00  0.00    -0.231 NA
ATOM     14  C   UNL     1       7.968  -0.369  23.497  0.00  0.00    +0.147 A 
BRANCH   6  15
ATOM     15  N   UNL     1       7.410   1.722  22.339  0.00  0.00    -0.341 N 
ATOM     16  H   UNL     1       7.848   2.502  22.809  0.00  0.00    +0.144 HD
ATOM     17  H   UNL     1       6.408   1.607  22.429  0.00  0.00    +0.144 HD
ENDBRANCH   6  15
ENDBRANCH   1  11
BRANCH   2  18
ATOM     18  O   UNL     1       9.721  -4.694  27.102  0.00  0.00    -0.385 OA
ATOM     19  H   UNL     1       9.722  -5.587  26.713  0.00  0.00    +0.210 HD
ENDBRANCH   2  18
BRANCH   3  20
ATOM     20  O   UNL     1       7.608  -6.110  27.004  0.00  0.00    -0.386 OA
ATOM     21  H   UNL     1       6.786  -6.268  27.511  0.00  0.00    +0.210 HD
ENDBRANCH   3  20
BRANCH   4  22
ATOM     22  C   UNL     1       6.094  -4.568  24.195  0.00  0.00    +0.206 C 
BRANCH  22  23
ATOM     23  O   UNL     1       6.354  -4.248  22.838  0.00  0.00    -0.284 OA
BRANCH  23  24
ATOM     24  P   UNL     1       6.145  -5.411  21.762  0.00  0.00    +0.472 P 
ATOM     25  O   UNL     1       5.846  -4.946  20.382  0.00  0.00    -0.228 OA
BRANCH  24  26
ATOM     26  O   UNL     1       5.038  -6.318  22.461  0.00  0.00    -0.303 OA
ATOM     27  H   UNL     1       5.297  -6.508  23.381  0.00  0.00    +0.222 HD
ENDBRANCH  24  26
BRANCH  24  28
ATOM     28  O   UNL     1       7.474  -6.277  21.874  0.00  0.00    -0.303 OA
ATOM     29  H   UNL     1       8.237  -5.818  21.469  0.00  0.00    +0.222 HD
ENDBRANCH  24  28
ENDBRANCH  23  24
ENDBRANCH  22  23
ENDBRANCH   4  22
TORSDOF 9
ENDMDL
MODEL 5
REMARK VINA RESULT:      -6.3      2.464      4.804
REMARK  Name = 
REMARK  9 active torsions:
REMARK  status: ('A' for Active; 'I' for Inactive)
REMARK    1  A    between atoms: N_1  and  C_2
REMARK    2  A    between atoms: N_6  and  C_7
REMARK    3  A    between atoms: C_10  and  C_12
REMARK    4  A    between atoms: C_12  and  O_13
REMARK    5  A    between atoms: O_13  and  P_14
REMARK    6  A    between atoms: P_14  and  O_15
REMARK    7  A    between atoms: P_14  and  O_16
REMARK    8  A    between atoms: C_18  and  O_20
REMARK    9  A    between atoms: C_21  and  O_23
REMARK                            x       y       z     vdW  Elec       q    Type
REMARK                         _______ _______ _______ _____ _____    ______ ____
ROOT
ATOM      1  C   UNL     1       7.597  -0.517  23.324  0.00  0.00    +0.253 C 
ATOM      2  C   UNL     1       8.011   0.617  24.275  0.00  0.00    +0.195 C 
ATOM      3  C   UNL     1       9.185   0.040  25.068  0.00  0.00    +0.178 C 
ATOM      4  C   UNL     1       9.597  -1.223  24.317  0.00  0.00    +0.178 C 
ATOM      5  O   UNL     1       8.800  -1.282  23.110  0.00  0.00    -0.346 OA
ENDROOT
BRANCH   1  11
ATOM      6  C   UNL     1       4.484  -4.247  23.357  0.00  0.00    +0.147 A 
ATOM      7  N   UNL     1       4.940  -4.825  22.218  0.00  0.00    -0.219 NA
ATOM      8  C   UNL     1       5.982  -4.249  21.585  0.00  0.00    +0.225 A 
ATOM      9  N   UNL     1       6.642  -3.120  21.916  0.00  0.00    -0.216 NA
ATOM     10  C   UNL     1       6.151  -2.589  23.046  0.00  0.00    +0.167 A 
ATOM     11  N   UNL     1       6.549  -1.447  23.680  0.00  0.00    -0.286 N 
ATOM     12  C   UNL     1       5.711  -1.270  24.757  0.00  0.00    +0.203 A 
ATOM     13  N   UNL     1       4.834  -2.244  24.869  0.00  0.00    -0.231 NA
ATOM     14  C   UNL     1       5.097  -3.074  23.804  0.00  0.00    +0.147 A 
BRANCH   6  15
ATOM     15  N   UNL     1       3.397  -4.835  23.992  0.00  0.00    -0.341 N 
ATOM     16  H   UNL     1       3.453  -4.793  25.000  0.00  0.00    +0.144 HD
ATOM     17  H   UNL     1       3.081  -5.697  23.563  0.00  0.00    +0.144 HD
ENDBRANCH   6  15
ENDBRANCH   1  11
BRANCH   2  18
ATOM     18  O   UNL     1       8.474   1.779  23.542  0.00  0.00    -0.385 OA
ATOM     19  H   UNL     1       8.323   1.634  22.591  0.00  0.00    +0.210 HD
ENDBRANCH   2  18
BRANCH   3  20
ATOM     20  O   UNL     1      10.295   0.944  25.114  0.00  0.00    -0.386 OA
ATOM     21  H   UNL     1      10.693   0.946  24.220  0.00  0.00    +0.210 HD
ENDBRANCH   3  20
BRANCH   4  22
ATOM     22  C   UNL     1       9.386  -2.481  25.168  0.00  0.00    +0.206 C 
BRANCH  22  23
ATOM     23  O   UNL     1       9.541  -3.617  24.332  0.00  0.00    -0.284 OA
BRANCH  23  24
ATOM     24  P   UNL     1       8.751  -4.941  24.748  0.00  0.00    +0.472 P 
ATOM     25  O   UNL     1       7.631  -4.733  25.704  0.00  0.00    -0.228 OA
BRANCH  24  26
ATOM     26  O   UNL     1       9.929  -5.896  25.234  0.00  0.00    -0.303 OA
ATOM     27  H   UNL     1      10.655  -5.364  25.608  0.00  0.00    +0.222 HD
ENDBRANCH  24  26
BRANCH  24  28
ATOM     28  O   UNL     1       8.300  -5.568  23.358  0.00  0.00    -0.303 OA
ATOM     29  H   UNL     1       8.924  -5.337  22.641  0.00  0.00    +0.222 HD
ENDBRANCH  24  28
ENDBRANCH  23  24
ENDBRANCH  22  23
ENDBRANCH   4  22
TORSDOF 9
ENDMDL
MODEL 6
REMARK VINA RESULT:      -6.2      3.089      5.035
REMARK  Name = 
REMARK  9 active torsions:
REMARK  status: ('A' for Active; 'I' for Inactive)
REMARK    1  A    between atoms: N_1  and  C_2
REMARK    2  A    between atoms: N_6  and  C_7
REMARK    3  A    between atoms: C_10  and  C_12
REMARK    4  A    between atoms: C_12  and  O_13
REMARK    5  A    between atoms: O_13  and  P_14
REMARK    6  A    between atoms: P_14  and  O_15
REMARK    7  A    between atoms: P_14  and  O_16
REMARK    8  A    between atoms: C_18  and  O_20
REMARK    9  A    between atoms: C_21  and  O_23
REMARK                            x       y       z     vdW  Elec       q    Type
REMARK                         _______ _______ _______ _____ _____    ______ ____
ROOT
ATOM      1  C   UNL     1       8.990  -1.673  24.516  0.00  0.00    +0.253 C 
ATOM      2  C   UNL     1       9.970  -1.677  23.333  0.00  0.00    +0.195 C 
ATOM      3  C   UNL     1       9.073  -1.764  22.096  0.00  0.00    +0.178 C 
ATOM      4  C   UNL     1       7.664  -1.461  22.597  0.00  0.00    +0.178 C 
ATOM      5  O   UNL     1       7.776  -1.095  23.994  0.00  0.00    -0.346 OA
ENDROOT
BRANCH   1  11
ATOM      6  C   UNL     1       6.779  -4.990  27.295  0.00  0.00    +0.147 A 
ATOM      7  N   UNL     1       5.792  -4.172  27.736  0.00  0.00    -0.219 NA
ATOM      8  C   UNL     1       5.762  -2.904  27.279  0.00  0.00    +0.225 A 
ATOM      9  N   UNL     1       6.624  -2.299  26.437  0.00  0.00    -0.216 NA
ATOM     10  C   UNL     1       7.581  -3.149  26.032  0.00  0.00    +0.167 A 
ATOM     11  N   UNL     1       8.630  -2.897  25.196  0.00  0.00    -0.286 N 
ATOM     12  C   UNL     1       9.379  -4.050  25.131  0.00  0.00    +0.203 A 
ATOM     13  N   UNL     1       8.853  -5.025  25.839  0.00  0.00    -0.231 NA
ATOM     14  C   UNL     1       7.730  -4.475  26.410  0.00  0.00    +0.147 A 
BRANCH   6  15
ATOM     15  N   UNL     1       6.815  -6.288  27.787  0.00  0.00    -0.341 N 
ATOM     16  H   UNL     1       6.398  -6.380  28.703  0.00  0.00    +0.144 HD
ATOM     17  H   UNL     1       7.681  -6.781  27.600  0.00  0.00    +0.144 HD
ENDBRANCH   6  15
ENDBRANCH   1  11
BRANCH   2  18
ATOM     18  O   UNL     1      10.728  -0.444  23.270  0.00  0.00    -0.385 OA
ATOM     19  H   UNL     1      11.641  -0.617  23.563  0.00  0.00    +0.210 HD
ENDBRANCH   2  18
BRANCH   3  20
ATOM     20  O   UNL     1       9.439  -0.799  21.103  0.00  0.00    -0.386 OA
ATOM     21  H   UNL     1      10.229  -1.151  20.646  0.00  0.00    +0.210 HD
ENDBRANCH   3  20
BRANCH   4  22
ATOM     22  C   UNL     1       6.732  -2.665  22.426  0.00  0.00    +0.206 C 
BRANCH  22  23
ATOM     23  O   UNL     1       7.506  -3.771  21.990  0.00  0.00    -0.284 OA
BRANCH  23  24
ATOM     24  P   UNL     1       6.894  -5.228  22.228  0.00  0.00    +0.472 P 
ATOM     25  O   UNL     1       6.276  -5.856  21.030  0.00  0.00    -0.228 OA
BRANCH  24  26
ATOM     26  O   UNL     1       5.936  -4.988  23.477  0.00  0.00    -0.303 OA
ATOM     27  H   UNL     1       5.226  -5.656  23.484  0.00  0.00    +0.222 HD
ENDBRANCH  24  26
BRANCH  24  28
ATOM     28  O   UNL     1       8.109  -6.057  22.833  0.00  0.00    -0.303 OA
ATOM     29  H   UNL     1       8.930  -5.527  22.853  0.00  0.00    +0.222 HD
ENDBRANCH  24  28
ENDBRANCH  23  24
ENDBRANCH  22  23
ENDBRANCH   4  22
TORSDOF 9
ENDMDL
MODEL 7
REMARK VINA RESULT:      -6.2      2.107      4.133
REMARK  Name = 
REMARK  9 active torsions:
REMARK  status: ('A' for Active; 'I' for Inactive)
REMARK    1  A    between atoms: N_1  and  C_2
REMARK    2  A    between atoms: N_6  and  C_7
REMARK    3  A    between atoms: C_10  and  C_12
REMARK    4  A    between atoms: C_12  and  O_13
REMARK    5  A    between atoms: O_13  and  P_14
REMARK    6  A    between atoms: P_14  and  O_15
REMARK    7  A    between atoms: P_14  and  O_16
REMARK    8  A    between atoms: C_18  and  O_20
REMARK    9  A    between atoms: C_21  and  O_23
REMARK                            x       y       z     vdW  Elec       q    Type
REMARK                         _______ _______ _______ _____ _____    ______ ____
ROOT
ATOM      1  C   UNL     1       8.918  -4.264  24.486  0.00  0.00    +0.253 C 
ATOM      2  C   UNL     1       9.038  -4.254  26.018  0.00  0.00    +0.195 C 
ATOM      3  C   UNL     1       7.662  -4.705  26.511  0.00  0.00    +0.178 C 
ATOM      4  C   UNL     1       6.957  -5.269  25.280  0.00  0.00    +0.178 C 
ATOM      5  O   UNL     1       7.918  -5.261  24.196  0.00  0.00    -0.346 OA
ENDROOT
BRANCH   1  11
ATOM      6  C   UNL     1       8.219   0.357  23.158  0.00  0.00    +0.147 A 
ATOM      7  N   UNL     1       8.739   0.909  24.282  0.00  0.00    -0.219 NA
ATOM      8  C   UNL     1       9.230   0.084  25.229  0.00  0.00    +0.225 A 
ATOM      9  N   UNL     1       9.252  -1.264  25.234  0.00  0.00    -0.216 NA
ATOM     10  C   UNL     1       8.726  -1.759  24.103  0.00  0.00    +0.167 A 
ATOM     11  N   UNL     1       8.564  -3.069  23.754  0.00  0.00    -0.286 N 
ATOM     12  C   UNL     1       7.920  -3.085  22.538  0.00  0.00    +0.203 A 
ATOM     13  N   UNL     1       7.698  -1.875  22.076  0.00  0.00    -0.231 NA
ATOM     14  C   UNL     1       8.195  -1.035  23.046  0.00  0.00    +0.147 A 
BRANCH   6  15
ATOM     15  N   UNL     1       7.696   1.213  22.197  0.00  0.00    -0.341 N 
ATOM     16  H   UNL     1       8.211   2.078  22.110  0.00  0.00    +0.144 HD
ATOM     17  H   UNL     1       6.684   1.251  22.181  0.00  0.00    +0.144 HD
ENDBRANCH   6  15
ENDBRANCH   1  11
BRANCH   2  18
ATOM     18  O   UNL     1      10.029  -5.206  26.476  0.00  0.00    -0.385 OA
ATOM     19  H   UNL     1      10.619  -4.768  27.116  0.00  0.00    +0.210 HD
ENDBRANCH   2  18
BRANCH   3  20
ATOM     20  O   UNL     1       7.761  -5.728  27.507  0.00  0.00    -0.386 OA
ATOM     21  H   UNL     1       7.781  -6.583  27.032  0.00  0.00    +0.210 HD
ENDBRANCH   3  20
BRANCH   4  22
ATOM     22  C   UNL     1       5.718  -4.446  24.911  0.00  0.00    +0.206 C 
BRANCH  22  23
ATOM     23  O   UNL     1       4.596  -5.314  24.885  0.00  0.00    -0.284 OA
BRANCH  23  24
ATOM     24  P   UNL     1       4.151  -5.888  23.462  0.00  0.00    +0.472 P 
ATOM     25  O   UNL     1       2.889  -5.319  22.920  0.00  0.00    -0.228 OA
BRANCH  24  26
ATOM     26  O   UNL     1       4.169  -7.460  23.715  0.00  0.00    -0.303 OA
ATOM     27  H   UNL     1       3.595  -7.682  24.471  0.00  0.00    +0.222 HD
ENDBRANCH  24  26
BRANCH  24  28
ATOM     28  O   UNL     1       5.420  -5.636  22.537  0.00  0.00    -0.303 OA
ATOM     29  H   UNL     1       6.004  -6.420  22.508  0.00  0.00    +0.222 HD
ENDBRANCH  24  28
ENDBRANCH  23  24
ENDBRANCH  22  23
ENDBRANCH   4  22
TORSDOF 9
ENDMDL
MODEL 8
REMARK VINA RESULT:      -6.1      2.622      3.765
REMARK  Name = 
REMARK  9 active torsions:
REMARK  status: ('A' for Active; 'I' for Inactive)
REMARK    1  A    between atoms: N_1  and  C_2
REMARK    2  A    between atoms: N_6  and  C_7
REMARK    3  A    between atoms: C_10  and  C_12
REMARK    4  A    between atoms: C_12  and  O_13
REMARK    5  A    between atoms: O_13  and  P_14
REMARK    6  A    between atoms: P_14  and  O_15
REMARK    7  A    between atoms: P_14  and  O_16
REMARK    8  A    between atoms: C_18  and  O_20
REMARK    9  A    between atoms: C_21  and  O_23
REMARK                            x       y       z     vdW  Elec       q    Type
REMARK                         _______ _______ _______ _____ _____    ______ ____
ROOT
ATOM      1  C   UNL     1       8.016  -3.976  24.029  0.00  0.00    +0.253 C 
ATOM      2  C   UNL     1       9.285  -4.289  24.837  0.00  0.00    +0.195 C 
ATOM      3  C   UNL     1       8.880  -4.041  26.292  0.00  0.00    +0.178 C 
ATOM      4  C   UNL     1       7.357  -3.943  26.276  0.00  0.00    +0.178 C 
ATOM      5  O   UNL     1       6.923  -4.248  24.929  0.00  0.00    -0.346 OA
ENDROOT
BRANCH   1  11
ATOM      6  C   UNL     1       8.626   0.522  22.296  0.00  0.00    +0.147 A 
ATOM      7  N   UNL     1       9.972   0.559  22.464  0.00  0.00    -0.219 NA
ATOM      8  C   UNL     1      10.583  -0.537  22.957  0.00  0.00    +0.225 A 
ATOM      9  N   UNL     1      10.024  -1.699  23.352  0.00  0.00    -0.216 NA
ATOM     10  C   UNL     1       8.695  -1.683  23.167  0.00  0.00    +0.167 A 
ATOM     11  N   UNL     1       7.793  -2.665  23.460  0.00  0.00    -0.286 N 
ATOM     12  C   UNL     1       6.545  -2.169  23.162  0.00  0.00    +0.203 A 
ATOM     13  N   UNL     1       6.599  -0.954  22.663  0.00  0.00    -0.231 NA
ATOM     14  C   UNL     1       7.938  -0.636  22.664  0.00  0.00    +0.147 A 
BRANCH   6  15
ATOM     15  N   UNL     1       8.003   1.663  21.807  0.00  0.00    -0.341 N 
ATOM     16  H   UNL     1       8.469   2.519  22.074  0.00  0.00    +0.144 HD
ATOM     17  H   UNL     1       6.991   1.632  21.846  0.00  0.00    +0.144 HD
ENDBRANCH   6  15
ENDBRANCH   1  11
BRANCH   2  18
ATOM     18  O   UNL     1       9.673  -5.677  24.694  0.00  0.00    -0.385 OA
ATOM     19  H   UNL     1      10.554  -5.803  25.090  0.00  0.00    +0.210 HD
ENDBRANCH   2  18
BRANCH   3  20
ATOM     20  O   UNL     1       9.274  -5.120  27.146  0.00  0.00    -0.386 OA
ATOM     21  H   UNL     1       9.363  -4.748  28.047  0.00  0.00    +0.210 HD
ENDBRANCH   3  20
BRANCH   4  22
ATOM     22  C   UNL     1       6.876  -2.550  26.698  0.00  0.00    +0.206 C 
BRANCH  22  23
ATOM     23  O   UNL     1       8.009  -1.707  26.832  0.00  0.00    -0.284 OA
BRANCH  23  24
ATOM     24  P   UNL     1       7.784  -0.142  26.607  0.00  0.00    +0.472 P 
ATOM     25  O   UNL     1       6.535   0.218  25.884  0.00  0.00    -0.228 OA
BRANCH  24  26
ATOM     26  O   UNL     1       9.152   0.298  25.921  0.00  0.00    -0.303 OA
ATOM     27  H   UNL     1       9.450   1.150  26.290  0.00  0.00    +0.222 HD
ENDBRANCH  24  26
BRANCH  24  28
ATOM     28  O   UNL     1       7.878   0.471  28.072  0.00  0.00    -0.303 OA
ATOM     29  H   UNL     1       7.785  -0.221  28.757  0.00  0.00    +0.222 HD
ENDBRANCH  24  28
ENDBRANCH  23  24
ENDBRANCH  22  23
ENDBRANCH   4  22
TORSDOF 9
ENDMDL
MODEL 9
REMARK VINA RESULT:      -6.0      2.351      4.970
REMARK  Name = 
REMARK  9 active torsions:
REMARK  status: ('A' for Active; 'I' for Inactive)
REMARK    1  A    between atoms: N_1  and  C_2
REMARK    2  A    between atoms: N_6  and  C_7
REMARK    3  A    between atoms: C_10  and  C_12
REMARK    4  A    between atoms: C_12  and  O_13
REMARK    5  A    between atoms: O_13  and  P_14
REMARK    6  A    between atoms: P_14  and  O_15
REMARK    7  A    between atoms: P_14  and  O_16
REMARK    8  A    between atoms: C_18  and  O_20
REMARK    9  A    between atoms: C_21  and  O_23
REMARK                            x       y       z     vdW  Elec       q    Type
REMARK                         _______ _______ _______ _____ _____    ______ ____
ROOT
ATOM      1  C   UNL     1       7.361  -1.082  23.174  0.00  0.00    +0.253 C 
ATOM      2  C   UNL     1       7.382  -0.459  24.579  0.00  0.00    +0.195 C 
ATOM      3  C   UNL     1       8.702  -0.938  25.188  0.00  0.00    +0.178 C 
ATOM      4  C   UNL     1       9.505  -1.500  24.018  0.00  0.00    +0.178 C 
ATOM      5  O   UNL     1       8.748  -1.235  22.813  0.00  0.00    -0.346 OA
ENDROOT
BRANCH   1  11
ATOM      6  C   UNL     1       4.503  -4.998  23.499  0.00  0.00    +0.147 A 
ATOM      7  N   UNL     1       3.865  -4.616  24.633  0.00  0.00    -0.219 NA
ATOM      8  C   UNL     1       4.187  -3.424  25.175  0.00  0.00    +0.225 A 
ATOM      9  N   UNL     1       5.111  -2.537  24.754  0.00  0.00    -0.216 NA
ATOM     10  C   UNL     1       5.713  -2.962  23.633  0.00  0.00    +0.167 A 
ATOM     11  N   UNL     1       6.705  -2.346  22.925  0.00  0.00    -0.286 N 
ATOM     12  C   UNL     1       7.049  -3.190  21.895  0.00  0.00    +0.203 A 
ATOM     13  N   UNL     1       6.316  -4.281  21.880  0.00  0.00    -0.231 NA
ATOM     14  C   UNL     1       5.478  -4.153  22.963  0.00  0.00    +0.147 A 
BRANCH   6  15
ATOM     15  N   UNL     1       4.180  -6.236  22.958  0.00  0.00    -0.341 N 
ATOM     16  H   UNL     1       4.692  -6.449  22.114  0.00  0.00    +0.144 HD
ATOM     17  H   UNL     1       3.192  -6.460  22.992  0.00  0.00    +0.144 HD
ENDBRANCH   6  15
ENDBRANCH   1  11
BRANCH   2  18
ATOM     18  O   UNL     1       7.400   0.988  24.515  0.00  0.00    -0.385 OA
ATOM     19  H   UNL     1       8.029   1.268  23.826  0.00  0.00    +0.210 HD
ENDBRANCH   2  18
BRANCH   3  20
ATOM     20  O   UNL     1       9.433   0.137  25.788  0.00  0.00    -0.386 OA
ATOM     21  H   UNL     1       8.887   0.942  25.684  0.00  0.00    +0.210 HD
ENDBRANCH   3  20
BRANCH   4  22
ATOM     22  C   UNL     1       9.759  -3.003  24.179  0.00  0.00    +0.206 C 
BRANCH  22  23
ATOM     23  O   UNL     1       8.974  -3.477  25.261  0.00  0.00    -0.284 OA
BRANCH  23  24
ATOM     24  P   UNL     1       8.684  -5.047  25.319  0.00  0.00    +0.472 P 
ATOM     25  O   UNL     1       7.497  -5.440  26.124  0.00  0.00    -0.228 OA
BRANCH  24  26
ATOM     26  O   UNL     1      10.088  -5.629  25.795  0.00  0.00    -0.303 OA
ATOM     27  H   UNL     1      10.078  -5.772  26.759  0.00  0.00    +0.222 HD
ENDBRANCH  24  26
BRANCH  24  28
ATOM     28  O   UNL     1       8.594  -5.474  23.790  0.00  0.00    -0.303 OA
ATOM     29  H   UNL     1       7.674  -5.432  23.459  0.00  0.00    +0.222 HD
ENDBRANCH  24  28
ENDBRANCH  23  24
ENDBRANCH  22  23
ENDBRANCH   4  22
TORSDOF 9
ENDMDL
