MODEL 1
REMARK VINA RESULT:      -7.4      0.000      0.000
REMARK  Name = 
REMARK  10 active torsions:
REMARK  status: ('A' for Active; 'I' for Inactive)
REMARK    1  A    between atoms: C_1  and  C_2
REMARK    2  A    between atoms: C_2  and  C_3
REMARK    3  A    between atoms: C_4  and  C_5
REMARK    4  A    between atoms: N_10  and  C_11
REMARK    5  A    between atoms: C_11  and  C_12
REMARK    6  A    between atoms: C_12  and  C_13
REMARK    7  A    between atoms: C_16  and  S_19
REMARK    8  A    between atoms: S_19  and  N_22
REMARK    9  A    between atoms: N_25  and  C_26
REMARK   10  A    between atoms: C_29  and  C_30
REMARK                            x       y       z     vdW  Elec       q    Type
REMARK                         _______ _______ _______ _____ _____    ______ ____
ROOT
ATOM      1  C   UNL     1       3.249  -6.178  24.891  0.00  0.00    -0.046 A 
ATOM      2  C   UNL     1       3.062  -5.102  24.006  0.00  0.00    +0.005 A 
ATOM      3  C   UNL     1       3.972  -4.859  22.970  0.00  0.00    +0.029 A 
ATOM      4  C   UNL     1       5.065  -5.710  22.790  0.00  0.00    +0.109 A 
ATOM      5  C   UNL     1       5.238  -6.811  23.627  0.00  0.00    +0.029 A 
ATOM      6  C   UNL     1       4.324  -7.051  24.656  0.00  0.00    +0.005 A 
ENDROOT
BRANCH   4   7
ATOM      7  S   UNL     1       6.325  -5.316  21.597  0.00  0.00    +0.076 S 
ATOM      8  O   UNL     1       5.795  -5.660  20.290  0.00  0.00    -0.150 OA
ATOM      9  O   UNL     1       7.586  -5.864  22.040  0.00  0.00    -0.150 OA
BRANCH   7  10
ATOM     10  N   UNL     1       6.416  -3.655  21.600  0.00  0.00    -0.169 N 
ATOM     11  H   UNL     1       5.787  -3.220  20.940  0.00  0.00    +0.178 HD
ATOM     12  C   UNL     1       7.166  -2.920  22.496  0.00  0.00    +0.319 C 
ATOM     13  N   UNL     1       7.086  -1.571  22.285  0.00  0.00    -0.295 N 
ATOM     14  H   UNL     1       6.724  -1.245  21.403  0.00  0.00    +0.151 HD
ATOM     15  O   UNL     1       7.814  -3.421  23.398  0.00  0.00    -0.251 OA
BRANCH  13  16
ATOM     16  C   UNL     1       7.792  -0.642  23.160  0.00  0.00    +0.074 C 
ATOM     17  C   UNL     1       6.922   0.579  23.476  0.00  0.00    +0.022 C 
ATOM     18  C   UNL     1       6.855   1.586  22.329  0.00  0.00    +0.005 C 
ATOM     19  C   UNL     1       8.239   2.003  21.816  0.00  0.00    -0.014 C 
ATOM     20  C   UNL     1       8.968   2.903  22.818  0.00  0.00    +0.007 C 
ATOM     21  C   UNL     1       9.069   0.765  21.450  0.00  0.00    +0.005 C 
ATOM     22  C   UNL     1       9.162  -0.250  22.590  0.00  0.00    +0.022 C 
ENDBRANCH  13  16
ENDBRANCH   7  10
ENDBRANCH   4   7
BRANCH   1  23
ATOM     23  C   UNL     1       2.285  -6.391  26.044  0.00  0.00    +0.054 C 
BRANCH  23  24
ATOM     24  C   UNL     1       2.762  -5.796  27.379  0.00  0.00    +0.110 C 
BRANCH  24  30
ATOM     25  C   UNL     1       8.104  -4.000  26.806  0.00  0.00    +0.015 C 
ATOM     26  C   UNL     1       6.869  -4.707  27.202  0.00  0.00    +0.250 C 
ATOM     27  O   UNL     1       6.804  -5.902  27.449  0.00  0.00    -0.270 OA
ATOM     28  N   UNL     1       5.844  -3.772  27.235  0.00  0.00    -0.218 N 
ATOM     29  C   UNL     1       4.485  -4.024  27.208  0.00  0.00    +0.309 C 
ATOM     30  N   UNL     1       4.136  -5.344  27.342  0.00  0.00    -0.299 N 
ATOM     31  H   UNL     1       4.888  -6.022  27.461  0.00  0.00    +0.150 HD
ATOM     32  O   UNL     1       3.653  -3.134  27.043  0.00  0.00    -0.252 OA
ATOM     33  C   UNL     1       6.347  -2.443  27.018  0.00  0.00    +0.149 C 
ATOM     34  C   UNL     1       7.782  -2.703  26.691  0.00  0.00    -0.047 C 
ATOM     35  C   UNL     1       8.660  -1.584  26.249  0.00  0.00    +0.041 C 
BRANCH  25  37
ATOM     36  C   UNL     1       9.264  -5.517  25.205  0.00  0.00    +0.009 C 
ATOM     37  C   UNL     1       9.361  -4.734  26.503  0.00  0.00    +0.037 C 
ENDBRANCH  25  37
ENDBRANCH  24  30
ENDBRANCH  23  24
ENDBRANCH   1  23
TORSDOF 7
ENDMDL
MODEL 2
REMARK VINA RESULT:      -7.4      2.284      3.576
REMARK  Name = 
REMARK  10 active torsions:
REMARK  status: ('A' for Active; 'I' for Inactive)
REMARK    1  A    between atoms: C_1  and  C_2
REMARK    2  A    between atoms: C_2  and  C_3
REMARK    3  A    between atoms: C_4  and  C_5
REMARK    4  A    between atoms: N_10  and  C_11
REMARK    5  A    between atoms: C_11  and  C_12
REMARK    6  A    between atoms: C_12  and  C_13
REMARK    7  A    between atoms: C_16  and  S_19
REMARK    8  A    between atoms: S_19  and  N_22
REMARK    9  A    between atoms: N_25  and  C_26
REMARK   10  A    between atoms: C_29  and  C_30
REMARK                            x       y       z     vdW  Elec       q    Type
REMARK                         _______ _______ _______ _____ _____    ______ ____
ROOT
ATOM      1  C   UNL     1       4.287  -5.072  26.583  0.00  0.00    -0.046 A 
ATOM      2  C   UNL     1       4.130  -4.956  25.192  0.00  0.00    +0.005 A 
ATOM      3  C   UNL     1       5.242  -4.957  24.341  0.00  0.00    +0.029 A 
ATOM      4  C   UNL     1       6.525  -5.106  24.874  0.00  0.00    +0.109 A 
ATOM      5  C   UNL     1       6.696  -5.273  26.248  0.00  0.00    +0.029 A 
ATOM      6  C   UNL     1       5.581  -5.275  27.090  0.00  0.00    +0.005 A 
ENDROOT
BRANCH   4   7
ATOM      7  S   UNL     1       7.957  -4.932  23.833  0.00  0.00    +0.076 S 
ATOM      8  O   UNL     1       7.646  -5.576  22.569  0.00  0.00    -0.150 OA
ATOM      9  O   UNL     1       9.134  -5.317  24.576  0.00  0.00    -0.150 OA
BRANCH   7  10
ATOM     10  N   UNL     1       8.038  -3.309  23.479  0.00  0.00    -0.169 N 
ATOM     11  H   UNL     1       7.130  -2.874  23.391  0.00  0.00    +0.178 HD
ATOM     12  C   UNL     1       9.210  -2.580  23.438  0.00  0.00    +0.319 C 
ATOM     13  N   UNL     1       9.015  -1.266  23.113  0.00  0.00    -0.295 N 
ATOM     14  H   UNL     1       8.134  -0.999  22.704  0.00  0.00    +0.151 HD
ATOM     15  O   UNL     1      10.304  -3.054  23.690  0.00  0.00    -0.251 OA
BRANCH  13  16
ATOM     16  C   UNL     1      10.143  -0.343  23.054  0.00  0.00    +0.074 C 
ATOM     17  C   UNL     1      10.377   0.321  24.414  0.00  0.00    +0.022 C 
ATOM     18  C   UNL     1       9.379   1.436  24.723  0.00  0.00    +0.005 C 
ATOM     19  C   UNL     1       9.280   2.478  23.602  0.00  0.00    -0.014 C 
ATOM     20  C   UNL     1      10.533   3.357  23.532  0.00  0.00    +0.007 C 
ATOM     21  C   UNL     1       8.986   1.793  22.260  0.00  0.00    +0.005 C 
ATOM     22  C   UNL     1       9.982   0.684  21.924  0.00  0.00    +0.022 C 
ENDBRANCH  13  16
ENDBRANCH   7  10
ENDBRANCH   4   7
BRANCH   1  23
ATOM     23  C   UNL     1       3.075  -5.008  27.494  0.00  0.00    +0.054 C 
BRANCH  23  24
ATOM     24  C   UNL     1       2.725  -3.591  27.976  0.00  0.00    +0.110 C 
BRANCH  24  30
ATOM     25  C   UNL     1       5.770   0.682  25.840  0.00  0.00    +0.015 C 
ATOM     26  C   UNL     1       5.129  -0.622  26.108  0.00  0.00    +0.250 C 
ATOM     27  O   UNL     1       4.739  -1.392  25.244  0.00  0.00    -0.270 OA
ATOM     28  N   UNL     1       5.067  -0.782  27.485  0.00  0.00    -0.218 N 
ATOM     29  C   UNL     1       4.258  -1.656  28.187  0.00  0.00    +0.309 C 
ATOM     30  N   UNL     1       3.586  -2.571  27.416  0.00  0.00    -0.299 N 
ATOM     31  H   UNL     1       3.740  -2.545  26.410  0.00  0.00    +0.150 HD
ATOM     32  O   UNL     1       4.125  -1.594  29.407  0.00  0.00    -0.252 OA
ATOM     33  C   UNL     1       5.759   0.281  28.162  0.00  0.00    +0.149 C 
ATOM     34  C   UNL     1       6.112   1.193  27.032  0.00  0.00    -0.047 C 
ATOM     35  C   UNL     1       6.728   2.519  27.310  0.00  0.00    +0.041 C 
BRANCH  25  37
ATOM     36  C   UNL     1       4.820   2.358  24.260  0.00  0.00    +0.009 C 
ATOM     37  C   UNL     1       5.838   1.251  24.468  0.00  0.00    +0.037 C 
ENDBRANCH  25  37
ENDBRANCH  24  30
ENDBRANCH  23  24
ENDBRANCH   1  23
TORSDOF 7
ENDMDL
MODEL 3
REMARK VINA RESULT:      -7.3      2.659      4.572
REMARK  Name = 
REMARK  10 active torsions:
REMARK  status: ('A' for Active; 'I' for Inactive)
REMARK    1  A    between atoms: C_1  and  C_2
REMARK    2  A    between atoms: C_2  and  C_3
REMARK    3  A    between atoms: C_4  and  C_5
REMARK    4  A    between atoms: N_10  and  C_11
REMARK    5  A    between atoms: C_11  and  C_12
REMARK    6  A    between atoms: C_12  and  C_13
REMARK    7  A    between atoms: C_16  and  S_19
REMARK    8  A    between atoms: S_19  and  N_22
REMARK    9  A    between atoms: N_25  and  C_26
REMARK   10  A    between atoms: C_29  and  C_30
REMARK                            x       y       z     vdW  Elec       q    Type
REMARK                         _______ _______ _______ _____ _____    ______ ____
ROOT
ATOM      1  C   UNL     1       3.611  -4.848  27.834  0.00  0.00    -0.046 A 
ATOM      2  C   UNL     1       4.050  -3.999  28.863  0.00  0.00    +0.005 A 
ATOM      3  C   UNL     1       4.099  -2.612  28.676  0.00  0.00    +0.029 A 
ATOM      4  C   UNL     1       3.680  -2.058  27.464  0.00  0.00    +0.109 A 
ATOM      5  C   UNL     1       3.194  -2.883  26.451  0.00  0.00    +0.029 A 
ATOM      6  C   UNL     1       3.144  -4.265  26.645  0.00  0.00    +0.005 A 
ENDROOT
BRANCH   4   7
ATOM      7  S   UNL     1       3.902  -0.322  27.144  0.00  0.00    +0.076 S 
ATOM      8  O   UNL     1       4.595   0.237  28.291  0.00  0.00    -0.150 OA
ATOM      9  O   UNL     1       2.647   0.244  26.705  0.00  0.00    -0.150 OA
BRANCH   7  10
ATOM     10  N   UNL     1       5.002  -0.250  25.900  0.00  0.00    -0.169 N 
ATOM     11  H   UNL     1       5.130  -1.134  25.428  0.00  0.00    +0.178 HD
ATOM     12  C   UNL     1       5.592   0.915  25.450  0.00  0.00    +0.319 C 
ATOM     13  N   UNL     1       6.471   0.711  24.423  0.00  0.00    -0.295 N 
ATOM     14  H   UNL     1       6.798  -0.226  24.251  0.00  0.00    +0.151 HD
ATOM     15  O   UNL     1       5.337   2.016  25.907  0.00  0.00    -0.251 OA
BRANCH  13  16
ATOM     16  C   UNL     1       7.163   1.837  23.806  0.00  0.00    +0.074 C 
ATOM     17  C   UNL     1       7.460   1.554  22.330  0.00  0.00    +0.022 C 
ATOM     18  C   UNL     1       8.644   0.612  22.123  0.00  0.00    +0.005 C 
ATOM     19  C   UNL     1       9.905   1.061  22.871  0.00  0.00    -0.014 C 
ATOM     20  C   UNL     1      10.534   2.302  22.230  0.00  0.00    +0.007 C 
ATOM     21  C   UNL     1       9.595   1.281  24.358  0.00  0.00    +0.005 C 
ATOM     22  C   UNL     1       8.422   2.234  24.589  0.00  0.00    +0.022 C 
ENDBRANCH  13  16
ENDBRANCH   7  10
ENDBRANCH   4   7
BRANCH   1  23
ATOM     23  C   UNL     1       3.622  -6.353  28.034  0.00  0.00    +0.054 C 
BRANCH  23  24
ATOM     24  C   UNL     1       4.973  -7.019  27.724  0.00  0.00    +0.110 C 
BRANCH  24  30
ATOM     25  C   UNL     1       7.635  -4.136  23.639  0.00  0.00    +0.015 C 
ATOM     26  C   UNL     1       6.847  -5.114  24.417  0.00  0.00    +0.250 C 
ATOM     27  O   UNL     1       5.833  -5.663  24.013  0.00  0.00    -0.270 OA
ATOM     28  N   UNL     1       7.471  -5.271  25.646  0.00  0.00    -0.218 N 
ATOM     29  C   UNL     1       6.920  -5.798  26.799  0.00  0.00    +0.309 C 
ATOM     30  N   UNL     1       5.687  -6.379  26.641  0.00  0.00    -0.299 N 
ATOM     31  H   UNL     1       5.287  -6.389  25.704  0.00  0.00    +0.150 HD
ATOM     32  O   UNL     1       7.479  -5.720  27.892  0.00  0.00    -0.252 OA
ATOM     33  C   UNL     1       8.719  -4.559  25.690  0.00  0.00    +0.149 C 
ATOM     34  C   UNL     1       8.699  -3.817  24.392  0.00  0.00    -0.047 C 
ATOM     35  C   UNL     1       9.763  -2.822  24.087  0.00  0.00    +0.041 C 
BRANCH  25  37
ATOM     36  C   UNL     1       6.148  -2.476  22.524  0.00  0.00    +0.009 C 
ATOM     37  C   UNL     1       7.153  -3.601  22.339  0.00  0.00    +0.037 C 
ENDBRANCH  25  37
ENDBRANCH  24  30
ENDBRANCH  23  24
ENDBRANCH   1  23
TORSDOF 7
ENDMDL
MODEL 4
REMARK VINA RESULT:      -7.2      1.331      2.496
REMARK  Name = 
REMARK  10 active torsions:
REMARK  status: ('A' for Active; 'I' for Inactive)
REMARK    1  A    between atoms: C_1  and  C_2
REMARK    2  A    between atoms: C_2  and  C_3
REMARK    3  A    between atoms: C_4  and  C_5
REMARK    4  A    between atoms: N_10  and  C_11
REMARK    5  A    between atoms: C_11  and  C_12
REMARK    6  A    between atoms: C_12  and  C_13
REMARK    7  A    between atoms: C_16  and  S_19
REMARK    8  A    between atoms: S_19  and  N_22
REMARK    9  A    between atoms: N_25  and  C_26
REMARK   10  A    between atoms: C_29  and  C_30
REMARK                            x       y       z     vdW  Elec       q    Type
REMARK                         _______ _______ _______ _____ _____    ______ ____
ROOT
ATOM      1  C   UNL     1       3.380  -5.833  25.121  0.00  0.00    -0.046 A 
ATOM      2  C   UNL     1       3.194  -4.911  24.077  0.00  0.00    +0.005 A 
ATOM      3  C   UNL     1       4.085  -4.860  22.998  0.00  0.00    +0.029 A 
ATOM      4  C   UNL     1       5.156  -5.755  22.937  0.00  0.00    +0.109 A 
ATOM      5  C   UNL     1       5.326  -6.710  23.938  0.00  0.00    +0.029 A 
ATOM      6  C   UNL     1       4.431  -6.758  25.010  0.00  0.00    +0.005 A 
ENDROOT
BRANCH   4   7
ATOM      7  S   UNL     1       6.395  -5.590  21.671  0.00  0.00    +0.076 S 
ATOM      8  O   UNL     1       5.753  -5.898  20.405  0.00  0.00    -0.150 OA
ATOM      9  O   UNL     1       7.585  -6.301  22.076  0.00  0.00    -0.150 OA
BRANCH   7  10
ATOM     10  N   UNL     1       6.724  -3.961  21.600  0.00  0.00    -0.169 N 
ATOM     11  H   UNL     1       6.329  -3.509  20.787  0.00  0.00    +0.178 HD
ATOM     12  C   UNL     1       7.352  -3.251  22.604  0.00  0.00    +0.319 C 
ATOM     13  N   UNL     1       7.518  -1.928  22.304  0.00  0.00    -0.295 N 
ATOM     14  H   UNL     1       7.415  -1.637  21.344  0.00  0.00    +0.151 HD
ATOM     15  O   UNL     1       7.701  -3.749  23.660  0.00  0.00    -0.251 OA
BRANCH  13  16
ATOM     16  C   UNL     1       8.137  -1.022  23.265  0.00  0.00    +0.074 C 
ATOM     17  C   UNL     1       7.507   0.371  23.189  0.00  0.00    +0.022 C 
ATOM     18  C   UNL     1       7.989   1.187  21.991  0.00  0.00    +0.005 C 
ATOM     19  C   UNL     1       9.518   1.259  21.891  0.00  0.00    -0.014 C 
ATOM     20  C   UNL     1      10.116   2.151  22.984  0.00  0.00    +0.007 C 
ATOM     21  C   UNL     1      10.121  -0.151  21.911  0.00  0.00    +0.005 C 
ATOM     22  C   UNL     1       9.664  -0.981  23.111  0.00  0.00    +0.022 C 
ENDBRANCH  13  16
ENDBRANCH   7  10
ENDBRANCH   4   7
BRANCH   1  23
ATOM     23  C   UNL     1       2.440  -5.833  26.313  0.00  0.00    +0.054 C 
BRANCH  23  24
ATOM     24  C   UNL     1       2.966  -5.053  27.528  0.00  0.00    +0.110 C 
BRANCH  24  30
ATOM     25  C   UNL     1       6.065  -0.419  26.525  0.00  0.00    +0.015 C 
ATOM     26  C   UNL     1       5.046  -1.489  26.505  0.00  0.00    +0.250 C 
ATOM     27  O   UNL     1       3.857  -1.309  26.289  0.00  0.00    -0.270 OA
ATOM     28  N   UNL     1       5.694  -2.688  26.769  0.00  0.00    -0.218 N 
ATOM     29  C   UNL     1       5.116  -3.872  27.188  0.00  0.00    +0.309 C 
ATOM     30  N   UNL     1       3.745  -3.890  27.164  0.00  0.00    -0.299 N 
ATOM     31  H   UNL     1       3.267  -3.053  26.834  0.00  0.00    +0.150 HD
ATOM     32  O   UNL     1       5.783  -4.825  27.586  0.00  0.00    -0.252 OA
ATOM     33  C   UNL     1       7.118  -2.506  26.827  0.00  0.00    +0.149 C 
ATOM     34  C   UNL     1       7.248  -1.021  26.726  0.00  0.00    -0.047 C 
ATOM     35  C   UNL     1       8.579  -0.375  26.891  0.00  0.00    +0.041 C 
BRANCH  25  37
ATOM     36  C   UNL     1       5.233   1.555  27.797  0.00  0.00    +0.009 C 
ATOM     37  C   UNL     1       5.690   1.017  26.452  0.00  0.00    +0.037 C 
ENDBRANCH  25  37
ENDBRANCH  24  30
ENDBRANCH  23  24
ENDBRANCH   1  23
TORSDOF 7
ENDMDL
MODEL 5
REMARK VINA RESULT:      -7.2      3.412      8.534
REMARK  Name = 
REMARK  10 active torsions:
REMARK  status: ('A' for Active; 'I' for Inactive)
REMARK    1  A    between atoms: C_1  and  C_2
REMARK    2  A    between atoms: C_2  and  C_3
REMARK    3  A    between atoms: C_4  and  C_5
REMARK    4  A    between atoms: N_10  and  C_11
REMARK    5  A    between atoms: C_11  and  C_12
REMARK    6  A    between atoms: C_12  and  C_13
REMARK    7  A    between atoms: C_16  and  S_19
REMARK    8  A    between atoms: S_19  and  N_22
REMARK    9  A    between atoms: N_25  and  C_26
REMARK   10  A    between atoms: C_29  and  C_30
REMARK                            x       y       z     vdW  Elec       q    Type
REMARK                         _______ _______ _______ _____ _____    ______ ____
ROOT
ATOM      1  C   UNL     1       9.370  -0.384  22.335  0.00  0.00    -0.046 A 
ATOM      2  C   UNL     1      10.004  -0.387  23.589  0.00  0.00    +0.005 A 
ATOM      3  C   UNL     1       9.886  -1.485  24.450  0.00  0.00    +0.029 A 
ATOM      4  C   UNL     1       9.156  -2.607  24.050  0.00  0.00    +0.109 A 
ATOM      5  C   UNL     1       8.563  -2.642  22.788  0.00  0.00    +0.029 A 
ATOM      6  C   UNL     1       8.688  -1.544  21.933  0.00  0.00    +0.005 A 
ENDROOT
BRANCH   4   7
ATOM      7  S   UNL     1       8.847  -3.933  25.195  0.00  0.00    +0.076 S 
ATOM      8  O   UNL     1       8.746  -3.340  26.516  0.00  0.00    -0.150 OA
ATOM      9  O   UNL     1       9.786  -5.003  24.946  0.00  0.00    -0.150 OA
BRANCH   7  10
ATOM     10  N   UNL     1       7.309  -4.459  24.841  0.00  0.00    -0.169 N 
ATOM     11  H   UNL     1       6.953  -4.093  23.969  0.00  0.00    +0.178 HD
ATOM     12  C   UNL     1       6.623  -5.405  25.577  0.00  0.00    +0.319 C 
ATOM     13  N   UNL     1       5.371  -5.660  25.090  0.00  0.00    -0.295 N 
ATOM     14  H   UNL     1       4.968  -5.006  24.437  0.00  0.00    +0.151 HD
ATOM     15  O   UNL     1       7.094  -5.971  26.547  0.00  0.00    -0.251 OA
BRANCH  13  16
ATOM     16  C   UNL     1       4.517  -6.655  25.729  0.00  0.00    +0.074 C 
ATOM     17  C   UNL     1       3.714  -7.437  24.685  0.00  0.00    +0.022 C 
ATOM     18  C   UNL     1       2.523  -6.656  24.130  0.00  0.00    +0.005 C 
ATOM     19  C   UNL     1       1.613  -6.091  25.228  0.00  0.00    -0.014 C 
ATOM     20  C   UNL     1       0.811  -7.196  25.923  0.00  0.00    +0.007 C 
ATOM     21  C   UNL     1       2.432  -5.264  26.228  0.00  0.00    +0.005 C 
ATOM     22  C   UNL     1       3.621  -6.031  26.808  0.00  0.00    +0.022 C 
ENDBRANCH  13  16
ENDBRANCH   7  10
ENDBRANCH   4   7
BRANCH   1  23
ATOM     23  C   UNL     1       9.458   0.839  21.440  0.00  0.00    +0.054 C 
BRANCH  23  24
ATOM     24  C   UNL     1       8.276   1.810  21.585  0.00  0.00    +0.110 C 
BRANCH  24  30
ATOM     25  C   UNL     1       8.476   5.568  25.820  0.00  0.00    +0.015 C 
ATOM     26  C   UNL     1       8.790   4.677  24.683  0.00  0.00    +0.250 C 
ATOM     27  O   UNL     1       9.561   4.955  23.778  0.00  0.00    -0.270 OA
ATOM     28  N   UNL     1       8.058   3.510  24.853  0.00  0.00    -0.218 N 
ATOM     29  C   UNL     1       7.765   2.563  23.889  0.00  0.00    +0.309 C 
ATOM     30  N   UNL     1       8.423   2.725  22.697  0.00  0.00    -0.299 N 
ATOM     31  H   UNL     1       9.072   3.506  22.618  0.00  0.00    +0.150 HD
ATOM     32  O   UNL     1       6.949   1.662  24.077  0.00  0.00    -0.252 OA
ATOM     33  C   UNL     1       7.372   3.506  26.117  0.00  0.00    +0.149 C 
ATOM     34  C   UNL     1       7.648   4.884  26.625  0.00  0.00    -0.047 C 
ATOM     35  C   UNL     1       6.991   5.364  27.872  0.00  0.00    +0.041 C 
BRANCH  25  37
ATOM     36  C   UNL     1      10.262   7.108  26.623  0.00  0.00    +0.009 C 
ATOM     37  C   UNL     1       8.954   6.975  25.864  0.00  0.00    +0.037 C 
ENDBRANCH  25  37
ENDBRANCH  24  30
ENDBRANCH  23  24
ENDBRANCH   1  23
TORSDOF 7
ENDMDL
MODEL 6
REMARK VINA RESULT:      -7.2      3.480      8.933
REMARK  Name = 
REMARK  10 active torsions:
REMARK  status: ('A' for Active; 'I' for Inactive)
REMARK    1  A    between atoms: C_1  and  C_2
REMARK    2  A    between atoms: C_2  and  C_3
REMARK    3  A    between atoms: C_4  and  C_5
REMARK    4  A    between atoms: N_10  and  C_11
REMARK    5  A    between atoms: C_11  and  C_12
REMARK    6  A    between atoms: C_12  and  C_13
REMARK    7  A    between atoms: C_16  and  S_19
REMARK    8  A    between atoms: S_19  and  N_22
REMARK    9  A    between atoms: N_25  and  C_26
REMARK   10  A    between atoms: C_29  and  C_30
REMARK                            x       y       z     vdW  Elec       q    Type
REMARK                         _______ _______ _______ _____ _____    ______ ____
ROOT
ATOM      1  C   UNL     1       9.218  -0.324  22.330  0.00  0.00    -0.046 A 
ATOM      2  C   UNL     1      10.314  -1.154  22.619  0.00  0.00    +0.005 A 
ATOM      3  C   UNL     1      10.165  -2.276  23.444  0.00  0.00    +0.029 A 
ATOM      4  C   UNL     1       8.909  -2.596  23.965  0.00  0.00    +0.109 A 
ATOM      5  C   UNL     1       7.801  -1.811  23.647  0.00  0.00    +0.029 A 
ATOM      6  C   UNL     1       7.955  -0.695  22.820  0.00  0.00    +0.005 A 
ENDROOT
BRANCH   4   7
ATOM      7  S   UNL     1       8.735  -3.908  25.154  0.00  0.00    +0.076 S 
ATOM      8  O   UNL     1       8.739  -3.294  26.469  0.00  0.00    -0.150 OA
ATOM      9  O   UNL     1       9.674  -4.960  24.838  0.00  0.00    -0.150 OA
BRANCH   7  10
ATOM     10  N   UNL     1       7.185  -4.473  24.949  0.00  0.00    -0.169 N 
ATOM     11  H   UNL     1       6.731  -4.105  24.125  0.00  0.00    +0.178 HD
ATOM     12  C   UNL     1       6.604  -5.450  25.734  0.00  0.00    +0.319 C 
ATOM     13  N   UNL     1       5.316  -5.735  25.373  0.00  0.00    -0.295 N 
ATOM     14  H   UNL     1       4.831  -5.083  24.776  0.00  0.00    +0.151 HD
ATOM     15  O   UNL     1       7.188  -6.017  26.640  0.00  0.00    -0.251 OA
BRANCH  13  16
ATOM     16  C   UNL     1       4.560  -6.764  26.076  0.00  0.00    +0.074 C 
ATOM     17  C   UNL     1       3.636  -7.517  25.115  0.00  0.00    +0.022 C 
ATOM     18  C   UNL     1       2.377  -6.732  24.749  0.00  0.00    +0.005 C 
ATOM     19  C   UNL     1       1.612  -6.221  25.976  0.00  0.00    -0.014 C 
ATOM     20  C   UNL     1       0.915  -7.362  26.725  0.00  0.00    +0.007 C 
ATOM     21  C   UNL     1       2.546  -5.421  26.894  0.00  0.00    +0.005 C 
ATOM     22  C   UNL     1       3.806  -6.194  27.285  0.00  0.00    +0.022 C 
ENDBRANCH  13  16
ENDBRANCH   7  10
ENDBRANCH   4   7
BRANCH   1  23
ATOM     23  C   UNL     1       9.410   0.922  21.484  0.00  0.00    +0.054 C 
BRANCH  23  24
ATOM     24  C   UNL     1      10.066   2.094  22.231  0.00  0.00    +0.110 C 
BRANCH  24  30
ATOM     25  C   UNL     1       6.067   5.790  23.792  0.00  0.00    +0.015 C 
ATOM     26  C   UNL     1       7.209   5.106  23.152  0.00  0.00    +0.250 C 
ATOM     27  O   UNL     1       7.509   5.216  21.973  0.00  0.00    -0.270 OA
ATOM     28  N   UNL     1       7.842   4.347  24.126  0.00  0.00    -0.218 N 
ATOM     29  C   UNL     1       8.717   3.295  23.926  0.00  0.00    +0.309 C 
ATOM     30  N   UNL     1       9.122   3.117  22.628  0.00  0.00    -0.299 N 
ATOM     31  H   UNL     1       8.765   3.765  21.928  0.00  0.00    +0.150 HD
ATOM     32  O   UNL     1       9.077   2.555  24.839  0.00  0.00    -0.252 OA
ATOM     33  C   UNL     1       7.274   4.591  25.424  0.00  0.00    +0.149 C 
ATOM     34  C   UNL     1       6.111   5.470  25.095  0.00  0.00    -0.047 C 
ATOM     35  C   UNL     1       5.141   5.853  26.158  0.00  0.00    +0.041 C 
BRANCH  25  37
ATOM     36  C   UNL     1       3.877   5.689  22.608  0.00  0.00    +0.009 C 
ATOM     37  C   UNL     1       5.066   6.550  22.998  0.00  0.00    +0.037 C 
ENDBRANCH  25  37
ENDBRANCH  24  30
ENDBRANCH  23  24
ENDBRANCH   1  23
TORSDOF 7
ENDMDL
MODEL 7
REMARK VINA RESULT:      -7.1      2.943      7.784
REMARK  Name = 
REMARK  10 active torsions:
REMARK  status: ('A' for Active; 'I' for Inactive)
REMARK    1  A    between atoms: C_1  and  C_2
REMARK    2  A    between atoms: C_2  and  C_3
REMARK    3  A    between atoms: C_4  and  C_5
REMARK    4  A    between atoms: N_10  and  C_11
REMARK    5  A    between atoms: C_11  and  C_12
REMARK    6  A    between atoms: C_12  and  C_13
REMARK    7  A    between atoms: C_16  and  S_19
REMARK    8  A    between atoms: S_19  and  N_22
REMARK    9  A    between atoms: N_25  and  C_26
REMARK   10  A    between atoms: C_29  and  C_30
REMARK                            x       y       z     vdW  Elec       q    Type
REMARK                         _______ _______ _______ _____ _____    ______ ____
ROOT
ATOM      1  C   UNL     1       7.701   1.953  22.957  0.00  0.00    -0.046 A 
ATOM      2  C   UNL     1       6.308   1.849  23.109  0.00  0.00    +0.005 A 
ATOM      3  C   UNL     1       5.720   1.892  24.379  0.00  0.00    +0.029 A 
ATOM      4  C   UNL     1       6.521   2.071  25.511  0.00  0.00    +0.109 A 
ATOM      5  C   UNL     1       7.899   2.226  25.373  0.00  0.00    +0.029 A 
ATOM      6  C   UNL     1       8.479   2.186  24.103  0.00  0.00    +0.005 A 
ENDROOT
BRANCH   4   7
ATOM      7  S   UNL     1       5.815   1.950  27.139  0.00  0.00    +0.076 S 
ATOM      8  O   UNL     1       4.390   2.194  27.005  0.00  0.00    -0.150 OA
ATOM      9  O   UNL     1       6.605   2.737  28.058  0.00  0.00    -0.150 OA
BRANCH   7  10
ATOM     10  N   UNL     1       5.939   0.342  27.545  0.00  0.00    -0.169 N 
ATOM     11  H   UNL     1       6.614   0.165  28.275  0.00  0.00    +0.178 HD
ATOM     12  C   UNL     1       5.118  -0.651  27.046  0.00  0.00    +0.319 C 
ATOM     13  N   UNL     1       5.428  -1.894  27.522  0.00  0.00    -0.295 N 
ATOM     14  H   UNL     1       6.323  -2.029  27.966  0.00  0.00    +0.151 HD
ATOM     15  O   UNL     1       4.198  -0.437  26.277  0.00  0.00    -0.251 OA
BRANCH  13  16
ATOM     16  C   UNL     1       4.643  -3.057  27.123  0.00  0.00    +0.074 C 
ATOM     17  C   UNL     1       3.862  -3.624  28.312  0.00  0.00    +0.022 C 
ATOM     18  C   UNL     1       4.728  -4.440  29.270  0.00  0.00    +0.005 C 
ATOM     19  C   UNL     1       5.539  -5.532  28.562  0.00  0.00    -0.014 C 
ATOM     20  C   UNL     1       4.647  -6.682  28.085  0.00  0.00    +0.007 C 
ATOM     21  C   UNL     1       6.358  -4.929  27.413  0.00  0.00    +0.005 C 
ATOM     22  C   UNL     1       5.508  -4.120  26.432  0.00  0.00    +0.022 C 
ENDBRANCH  13  16
ENDBRANCH   7  10
ENDBRANCH   4   7
BRANCH   1  23
ATOM     23  C   UNL     1       8.326   1.843  21.578  0.00  0.00    +0.054 C 
BRANCH  23  24
ATOM     24  C   UNL     1       9.300   0.664  21.421  0.00  0.00    +0.110 C 
BRANCH  24  30
ATOM     25  C   UNL     1       7.682  -4.335  23.537  0.00  0.00    +0.015 C 
ATOM     26  C   UNL     1       7.733  -2.962  22.994  0.00  0.00    +0.250 C 
ATOM     27  O   UNL     1       6.899  -2.485  22.240  0.00  0.00    -0.270 OA
ATOM     28  N   UNL     1       8.874  -2.355  23.499  0.00  0.00    -0.218 N 
ATOM     29  C   UNL     1       9.506  -1.228  23.006  0.00  0.00    +0.309 C 
ATOM     30  N   UNL     1       8.817  -0.558  22.027  0.00  0.00    -0.299 N 
ATOM     31  H   UNL     1       7.908  -0.926  21.752  0.00  0.00    +0.150 HD
ATOM     32  O   UNL     1      10.617  -0.874  23.394  0.00  0.00    -0.252 OA
ATOM     33  C   UNL     1       9.525  -3.196  24.466  0.00  0.00    +0.149 C 
ATOM     34  C   UNL     1       8.728  -4.457  24.369  0.00  0.00    -0.047 C 
ATOM     35  C   UNL     1       9.158  -5.670  25.116  0.00  0.00    +0.041 C 
BRANCH  25  37
ATOM     36  C   UNL     1       7.096  -5.972  21.751  0.00  0.00    +0.009 C 
ATOM     37  C   UNL     1       6.681  -5.326  23.062  0.00  0.00    +0.037 C 
ENDBRANCH  25  37
ENDBRANCH  24  30
ENDBRANCH  23  24
ENDBRANCH   1  23
TORSDOF 7
ENDMDL
MODEL 8
REMARK VINA RESULT:      -7.0      2.242      3.328
REMARK  Name = 
REMARK  10 active torsions:
REMARK  status: ('A' for Active; 'I' for Inactive)
REMARK    1  A    between atoms: C_1  and  C_2
REMARK    2  A    between atoms: C_2  and  C_3
REMARK    3  A    between atoms: C_4  and  C_5
REMARK    4  A    between atoms: N_10  and  C_11
REMARK    5  A    between atoms: C_11  and  C_12
REMARK    6  A    between atoms: C_12  and  C_13
REMARK    7  A    between atoms: C_16  and  S_19
REMARK    8  A    between atoms: S_19  and  N_22
REMARK    9  A    between atoms: N_25  and  C_26
REMARK   10  A    between atoms: C_29  and  C_30
REMARK                            x       y       z     vdW  Elec       q    Type
REMARK                         _______ _______ _______ _____ _____    ______ ____
ROOT
ATOM      1  C   UNL     1       5.510  -6.141  26.350  0.00  0.00    -0.046 A 
ATOM      2  C   UNL     1       6.754  -5.532  26.117  0.00  0.00    +0.005 A 
ATOM      3  C   UNL     1       7.092  -5.055  24.845  0.00  0.00    +0.029 A 
ATOM      4  C   UNL     1       6.174  -5.157  23.797  0.00  0.00    +0.109 A 
ATOM      5  C   UNL     1       4.916  -5.714  24.022  0.00  0.00    +0.029 A 
ATOM      6  C   UNL     1       4.583  -6.184  25.295  0.00  0.00    +0.005 A 
ENDROOT
BRANCH   4   7
ATOM      7  S   UNL     1       6.650  -4.722  22.139  0.00  0.00    +0.076 S 
ATOM      8  O   UNL     1       5.466  -4.202  21.478  0.00  0.00    -0.150 OA
ATOM      9  O   UNL     1       7.388  -5.818  21.554  0.00  0.00    -0.150 OA
BRANCH   7  10
ATOM     10  N   UNL     1       7.658  -3.410  22.310  0.00  0.00    -0.169 N 
ATOM     11  H   UNL     1       8.576  -3.557  21.915  0.00  0.00    +0.178 HD
ATOM     12  C   UNL     1       7.261  -2.186  22.813  0.00  0.00    +0.319 C 
ATOM     13  N   UNL     1       8.276  -1.271  22.864  0.00  0.00    -0.295 N 
ATOM     14  H   UNL     1       9.224  -1.603  22.783  0.00  0.00    +0.151 HD
ATOM     15  O   UNL     1       6.117  -1.940  23.154  0.00  0.00    -0.251 OA
BRANCH  13  16
ATOM     16  C   UNL     1       8.027   0.084  23.341  0.00  0.00    +0.074 C 
ATOM     17  C   UNL     1       8.197   1.102  22.210  0.00  0.00    +0.022 C 
ATOM     18  C   UNL     1       9.658   1.402  21.880  0.00  0.00    +0.005 C 
ATOM     19  C   UNL     1      10.482   1.794  23.113  0.00  0.00    -0.014 C 
ATOM     20  C   UNL     1      10.110   3.190  23.623  0.00  0.00    +0.007 C 
ATOM     21  C   UNL     1      10.342   0.730  24.210  0.00  0.00    +0.005 C 
ATOM     22  C   UNL     1       8.887   0.425  24.567  0.00  0.00    +0.022 C 
ENDBRANCH  13  16
ENDBRANCH   7  10
ENDBRANCH   4   7
BRANCH   1  23
ATOM     23  C   UNL     1       5.184  -6.707  27.721  0.00  0.00    +0.054 C 
BRANCH  23  24
ATOM     24  C   UNL     1       4.265  -5.812  28.567  0.00  0.00    +0.110 C 
BRANCH  24  30
ATOM     25  C   UNL     1       4.405  -0.402  26.892  0.00  0.00    +0.015 C 
ATOM     26  C   UNL     1       4.737  -1.754  27.390  0.00  0.00    +0.250 C 
ATOM     27  O   UNL     1       5.782  -2.340  27.155  0.00  0.00    -0.270 OA
ATOM     28  N   UNL     1       3.660  -2.197  28.146  0.00  0.00    -0.218 N 
ATOM     29  C   UNL     1       3.376  -3.501  28.505  0.00  0.00    +0.309 C 
ATOM     30  N   UNL     1       4.365  -4.409  28.226  0.00  0.00    -0.299 N 
ATOM     31  H   UNL     1       5.219  -4.060  27.796  0.00  0.00    +0.150 HD
ATOM     32  O   UNL     1       2.301  -3.826  29.007  0.00  0.00    -0.252 OA
ATOM     33  C   UNL     1       2.676  -1.161  28.303  0.00  0.00    +0.149 C 
ATOM     34  C   UNL     1       3.211  -0.085  27.415  0.00  0.00    -0.047 C 
ATOM     35  C   UNL     1       2.408   1.144  27.167  0.00  0.00    +0.041 C 
BRANCH  25  37
ATOM     36  C   UNL     1       6.033   1.449  26.530  0.00  0.00    +0.009 C 
ATOM     37  C   UNL     1       5.265   0.298  25.903  0.00  0.00    +0.037 C 
ENDBRANCH  25  37
ENDBRANCH  24  30
ENDBRANCH  23  24
ENDBRANCH   1  23
TORSDOF 7
ENDMDL
MODEL 9
REMARK VINA RESULT:      -7.0      3.173      7.961
REMARK  Name = 
REMARK  10 active torsions:
REMARK  status: ('A' for Active; 'I' for Inactive)
REMARK    1  A    between atoms: C_1  and  C_2
REMARK    2  A    between atoms: C_2  and  C_3
REMARK    3  A    between atoms: C_4  and  C_5
REMARK    4  A    between atoms: N_10  and  C_11
REMARK    5  A    between atoms: C_11  and  C_12
REMARK    6  A    between atoms: C_12  and  C_13
REMARK    7  A    between atoms: C_16  and  S_19
REMARK    8  A    between atoms: S_19  and  N_22
REMARK    9  A    between atoms: N_25  and  C_26
REMARK   10  A    between atoms: C_29  and  C_30
REMARK                            x       y       z     vdW  Elec       q    Type
REMARK                         _______ _______ _______ _____ _____    ______ ____
ROOT
ATOM      1  C   UNL     1       8.267   3.378  24.284  0.00  0.00    -0.046 A 
ATOM      2  C   UNL     1       7.189   2.879  23.533  0.00  0.00    +0.005 A 
ATOM      3  C   UNL     1       6.090   2.283  24.164  0.00  0.00    +0.029 A 
ATOM      4  C   UNL     1       6.045   2.206  25.558  0.00  0.00    +0.109 A 
ATOM      5  C   UNL     1       7.083   2.741  26.321  0.00  0.00    +0.029 A 
ATOM      6  C   UNL     1       8.174   3.339  25.685  0.00  0.00    +0.005 A 
ENDROOT
BRANCH   4   7
ATOM      7  S   UNL     1       4.748   1.296  26.367  0.00  0.00    +0.076 S 
ATOM      8  O   UNL     1       3.522   1.563  25.637  0.00  0.00    -0.150 OA
ATOM      9  O   UNL     1       4.816   1.538  27.790  0.00  0.00    -0.150 OA
BRANCH   7  10
ATOM     10  N   UNL     1       5.090  -0.303  26.064  0.00  0.00    -0.169 N 
ATOM     11  H   UNL     1       6.052  -0.463  25.804  0.00  0.00    +0.178 HD
ATOM     12  C   UNL     1       4.201  -1.340  26.272  0.00  0.00    +0.319 C 
ATOM     13  N   UNL     1       4.714  -2.562  25.937  0.00  0.00    -0.295 N 
ATOM     14  H   UNL     1       5.542  -2.594  25.363  0.00  0.00    +0.151 HD
ATOM     15  O   UNL     1       3.083  -1.184  26.730  0.00  0.00    -0.251 OA
BRANCH  13  16
ATOM     16  C   UNL     1       3.922  -3.773  26.121  0.00  0.00    +0.074 C 
ATOM     17  C   UNL     1       4.779  -4.904  26.697  0.00  0.00    +0.022 C 
ATOM     18  C   UNL     1       5.688  -5.562  25.659  0.00  0.00    +0.005 C 
ATOM     19  C   UNL     1       4.933  -6.015  24.404  0.00  0.00    -0.014 C 
ATOM     20  C   UNL     1       4.048  -7.235  24.683  0.00  0.00    +0.007 C 
ATOM     21  C   UNL     1       4.129  -4.849  23.812  0.00  0.00    +0.005 C 
ATOM     22  C   UNL     1       3.201  -4.186  24.830  0.00  0.00    +0.022 C 
ENDBRANCH  13  16
ENDBRANCH   7  10
ENDBRANCH   4   7
BRANCH   1  23
ATOM     23  C   UNL     1       9.477   3.966  23.581  0.00  0.00    +0.054 C 
BRANCH  23  24
ATOM     24  C   UNL     1      10.605   2.956  23.321  0.00  0.00    +0.110 C 
BRANCH  24  30
ATOM     25  C   UNL     1       8.770  -2.249  24.594  0.00  0.00    +0.015 C 
ATOM     26  C   UNL     1       9.482  -0.955  24.553  0.00  0.00    +0.250 C 
ATOM     27  O   UNL     1       9.863  -0.343  25.538  0.00  0.00    -0.270 OA
ATOM     28  N   UNL     1       9.622  -0.599  23.219  0.00  0.00    -0.218 N 
ATOM     29  C   UNL     1       9.900   0.660  22.718  0.00  0.00    +0.309 C 
ATOM     30  N   UNL     1      10.242   1.597  23.659  0.00  0.00    -0.299 N 
ATOM     31  H   UNL     1      10.276   1.299  24.632  0.00  0.00    +0.150 HD
ATOM     32  O   UNL     1       9.814   0.926  21.520  0.00  0.00    -0.252 OA
ATOM     33  C   UNL     1       9.168  -1.650  22.350  0.00  0.00    +0.149 C 
ATOM     34  C   UNL     1       8.585  -2.626  23.320  0.00  0.00    -0.047 C 
ATOM     35  C   UNL     1       7.857  -3.826  22.823  0.00  0.00    +0.041 C 
BRANCH  25  37
ATOM     36  C   UNL     1       9.056  -4.105  26.232  0.00  0.00    +0.009 C 
ATOM     37  C   UNL     1       8.297  -2.839  25.874  0.00  0.00    +0.037 C 
ENDBRANCH  25  37
ENDBRANCH  24  30
ENDBRANCH  23  24
ENDBRANCH   1  23
TORSDOF 7
ENDMDL
