MODEL 1
REMARK VINA RESULT:      -7.7      0.000      0.000
REMARK  Name = 
REMARK  2 active torsions:
REMARK  status: ('A' for Active; 'I' for Inactive)
REMARK    1  A    between atoms: C_11  and  N_12
REMARK    2  A    between atoms: N_15  and  C_16
REMARK                            x       y       z     vdW  Elec       q    Type
REMARK                         _______ _______ _______ _____ _____    ______ ____
ROOT
ATOM      1  C   UNL     1       6.589  -4.616  23.298  0.00  0.00    +0.109 C 
ATOM      2  C   UNL     1       7.171  -4.778  24.661  0.00  0.00    +0.006 A 
ATOM      3  C   UNL     1       8.313  -4.248  25.238  0.00  0.00    +0.040 A 
ATOM      4  C   UNL     1       8.542  -4.500  26.603  0.00  0.00    +0.024 A 
ATOM      5  C   UNL     1       7.644  -5.269  27.370  0.00  0.00    +0.003 A 
ATOM      6  C   UNL     1       6.485  -5.779  26.793  0.00  0.00    +0.013 A 
ATOM      7  C   UNL     1       6.271  -5.503  25.455  0.00  0.00    +0.044 A 
ATOM      8  C   UNL     1       5.119  -5.882  24.630  0.00  0.00    +0.247 C 
ATOM      9  O   UNL     1       4.250  -6.666  24.960  0.00  0.00    -0.270 OA
ATOM     10  N   UNL     1       5.286  -5.241  23.418  0.00  0.00    -0.290 N 
ATOM     11  C   UNL     1       4.819  -5.777  22.170  0.00  0.00    +0.109 C 
ATOM     12  C   UNL     1       6.109  -6.141  21.440  0.00  0.00    +0.021 C 
ATOM     13  C   UNL     1       7.246  -5.380  22.152  0.00  0.00    +0.029 C 
ENDROOT
BRANCH   3  14
ATOM     14  N   UNL     1       9.246  -3.493  24.494  0.00  0.00    -0.269 N 
ATOM     15  H   UNL     1       9.660  -3.925  23.680  0.00  0.00    +0.156 HD
ATOM     16  C   UNL     1       9.079  -2.122  24.334  0.00  0.00    +0.309 C 
ATOM     17  N   UNL     1      10.201  -1.541  23.779  0.00  0.00    -0.254 N 
ATOM     18  H   UNL     1      11.068  -1.824  24.212  0.00  0.00    +0.158 HD
ATOM     19  O   UNL     1       8.054  -1.519  24.633  0.00  0.00    -0.252 OA
BRANCH  17  20
ATOM     20  C   UNL     1      10.223  -0.188  23.411  0.00  0.00    +0.126 A 
ATOM     21  N   UNL     1      10.700   0.657  24.346  0.00  0.00    -0.240 NA
ATOM     22  C   UNL     1      10.702   1.974  24.034  0.00  0.00    +0.113 A 
ATOM     23  C   UNL     1      10.324   2.480  22.800  0.00  0.00    +0.020 A 
ATOM     24  C   UNL     1       9.900   1.582  21.830  0.00  0.00    +0.005 A 
ATOM     25  C   UNL     1       9.830   0.227  22.142  0.00  0.00    +0.044 A 
ENDBRANCH  17  20
ENDBRANCH   3  14
TORSDOF 2
ENDMDL
MODEL 2
REMARK VINA RESULT:      -7.4      1.315      3.029
REMARK  Name = 
REMARK  2 active torsions:
REMARK  status: ('A' for Active; 'I' for Inactive)
REMARK    1  A    between atoms: C_11  and  N_12
REMARK    2  A    between atoms: N_15  and  C_16
REMARK                            x       y       z     vdW  Elec       q    Type
REMARK                         _______ _______ _______ _____ _____    ______ ____
ROOT
ATOM      1  C   UNL     1       6.992  -4.743  25.710  0.00  0.00    +0.109 C 
ATOM      2  C   UNL     1       6.740  -4.917  24.251  0.00  0.00    +0.006 A 
ATOM      3  C   UNL     1       7.437  -4.467  23.142  0.00  0.00    +0.040 A 
ATOM      4  C   UNL     1       7.008  -4.896  21.873  0.00  0.00    +0.024 A 
ATOM      5  C   UNL     1       5.901  -5.755  21.722  0.00  0.00    +0.003 A 
ATOM      6  C   UNL     1       5.218  -6.225  22.840  0.00  0.00    +0.013 A 
ATOM      7  C   UNL     1       5.670  -5.806  24.077  0.00  0.00    +0.044 A 
ATOM      8  C   UNL     1       5.158  -6.185  25.399  0.00  0.00    +0.247 C 
ATOM      9  O   UNL     1       4.126  -6.795  25.601  0.00  0.00    -0.270 OA
ATOM     10  N   UNL     1       6.033  -5.644  26.320  0.00  0.00    -0.290 N 
ATOM     11  C   UNL     1       5.632  -5.211  27.630  0.00  0.00    +0.109 C 
ATOM     12  C   UNL     1       5.763  -3.693  27.553  0.00  0.00    +0.021 C 
ATOM     13  C   UNL     1       6.653  -3.390  26.331  0.00  0.00    +0.029 C 
ENDROOT
BRANCH   3  14
ATOM     14  N   UNL     1       8.536  -3.587  23.254  0.00  0.00    -0.269 N 
ATOM     15  H   UNL     1       9.419  -3.885  22.866  0.00  0.00    +0.156 HD
ATOM     16  C   UNL     1       8.353  -2.213  23.154  0.00  0.00    +0.309 C 
ATOM     17  N   UNL     1       9.496  -1.527  23.514  0.00  0.00    -0.254 N 
ATOM     18  H   UNL     1       9.912  -1.847  24.377  0.00  0.00    +0.158 HD
ATOM     19  O   UNL     1       7.314  -1.687  22.773  0.00  0.00    -0.252 OA
BRANCH  17  20
ATOM     20  C   UNL     1       9.592  -0.135  23.377  0.00  0.00    +0.126 A 
ATOM     21  N   UNL     1       9.374   0.573  24.504  0.00  0.00    -0.240 NA
ATOM     22  C   UNL     1       9.426   1.921  24.397  0.00  0.00    +0.113 A 
ATOM     23  C   UNL     1       9.765   2.595  23.234  0.00  0.00    +0.020 A 
ATOM     24  C   UNL     1      10.051   1.841  22.104  0.00  0.00    +0.005 A 
ATOM     25  C   UNL     1       9.947   0.454  22.168  0.00  0.00    +0.044 A 
ENDBRANCH  17  20
ENDBRANCH   3  14
TORSDOF 2
ENDMDL
MODEL 3
REMARK VINA RESULT:      -7.1      2.244      3.410
REMARK  Name = 
REMARK  2 active torsions:
REMARK  status: ('A' for Active; 'I' for Inactive)
REMARK    1  A    between atoms: C_11  and  N_12
REMARK    2  A    between atoms: N_15  and  C_16
REMARK                            x       y       z     vdW  Elec       q    Type
REMARK                         _______ _______ _______ _____ _____    ______ ____
ROOT
ATOM      1  C   UNL     1       4.982  -4.000  24.956  0.00  0.00    +0.109 C 
ATOM      2  C   UNL     1       5.380  -4.296  23.550  0.00  0.00    +0.006 A 
ATOM      3  C   UNL     1       5.884  -3.480  22.550  0.00  0.00    +0.040 A 
ATOM      4  C   UNL     1       6.276  -4.082  21.341  0.00  0.00    +0.024 A 
ATOM      5  C   UNL     1       6.160  -5.472  21.139  0.00  0.00    +0.003 A 
ATOM      6  C   UNL     1       5.676  -6.292  22.154  0.00  0.00    +0.013 A 
ATOM      7  C   UNL     1       5.316  -5.680  23.341  0.00  0.00    +0.044 A 
ATOM      8  C   UNL     1       4.823  -6.316  24.568  0.00  0.00    +0.247 C 
ATOM      9  O   UNL     1       4.481  -7.478  24.665  0.00  0.00    -0.270 OA
ATOM     10  N   UNL     1       4.761  -5.317  25.520  0.00  0.00    -0.290 N 
ATOM     11  C   UNL     1       3.797  -5.301  26.586  0.00  0.00    +0.109 C 
ATOM     12  C   UNL     1       2.883  -4.137  26.214  0.00  0.00    +0.021 C 
ATOM     13  C   UNL     1       3.651  -3.288  25.181  0.00  0.00    +0.029 C 
ENDROOT
BRANCH   3  14
ATOM     14  N   UNL     1       5.992  -2.081  22.709  0.00  0.00    -0.269 N 
ATOM     15  H   UNL     1       5.290  -1.615  23.265  0.00  0.00    +0.156 HD
ATOM     16  C   UNL     1       7.239  -1.476  22.821  0.00  0.00    +0.309 C 
ATOM     17  N   UNL     1       7.140  -0.102  22.739  0.00  0.00    -0.254 N 
ATOM     18  H   UNL     1       6.567   0.224  21.973  0.00  0.00    +0.158 HD
ATOM     19  O   UNL     1       8.285  -2.092  22.992  0.00  0.00    -0.252 OA
BRANCH  17  20
ATOM     20  C   UNL     1       8.249   0.729  22.948  0.00  0.00    +0.126 A 
ATOM     21  N   UNL     1       8.496   1.052  24.233  0.00  0.00    -0.240 NA
ATOM     22  C   UNL     1       9.540   1.881  24.464  0.00  0.00    +0.113 A 
ATOM     23  C   UNL     1      10.400   2.340  23.479  0.00  0.00    +0.020 A 
ATOM     24  C   UNL     1      10.165   1.939  22.171  0.00  0.00    +0.005 A 
ATOM     25  C   UNL     1       9.063   1.134  21.894  0.00  0.00    +0.044 A 
ENDBRANCH  17  20
ENDBRANCH   3  14
TORSDOF 2
ENDMDL
MODEL 4
REMARK VINA RESULT:      -6.8      2.707      7.609
REMARK  Name = 
REMARK  2 active torsions:
REMARK  status: ('A' for Active; 'I' for Inactive)
REMARK    1  A    between atoms: C_11  and  N_12
REMARK    2  A    between atoms: N_15  and  C_16
REMARK                            x       y       z     vdW  Elec       q    Type
REMARK                         _______ _______ _______ _____ _____    ______ ____
ROOT
ATOM      1  C   UNL     1       7.841   1.761  22.001  0.00  0.00    +0.109 C 
ATOM      2  C   UNL     1       8.905   1.082  22.795  0.00  0.00    +0.006 A 
ATOM      3  C   UNL     1       9.323  -0.238  22.826  0.00  0.00    +0.040 A 
ATOM      4  C   UNL     1      10.446  -0.557  23.610  0.00  0.00    +0.024 A 
ATOM      5  C   UNL     1      11.132   0.428  24.348  0.00  0.00    +0.003 A 
ATOM      6  C   UNL     1      10.724   1.758  24.295  0.00  0.00    +0.013 A 
ATOM      7  C   UNL     1       9.630   2.051  23.503  0.00  0.00    +0.044 A 
ATOM      8  C   UNL     1       9.032   3.365  23.244  0.00  0.00    +0.247 C 
ATOM      9  O   UNL     1       9.304   4.388  23.842  0.00  0.00    -0.270 OA
ATOM     10  N   UNL     1       8.074   3.166  22.269  0.00  0.00    -0.290 N 
ATOM     11  C   UNL     1       6.872   3.949  22.171  0.00  0.00    +0.109 C 
ATOM     12  C   UNL     1       5.777   2.960  22.561  0.00  0.00    +0.021 C 
ATOM     13  C   UNL     1       6.392   1.552  22.433  0.00  0.00    +0.029 C 
ENDROOT
BRANCH   3  14
ATOM     14  N   UNL     1       8.645  -1.255  22.119  0.00  0.00    -0.269 N 
ATOM     15  H   UNL     1       9.124  -1.688  21.342  0.00  0.00    +0.156 HD
ATOM     16  C   UNL     1       7.812  -2.146  22.786  0.00  0.00    +0.309 C 
ATOM     17  N   UNL     1       7.077  -2.906  21.899  0.00  0.00    -0.254 N 
ATOM     18  H   UNL     1       6.637  -2.370  21.164  0.00  0.00    +0.158 HD
ATOM     19  O   UNL     1       7.760  -2.250  24.006  0.00  0.00    -0.252 OA
BRANCH  17  20
ATOM     20  C   UNL     1       6.257  -3.957  22.335  0.00  0.00    +0.126 A 
ATOM     21  N   UNL     1       4.992  -3.611  22.647  0.00  0.00    -0.240 NA
ATOM     22  C   UNL     1       4.185  -4.597  23.104  0.00  0.00    +0.113 A 
ATOM     23  C   UNL     1       4.559  -5.929  23.188  0.00  0.00    +0.020 A 
ATOM     24  C   UNL     1       5.846  -6.271  22.796  0.00  0.00    +0.005 A 
ATOM     25  C   UNL     1       6.718  -5.268  22.379  0.00  0.00    +0.044 A 
ENDBRANCH  17  20
ENDBRANCH   3  14
TORSDOF 2
ENDMDL
MODEL 5
REMARK VINA RESULT:      -6.7      2.002      2.431
REMARK  Name = 
REMARK  2 active torsions:
REMARK  status: ('A' for Active; 'I' for Inactive)
REMARK    1  A    between atoms: C_11  and  N_12
REMARK    2  A    between atoms: N_15  and  C_16
REMARK                            x       y       z     vdW  Elec       q    Type
REMARK                         _______ _______ _______ _____ _____    ______ ____
ROOT
ATOM      1  C   UNL     1       5.680  -3.694  24.316  0.00  0.00    +0.109 C 
ATOM      2  C   UNL     1       7.138  -3.942  24.503  0.00  0.00    +0.006 A 
ATOM      3  C   UNL     1       8.251  -3.276  24.014  0.00  0.00    +0.040 A 
ATOM      4  C   UNL     1       9.518  -3.688  24.465  0.00  0.00    +0.024 A 
ATOM      5  C   UNL     1       9.664  -4.746  25.383  0.00  0.00    +0.003 A 
ATOM      6  C   UNL     1       8.544  -5.397  25.891  0.00  0.00    +0.013 A 
ATOM      7  C   UNL     1       7.308  -4.963  25.449  0.00  0.00    +0.044 A 
ATOM      8  C   UNL     1       5.984  -5.446  25.857  0.00  0.00    +0.247 C 
ATOM      9  O   UNL     1       5.778  -6.442  26.523  0.00  0.00    -0.270 OA
ATOM     10  N   UNL     1       5.067  -4.598  25.269  0.00  0.00    -0.290 N 
ATOM     11  C   UNL     1       3.754  -5.016  24.860  0.00  0.00    +0.109 C 
ATOM     12  C   UNL     1       3.830  -4.970  23.337  0.00  0.00    +0.021 C 
ATOM     13  C   UNL     1       5.057  -4.104  22.985  0.00  0.00    +0.029 C 
ENDROOT
BRANCH   3  14
ATOM     14  N   UNL     1       8.142  -2.228  23.075  0.00  0.00    -0.269 N 
ATOM     15  H   UNL     1       7.604  -2.399  22.238  0.00  0.00    +0.156 HD
ATOM     16  C   UNL     1       8.051  -0.906  23.499  0.00  0.00    +0.309 C 
ATOM     17  N   UNL     1       8.182  -0.030  22.440  0.00  0.00    -0.254 N 
ATOM     18  H   UNL     1       8.960  -0.236  21.829  0.00  0.00    +0.158 HD
ATOM     19  O   UNL     1       7.858  -0.573  24.662  0.00  0.00    -0.252 OA
BRANCH  17  20
ATOM     20  C   UNL     1       8.003   1.351  22.603  0.00  0.00    +0.126 A 
ATOM     21  N   UNL     1       9.068   2.018  23.093  0.00  0.00    -0.240 NA
ATOM     22  C   UNL     1       8.914   3.348  23.294  0.00  0.00    +0.113 A 
ATOM     23  C   UNL     1       7.775   4.058  22.953  0.00  0.00    +0.020 A 
ATOM     24  C   UNL     1       6.717   3.360  22.386  0.00  0.00    +0.005 A 
ATOM     25  C   UNL     1       6.822   1.981  22.223  0.00  0.00    +0.044 A 
ENDBRANCH  17  20
ENDBRANCH   3  14
TORSDOF 2
ENDMDL
MODEL 6
REMARK VINA RESULT:      -6.7      3.449      5.865
REMARK  Name = 
REMARK  2 active torsions:
REMARK  status: ('A' for Active; 'I' for Inactive)
REMARK    1  A    between atoms: C_11  and  N_12
REMARK    2  A    between atoms: N_15  and  C_16
REMARK                            x       y       z     vdW  Elec       q    Type
REMARK                         _______ _______ _______ _____ _____    ______ ____
ROOT
ATOM      1  C   UNL     1       7.546   0.273  24.877  0.00  0.00    +0.109 C 
ATOM      2  C   UNL     1       8.184   0.042  23.549  0.00  0.00    +0.006 A 
ATOM      3  C   UNL     1       8.734   0.923  22.632  0.00  0.00    +0.040 A 
ATOM      4  C   UNL     1       9.372   0.385  21.499  0.00  0.00    +0.024 A 
ATOM      5  C   UNL     1       9.452  -1.006  21.292  0.00  0.00    +0.003 A 
ATOM      6  C   UNL     1       8.919  -1.889  22.227  0.00  0.00    +0.013 A 
ATOM      7  C   UNL     1       8.315  -1.338  23.341  0.00  0.00    +0.044 A 
ATOM      8  C   UNL     1       7.720  -2.041  24.484  0.00  0.00    +0.247 C 
ATOM      9  O   UNL     1       7.506  -3.236  24.535  0.00  0.00    -0.270 OA
ATOM     10  N   UNL     1       7.398  -1.067  25.409  0.00  0.00    -0.290 N 
ATOM     11  C   UNL     1       6.289  -1.176  26.316  0.00  0.00    +0.109 C 
ATOM     12  C   UNL     1       5.312  -0.123  25.803  0.00  0.00    +0.021 C 
ATOM     13  C   UNL     1       6.122   0.822  24.893  0.00  0.00    +0.029 C 
ENDROOT
BRANCH   3  14
ATOM     14  N   UNL     1       8.652   2.323  22.796  0.00  0.00    -0.269 N 
ATOM     15  H   UNL     1       7.740   2.725  22.960  0.00  0.00    +0.156 HD
ATOM     16  C   UNL     1       9.660   3.018  23.455  0.00  0.00    +0.309 C 
ATOM     17  N   UNL     1       9.506   4.382  23.311  0.00  0.00    -0.254 N 
ATOM     18  H   UNL     1       9.325   4.678  22.363  0.00  0.00    +0.158 HD
ATOM     19  O   UNL     1      10.555   2.479  24.097  0.00  0.00    -0.252 OA
BRANCH  17  20
ATOM     20  C   UNL     1      10.331   5.291  23.989  0.00  0.00    +0.126 A 
ATOM     21  N   UNL     1      11.614   5.325  23.576  0.00  0.00    -0.240 NA
ATOM     22  C   UNL     1      12.444   6.167  24.234  0.00  0.00    +0.113 A 
ATOM     23  C   UNL     1      12.036   7.037  25.232  0.00  0.00    +0.020 A 
ATOM     24  C   UNL     1      10.696   7.031  25.594  0.00  0.00    +0.005 A 
ATOM     25  C   UNL     1       9.829   6.132  24.977  0.00  0.00    +0.044 A 
ENDBRANCH  17  20
ENDBRANCH   3  14
TORSDOF 2
ENDMDL
MODEL 7
REMARK VINA RESULT:      -6.5      1.670      3.561
REMARK  Name = 
REMARK  2 active torsions:
REMARK  status: ('A' for Active; 'I' for Inactive)
REMARK    1  A    between atoms: C_11  and  N_12
REMARK    2  A    between atoms: N_15  and  C_16
REMARK                            x       y       z     vdW  Elec       q    Type
REMARK                         _______ _______ _______ _____ _____    ______ ____
ROOT
ATOM      1  C   UNL     1       6.228  -5.905  26.350  0.00  0.00    +0.109 C 
ATOM      2  C   UNL     1       5.615  -5.771  24.998  0.00  0.00    +0.006 A 
ATOM      3  C   UNL     1       6.146  -5.352  23.789  0.00  0.00    +0.040 A 
ATOM      4  C   UNL     1       5.335  -5.443  22.644  0.00  0.00    +0.024 A 
ATOM      5  C   UNL     1       4.019  -5.942  22.712  0.00  0.00    +0.003 A 
ATOM      6  C   UNL     1       3.496  -6.385  23.924  0.00  0.00    +0.013 A 
ATOM      7  C   UNL     1       4.319  -6.304  25.032  0.00  0.00    +0.044 A 
ATOM      8  C   UNL     1       4.028  -6.740  26.403  0.00  0.00    +0.247 C 
ATOM      9  O   UNL     1       2.935  -7.078  26.812  0.00  0.00    -0.270 OA
ATOM     10  N   UNL     1       5.208  -6.604  27.108  0.00  0.00    -0.290 N 
ATOM     11  C   UNL     1       5.259  -6.295  28.510  0.00  0.00    +0.109 C 
ATOM     12  C   UNL     1       5.815  -4.874  28.536  0.00  0.00    +0.021 C 
ATOM     13  C   UNL     1       6.455  -4.628  27.155  0.00  0.00    +0.029 C 
ENDROOT
BRANCH   3  14
ATOM     14  N   UNL     1       7.452  -4.825  23.688  0.00  0.00    -0.269 N 
ATOM     15  H   UNL     1       8.108  -5.304  23.088  0.00  0.00    +0.156 HD
ATOM     16  C   UNL     1       7.663  -3.451  23.707  0.00  0.00    +0.309 C 
ATOM     17  N   UNL     1       9.005  -3.151  23.826  0.00  0.00    -0.254 N 
ATOM     18  H   UNL     1       9.481  -3.673  24.549  0.00  0.00    +0.158 HD
ATOM     19  O   UNL     1       6.767  -2.620  23.609  0.00  0.00    -0.252 OA
BRANCH  17  20
ATOM     20  C   UNL     1       9.474  -1.832  23.745  0.00  0.00    +0.126 A 
ATOM     21  N   UNL     1       9.645  -1.206  24.927  0.00  0.00    -0.240 NA
ATOM     22  C   UNL     1      10.063   0.080  24.881  0.00  0.00    +0.113 A 
ATOM     23  C   UNL     1      10.397   0.746  23.712  0.00  0.00    +0.020 A 
ATOM     24  C   UNL     1      10.278   0.058  22.513  0.00  0.00    +0.005 A 
ATOM     25  C   UNL     1       9.792  -1.247  22.524  0.00  0.00    +0.044 A 
ENDBRANCH  17  20
ENDBRANCH   3  14
TORSDOF 2
ENDMDL
MODEL 8
REMARK VINA RESULT:      -6.5      2.984      7.427
REMARK  Name = 
REMARK  2 active torsions:
REMARK  status: ('A' for Active; 'I' for Inactive)
REMARK    1  A    between atoms: C_11  and  N_12
REMARK    2  A    between atoms: N_15  and  C_16
REMARK                            x       y       z     vdW  Elec       q    Type
REMARK                         _______ _______ _______ _____ _____    ______ ____
ROOT
ATOM      1  C   UNL     1       6.674   1.364  23.436  0.00  0.00    +0.109 C 
ATOM      2  C   UNL     1       8.104   1.237  23.842  0.00  0.00    +0.006 A 
ATOM      3  C   UNL     1       8.821   0.164  24.344  0.00  0.00    +0.040 A 
ATOM      4  C   UNL     1      10.206   0.323  24.529  0.00  0.00    +0.024 A 
ATOM      5  C   UNL     1      10.855   1.535  24.219  0.00  0.00    +0.003 A 
ATOM      6  C   UNL     1      10.135   2.603  23.692  0.00  0.00    +0.013 A 
ATOM      7  C   UNL     1       8.779   2.417  23.501  0.00  0.00    +0.044 A 
ATOM      8  C   UNL     1       7.813   3.360  22.925  0.00  0.00    +0.247 C 
ATOM      9  O   UNL     1       8.033   4.532  22.694  0.00  0.00    -0.270 OA
ATOM     10  N   UNL     1       6.628   2.662  22.792  0.00  0.00    -0.290 N 
ATOM     11  C   UNL     1       5.334   3.278  22.894  0.00  0.00    +0.109 C 
ATOM     12  C   UNL     1       4.783   2.721  24.203  0.00  0.00    +0.021 C 
ATOM     13  C   UNL     1       5.631   1.479  24.543  0.00  0.00    +0.029 C 
ENDROOT
BRANCH   3  14
ATOM     14  N   UNL     1       8.199  -1.057  24.687  0.00  0.00    -0.269 N 
ATOM     15  H   UNL     1       7.529  -1.048  25.442  0.00  0.00    +0.156 HD
ATOM     16  C   UNL     1       7.873  -1.985  23.704  0.00  0.00    +0.309 C 
ATOM     17  N   UNL     1       7.489  -3.189  24.259  0.00  0.00    -0.254 N 
ATOM     18  H   UNL     1       8.109  -3.525  24.983  0.00  0.00    +0.158 HD
ATOM     19  O   UNL     1       7.905  -1.748  22.502  0.00  0.00    -0.252 OA
BRANCH  17  20
ATOM     20  C   UNL     1       6.998  -4.239  23.470  0.00  0.00    +0.126 A 
ATOM     21  N   UNL     1       7.927  -5.104  23.016  0.00  0.00    -0.240 NA
ATOM     22  C   UNL     1       7.489  -6.109  22.222  0.00  0.00    +0.113 A 
ATOM     23  C   UNL     1       6.155  -6.338  21.925  0.00  0.00    +0.020 A 
ATOM     24  C   UNL     1       5.210  -5.472  22.460  0.00  0.00    +0.005 A 
ATOM     25  C   UNL     1       5.636  -4.394  23.231  0.00  0.00    +0.044 A 
ENDBRANCH  17  20
ENDBRANCH   3  14
TORSDOF 2
ENDMDL
MODEL 9
REMARK VINA RESULT:      -6.5      2.251      2.727
REMARK  Name = 
REMARK  2 active torsions:
REMARK  status: ('A' for Active; 'I' for Inactive)
REMARK    1  A    between atoms: C_11  and  N_12
REMARK    2  A    between atoms: N_15  and  C_16
REMARK                            x       y       z     vdW  Elec       q    Type
REMARK                         _______ _______ _______ _____ _____    ______ ____
ROOT
ATOM      1  C   UNL     1       6.370  -3.752  23.029  0.00  0.00    +0.109 C 
ATOM      2  C   UNL     1       5.581  -3.307  24.213  0.00  0.00    +0.006 A 
ATOM      3  C   UNL     1       5.855  -2.372  25.198  0.00  0.00    +0.040 A 
ATOM      4  C   UNL     1       4.848  -2.087  26.137  0.00  0.00    +0.024 A 
ATOM      5  C   UNL     1       3.595  -2.730  26.090  0.00  0.00    +0.003 A 
ATOM      6  C   UNL     1       3.314  -3.650  25.084  0.00  0.00    +0.013 A 
ATOM      7  C   UNL     1       4.312  -3.900  24.161  0.00  0.00    +0.044 A 
ATOM      8  C   UNL     1       4.256  -4.784  22.991  0.00  0.00    +0.247 C 
ATOM      9  O   UNL     1       3.368  -5.581  22.759  0.00  0.00    -0.270 OA
ATOM     10  N   UNL     1       5.428  -4.572  22.293  0.00  0.00    -0.290 N 
ATOM     11  C   UNL     1       6.080  -5.591  21.516  0.00  0.00    +0.109 C 
ATOM     12  C   UNL     1       7.347  -5.884  22.315  0.00  0.00    +0.021 C 
ATOM     13  C   UNL     1       7.546  -4.693  23.274  0.00  0.00    +0.029 C 
ENDROOT
BRANCH   3  14
ATOM     14  N   UNL     1       7.108  -1.727  25.290  0.00  0.00    -0.269 N 
ATOM     15  H   UNL     1       7.938  -2.296  25.200  0.00  0.00    +0.156 HD
ATOM     16  C   UNL     1       7.285  -0.451  24.768  0.00  0.00    +0.309 C 
ATOM     17  N   UNL     1       8.496   0.086  25.157  0.00  0.00    -0.254 N 
ATOM     18  H   UNL     1       8.692  -0.010  26.143  0.00  0.00    +0.158 HD
ATOM     19  O   UNL     1       6.473   0.110  24.041  0.00  0.00    -0.252 OA
BRANCH  17  20
ATOM     20  C   UNL     1       8.951   1.314  24.656  0.00  0.00    +0.126 A 
ATOM     21  N   UNL     1       9.873   1.233  23.675  0.00  0.00    -0.240 NA
ATOM     22  C   UNL     1      10.357   2.402  23.195  0.00  0.00    +0.113 A 
ATOM     23  C   UNL     1       9.904   3.651  23.591  0.00  0.00    +0.020 A 
ATOM     24  C   UNL     1       8.906   3.707  24.553  0.00  0.00    +0.005 A 
ATOM     25  C   UNL     1       8.431   2.522  25.110  0.00  0.00    +0.044 A 
ENDBRANCH  17  20
ENDBRANCH   3  14
TORSDOF 2
ENDMDL
