MODEL 1
REMARK VINA RESULT:      -7.3      0.000      0.000
REMARK  Name = 
REMARK  14 active torsions:
REMARK  status: ('A' for Active; 'I' for Inactive)
REMARK    1  A    between atoms: N_1  and  C_2
REMARK    2  A    between atoms: C_2  and  C_3
REMARK    3  A    between atoms: C_3  and  C_4
REMARK    4  A    between atoms: C_4  and  C_5
REMARK    5  A    between atoms: C_5  and  C_6
REMARK    6  A    between atoms: C_6  and  N_7
REMARK    7  A    between atoms: C_6  and  C_41
REMARK    8  A    between atoms: C_8  and  C_10
REMARK    9  A    between atoms: C_10  and  C_11
REMARK   10  A    between atoms: C_10  and  N_21
REMARK   11  A    between atoms: C_11  and  C_12
REMARK   12  A    between atoms: C_16  and  O_17
REMARK   13  A    between atoms: C_27  and  N_30
REMARK   14  A    between atoms: N_46  and  C_49
REMARK                            x       y       z     vdW  Elec       q    Type
REMARK                         _______ _______ _______ _____ _____    ______ ____
ROOT
ATOM      1  C   UNL     1       5.306  -1.869  25.852  0.00  0.00    +0.165 C 
ENDROOT
BRANCH   1   2
ATOM      2  N   UNL     1       5.651  -0.480  26.150  0.00  0.00    -0.288 N 
ATOM      3  H   UNL     1       6.452  -0.107  25.658  0.00  0.00    +0.151 HD
ATOM      4  C   UNL     1       4.677   0.426  26.463  0.00  0.00    +0.303 C 
ATOM      5  N   UNL     1       5.119   1.656  26.917  0.00  0.00    -0.286 N 
ATOM      6  C   UNL     1       6.509   2.132  26.952  0.00  0.00    +0.111 C 
ATOM      7  C   UNL     1       6.815   2.888  28.248  0.00  0.00    +0.041 C 
ATOM      8  C   UNL     1       5.816   4.049  28.486  0.00  0.00    +0.081 C 
ATOM      9  C   UNL     1       4.438   3.357  28.580  0.00  0.00    +0.041 C 
ATOM     10  C   UNL     1       4.106   2.658  27.259  0.00  0.00    +0.111 C 
ATOM     11  O   UNL     1       3.490   0.114  26.390  0.00  0.00    -0.253 OA
BRANCH   8  12
ATOM     12  N   UNL     1       5.835   5.104  27.440  0.00  0.00    -0.278 N 
ATOM     13  C   UNL     1       6.962   5.883  27.204  0.00  0.00    +0.307 C 
ATOM     14  O   UNL     1       7.925   5.993  27.956  0.00  0.00    -0.252 OA
ATOM     15  N   UNL     1       7.031   6.423  25.946  0.00  0.00    -0.269 N 
ATOM     16  H   UNL     1       7.935   6.794  25.689  0.00  0.00    +0.156 HD
ATOM     17  C   UNL     1       5.998   6.359  25.013  0.00  0.00    +0.039 A 
ATOM     18  C   UNL     1       4.731   5.979  25.452  0.00  0.00    -0.009 A 
ATOM     19  C   UNL     1       3.660   5.999  24.556  0.00  0.00    +0.007 A 
ATOM     20  C   UNL     1       3.880   6.332  23.218  0.00  0.00    +0.000 A 
ATOM     21  C   UNL     1       5.164   6.663  22.780  0.00  0.00    +0.002 A 
ATOM     22  C   UNL     1       6.225   6.695  23.684  0.00  0.00    +0.023 A 
ATOM     23  C   UNL     1       4.579   5.639  26.904  0.00  0.00    +0.146 C 
ENDBRANCH   8  12
ENDBRANCH   1   2
BRANCH   1  26
ATOM     24  N   UNL     1       7.553  -2.118  24.788  0.00  0.00    -0.302 N 
ATOM     25  H   UNL     1       7.922  -1.682  25.631  0.00  0.00    +0.150 HD
ATOM     26  C   UNL     1       6.198  -2.358  24.692  0.00  0.00    +0.234 C 
ATOM     27  O   UNL     1       5.726  -3.033  23.771  0.00  0.00    -0.274 OA
BRANCH  24  28
ATOM     28  C   UNL     1       8.484  -2.700  23.817  0.00  0.00    +0.159 C 
BRANCH  28  29
ATOM     29  C   UNL     1       8.878  -1.787  22.634  0.00  0.00    +0.236 C 
ATOM     30  N   UNL     1       9.338  -0.506  22.945  0.00  0.00    -0.297 N 
ATOM     31  C   UNL     1       8.835   0.603  22.123  0.00  0.00    +0.126 C 
ATOM     32  C   UNL     1       9.811   1.784  22.071  0.00  0.00    +0.124 C 
ATOM     33  N   UNL     1      10.135   2.195  23.454  0.00  0.00    -0.327 N 
ATOM     34  C   UNL     1      10.810   1.125  24.207  0.00  0.00    +0.124 C 
ATOM     35  C   UNL     1       9.881  -0.116  24.262  0.00  0.00    +0.126 C 
ATOM     36  O   UNL     1       8.687  -2.145  21.469  0.00  0.00    -0.274 OA
BRANCH  33  37
ATOM     37  C   UNL     1      10.446   3.537  23.629  0.00  0.00    +0.033 A 
ATOM     38  C   UNL     1      11.745   3.972  23.335  0.00  0.00    +0.043 A 
ATOM     39  C   UNL     1      12.087   5.304  23.504  0.00  0.00    +0.112 A 
ATOM     40  N   UNL     1      11.228   6.239  23.947  0.00  0.00    -0.263 NA
ATOM     41  C   UNL     1       9.974   5.816  24.212  0.00  0.00    +0.112 A 
ATOM     42  C   UNL     1       9.540   4.503  24.060  0.00  0.00    +0.043 A 
ENDBRANCH  33  37
ENDBRANCH  28  29
BRANCH  28  43
ATOM     43  C   UNL     1       9.778  -3.184  24.497  0.00  0.00    +0.032 C 
BRANCH  43  44
ATOM     44  C   UNL     1       9.612  -4.648  24.887  0.00  0.00    +0.003 C 
BRANCH  44  45
ATOM     45  C   UNL     1       9.249  -4.850  26.349  0.00  0.00    +0.015 C 
BRANCH  45  46
ATOM     46  C   UNL     1       7.858  -5.472  26.409  0.00  0.00    +0.077 C 
BRANCH  46  47
ATOM     47  N   UNL     1       7.591  -5.966  27.748  0.00  0.00    -0.330 NA
ATOM     48  H   UNL     1       8.482  -6.097  28.228  0.00  0.00    +0.118 HD
ATOM     49  H   UNL     1       7.099  -5.240  28.265  0.00  0.00    +0.118 HD
ENDBRANCH  46  47
ENDBRANCH  45  46
ENDBRANCH  44  45
ENDBRANCH  43  44
ENDBRANCH  28  43
ENDBRANCH  24  28
ENDBRANCH   1  26
BRANCH   1  50
ATOM     50  C   UNL     1       5.579  -2.774  27.071  0.00  0.00    +0.067 C 
BRANCH  50  51
ATOM     51  C   UNL     1       4.648  -3.956  27.247  0.00  0.00    -0.043 A 
ATOM     52  C   UNL     1       4.030  -4.206  28.482  0.00  0.00    +0.022 A 
ATOM     53  C   UNL     1       3.250  -5.352  28.667  0.00  0.00    +0.061 A 
ATOM     54 BR   UNL     1       2.423  -5.633  30.350  0.00  0.00    -0.046 Br
ATOM     55  C   UNL     1       3.079  -6.267  27.625  0.00  0.00    +0.145 A 
ATOM     56  C   UNL     1       3.655  -6.001  26.380  0.00  0.00    +0.061 A 
ATOM     57 BR   UNL     1       3.398  -7.166  24.905  0.00  0.00    -0.046 Br
ATOM     58  C   UNL     1       4.429  -4.850  26.190  0.00  0.00    +0.022 A 
BRANCH  55  59
ATOM     59  O   UNL     1       2.354  -7.416  27.801  0.00  0.00    -0.505 OA
ATOM     60  H   UNL     1       2.741  -7.908  28.547  0.00  0.00    +0.292 HD
ENDBRANCH  55  59
ENDBRANCH  50  51
ENDBRANCH   1  50
TORSDOF 14
ENDMDL
MODEL 2
REMARK VINA RESULT:      -7.3      1.638      1.938
REMARK  Name = 
REMARK  14 active torsions:
REMARK  status: ('A' for Active; 'I' for Inactive)
REMARK    1  A    between atoms: N_1  and  C_2
REMARK    2  A    between atoms: C_2  and  C_3
REMARK    3  A    between atoms: C_3  and  C_4
REMARK    4  A    between atoms: C_4  and  C_5
REMARK    5  A    between atoms: C_5  and  C_6
REMARK    6  A    between atoms: C_6  and  N_7
REMARK    7  A    between atoms: C_6  and  C_41
REMARK    8  A    between atoms: C_8  and  C_10
REMARK    9  A    between atoms: C_10  and  C_11
REMARK   10  A    between atoms: C_10  and  N_21
REMARK   11  A    between atoms: C_11  and  C_12
REMARK   12  A    between atoms: C_16  and  O_17
REMARK   13  A    between atoms: C_27  and  N_30
REMARK   14  A    between atoms: N_46  and  C_49
REMARK                            x       y       z     vdW  Elec       q    Type
REMARK                         _______ _______ _______ _____ _____    ______ ____
ROOT
ATOM      1  C   UNL     1       5.328  -2.860  26.239  0.00  0.00    +0.165 C 
ENDROOT
BRANCH   1   2
ATOM      2  N   UNL     1       5.547  -1.455  26.579  0.00  0.00    -0.288 N 
ATOM      3  H   UNL     1       6.393  -1.038  26.216  0.00  0.00    +0.151 HD
ATOM      4  C   UNL     1       4.489  -0.604  26.732  0.00  0.00    +0.303 C 
ATOM      5  N   UNL     1       4.787   0.647  27.242  0.00  0.00    -0.286 N 
ATOM      6  C   UNL     1       6.127   1.198  27.490  0.00  0.00    +0.111 C 
ATOM      7  C   UNL     1       6.185   1.965  28.814  0.00  0.00    +0.041 C 
ATOM      8  C   UNL     1       5.100   3.069  28.886  0.00  0.00    +0.081 C 
ATOM      9  C   UNL     1       3.764   2.304  28.769  0.00  0.00    +0.041 C 
ATOM     10  C   UNL     1       3.680   1.591  27.416  0.00  0.00    +0.111 C 
ATOM     11  O   UNL     1       3.346  -0.980  26.476  0.00  0.00    -0.253 OA
BRANCH   8  12
ATOM     12  N   UNL     1       5.225   4.127  27.850  0.00  0.00    -0.278 N 
ATOM     13  C   UNL     1       6.414   4.817  27.647  0.00  0.00    +0.307 C 
ATOM     14  O   UNL     1       7.366   4.847  28.421  0.00  0.00    -0.252 OA
ATOM     15  N   UNL     1       6.554   5.360  26.395  0.00  0.00    -0.269 N 
ATOM     16  H   UNL     1       7.489   5.661  26.162  0.00  0.00    +0.156 HD
ATOM     17  C   UNL     1       5.541   5.382  25.439  0.00  0.00    +0.039 A 
ATOM     18  C   UNL     1       4.239   5.099  25.846  0.00  0.00    -0.009 A 
ATOM     19  C   UNL     1       3.194   5.207  24.925  0.00  0.00    +0.007 A 
ATOM     20  C   UNL     1       3.470   5.531  23.596  0.00  0.00    +0.000 A 
ATOM     21  C   UNL     1       4.785   5.765  23.190  0.00  0.00    +0.002 A 
ATOM     22  C   UNL     1       5.824   5.708  24.118  0.00  0.00    +0.023 A 
ATOM     23  C   UNL     1       4.027   4.761  27.291  0.00  0.00    +0.146 C 
ENDBRANCH   8  12
ENDBRANCH   1   2
BRANCH   1  26
ATOM     24  N   UNL     1       6.598  -2.806  24.087  0.00  0.00    -0.302 N 
ATOM     25  H   UNL     1       5.938  -2.086  23.799  0.00  0.00    +0.150 HD
ATOM     26  C   UNL     1       6.500  -3.339  25.356  0.00  0.00    +0.234 C 
ATOM     27  O   UNL     1       7.372  -4.086  25.811  0.00  0.00    -0.274 OA
BRANCH  24  28
ATOM     28  C   UNL     1       7.773  -3.076  23.255  0.00  0.00    +0.159 C 
BRANCH  28  29
ATOM     29  C   UNL     1       9.115  -2.527  23.789  0.00  0.00    +0.236 C 
ATOM     30  N   UNL     1       9.252  -1.139  23.859  0.00  0.00    -0.297 N 
ATOM     31  C   UNL     1      10.529  -0.569  23.409  0.00  0.00    +0.126 C 
ATOM     32  C   UNL     1      10.848   0.767  24.089  0.00  0.00    +0.124 C 
ATOM     33  N   UNL     1       9.706   1.686  23.889  0.00  0.00    -0.327 N 
ATOM     34  C   UNL     1       8.471   1.181  24.512  0.00  0.00    +0.124 C 
ATOM     35  C   UNL     1       8.117  -0.194  23.887  0.00  0.00    +0.126 C 
ATOM     36  O   UNL     1      10.056  -3.286  24.036  0.00  0.00    -0.274 OA
BRANCH  33  37
ATOM     37  C   UNL     1      10.019   3.038  23.849  0.00  0.00    +0.033 A 
ATOM     38  C   UNL     1      11.294   3.423  23.413  0.00  0.00    +0.043 A 
ATOM     39  C   UNL     1      11.638   4.764  23.367  0.00  0.00    +0.112 A 
ATOM     40  N   UNL     1      10.803   5.756  23.725  0.00  0.00    -0.263 NA
ATOM     41  C   UNL     1       9.571   5.379  24.127  0.00  0.00    +0.112 A 
ATOM     42  C   UNL     1       9.136   4.059  24.194  0.00  0.00    +0.043 A 
ENDBRANCH  33  37
ENDBRANCH  28  29
BRANCH  28  43
ATOM     43  C   UNL     1       7.946  -4.584  22.995  0.00  0.00    +0.032 C 
BRANCH  43  44
ATOM     44  C   UNL     1       6.992  -5.005  21.884  0.00  0.00    +0.003 C 
BRANCH  44  45
ATOM     45  C   UNL     1       6.252  -6.299  22.176  0.00  0.00    +0.015 C 
BRANCH  45  46
ATOM     46  C   UNL     1       5.060  -5.972  23.068  0.00  0.00    +0.077 C 
BRANCH  46  47
ATOM     47  N   UNL     1       4.418  -4.751  22.615  0.00  0.00    -0.330 NA
ATOM     48  H   UNL     1       3.686  -4.999  21.947  0.00  0.00    +0.118 HD
ATOM     49  H   UNL     1       3.940  -4.327  23.408  0.00  0.00    +0.118 HD
ENDBRANCH  46  47
ENDBRANCH  45  46
ENDBRANCH  44  45
ENDBRANCH  43  44
ENDBRANCH  28  43
ENDBRANCH  24  28
ENDBRANCH   1  26
BRANCH   1  50
ATOM     50  C   UNL     1       5.307  -3.733  27.509  0.00  0.00    +0.067 C 
BRANCH  50  51
ATOM     51  C   UNL     1       4.252  -4.819  27.557  0.00  0.00    -0.043 A 
ATOM     52  C   UNL     1       3.991  -5.517  28.746  0.00  0.00    +0.022 A 
ATOM     53  C   UNL     1       3.086  -6.583  28.760  0.00  0.00    +0.061 A 
ATOM     54 BR   UNL     1       2.757  -7.481  30.397  0.00  0.00    -0.046 Br
ATOM     55  C   UNL     1       2.432  -6.971  27.588  0.00  0.00    +0.145 A 
ATOM     56  C   UNL     1       2.654  -6.253  26.411  0.00  0.00    +0.061 A 
ATOM     57 BR   UNL     1       1.740  -6.683  24.805  0.00  0.00    -0.046 Br
ATOM     58  C   UNL     1       3.553  -5.179  26.397  0.00  0.00    +0.022 A 
BRANCH  55  59
ATOM     59  O   UNL     1       1.576  -8.041  27.575  0.00  0.00    -0.505 OA
ATOM     60  H   UNL     1       1.750  -8.580  28.367  0.00  0.00    +0.292 HD
ENDBRANCH  55  59
ENDBRANCH  50  51
ENDBRANCH   1  50
TORSDOF 14
ENDMDL
MODEL 3
REMARK VINA RESULT:      -7.0      3.791      9.535
REMARK  Name = 
REMARK  14 active torsions:
REMARK  status: ('A' for Active; 'I' for Inactive)
REMARK    1  A    between atoms: N_1  and  C_2
REMARK    2  A    between atoms: C_2  and  C_3
REMARK    3  A    between atoms: C_3  and  C_4
REMARK    4  A    between atoms: C_4  and  C_5
REMARK    5  A    between atoms: C_5  and  C_6
REMARK    6  A    between atoms: C_6  and  N_7
REMARK    7  A    between atoms: C_6  and  C_41
REMARK    8  A    between atoms: C_8  and  C_10
REMARK    9  A    between atoms: C_10  and  C_11
REMARK   10  A    between atoms: C_10  and  N_21
REMARK   11  A    between atoms: C_11  and  C_12
REMARK   12  A    between atoms: C_16  and  O_17
REMARK   13  A    between atoms: C_27  and  N_30
REMARK   14  A    between atoms: N_46  and  C_49
REMARK                            x       y       z     vdW  Elec       q    Type
REMARK                         _______ _______ _______ _____ _____    ______ ____
ROOT
ATOM      1  C   UNL     1       3.883   3.936  25.524  0.00  0.00    +0.165 C 
ENDROOT
BRANCH   1   2
ATOM      2  N   UNL     1       5.153   3.273  25.233  0.00  0.00    -0.288 N 
ATOM      3  H   UNL     1       5.613   2.831  26.018  0.00  0.00    +0.151 HD
ATOM      4  C   UNL     1       5.367   2.685  24.018  0.00  0.00    +0.303 C 
ATOM      5  N   UNL     1       6.659   2.259  23.771  0.00  0.00    -0.286 N 
ATOM      6  C   UNL     1       7.775   2.237  24.728  0.00  0.00    +0.111 C 
ATOM      7  C   UNL     1       9.083   2.701  24.081  0.00  0.00    +0.041 C 
ATOM      8  C   UNL     1       9.417   1.882  22.809  0.00  0.00    +0.081 C 
ATOM      9  C   UNL     1       8.227   2.143  21.860  0.00  0.00    +0.041 C 
ATOM     10  C   UNL     1       6.930   1.619  22.481  0.00  0.00    +0.111 C 
ATOM     11  O   UNL     1       4.457   2.608  23.194  0.00  0.00    -0.253 OA
BRANCH   8  12
ATOM     12  N   UNL     1       9.627   0.430  23.046  0.00  0.00    -0.278 N 
ATOM     13  C   UNL     1      10.474  -0.035  24.045  0.00  0.00    +0.307 C 
ATOM     14  O   UNL     1      11.317   0.632  24.637  0.00  0.00    -0.252 OA
ATOM     15  N   UNL     1      10.196  -1.303  24.486  0.00  0.00    -0.269 N 
ATOM     16  H   UNL     1      10.647  -1.563  25.352  0.00  0.00    +0.156 HD
ATOM     17  C   UNL     1       9.262  -2.147  23.890  0.00  0.00    +0.039 A 
ATOM     18  C   UNL     1       8.779  -1.815  22.626  0.00  0.00    -0.009 A 
ATOM     19  C   UNL     1       7.914  -2.693  21.969  0.00  0.00    +0.007 A 
ATOM     20  C   UNL     1       7.489  -3.859  22.610  0.00  0.00    +0.000 A 
ATOM     21  C   UNL     1       7.942  -4.156  23.897  0.00  0.00    +0.002 A 
ATOM     22  C   UNL     1       8.846  -3.307  24.534  0.00  0.00    +0.023 A 
ATOM     23  C   UNL     1       9.286  -0.547  22.007  0.00  0.00    +0.146 C 
ENDBRANCH   8  12
ENDBRANCH   1   2
BRANCH   1  26
ATOM     24  N   UNL     1       3.795   2.147  27.266  0.00  0.00    -0.302 N 
ATOM     25  H   UNL     1       4.511   1.675  26.717  0.00  0.00    +0.150 HD
ATOM     26  C   UNL     1       3.333   3.381  26.855  0.00  0.00    +0.234 C 
ATOM     27  O   UNL     1       2.596   4.065  27.571  0.00  0.00    -0.274 OA
BRANCH  24  28
ATOM     28  C   UNL     1       3.456   1.630  28.596  0.00  0.00    +0.159 C 
BRANCH  28  29
ATOM     29  C   UNL     1       2.630   0.325  28.618  0.00  0.00    +0.236 C 
ATOM     30  N   UNL     1       3.122  -0.753  27.880  0.00  0.00    -0.297 N 
ATOM     31  C   UNL     1       2.152  -1.521  27.088  0.00  0.00    +0.126 C 
ATOM     32  C   UNL     1       2.593  -2.971  26.865  0.00  0.00    +0.124 C 
ATOM     33  N   UNL     1       3.948  -2.971  26.272  0.00  0.00    -0.327 N 
ATOM     34  C   UNL     1       4.946  -2.361  27.167  0.00  0.00    +0.124 C 
ATOM     35  C   UNL     1       4.531  -0.895  27.459  0.00  0.00    +0.126 C 
ATOM     36  O   UNL     1       1.529   0.283  29.175  0.00  0.00    -0.274 OA
BRANCH  33  37
ATOM     37  C   UNL     1       4.248  -4.049  25.450  0.00  0.00    +0.033 A 
ATOM     38  C   UNL     1       4.950  -5.135  25.991  0.00  0.00    +0.043 A 
ATOM     39  C   UNL     1       5.268  -6.223  25.193  0.00  0.00    +0.112 A 
ATOM     40  N   UNL     1       4.939  -6.310  23.893  0.00  0.00    -0.263 NA
ATOM     41  C   UNL     1       4.249  -5.268  23.383  0.00  0.00    +0.112 A 
ATOM     42  C   UNL     1       3.876  -4.142  24.110  0.00  0.00    +0.043 A 
ENDBRANCH  33  37
ENDBRANCH  28  29
BRANCH  28  43
ATOM     43  C   UNL     1       4.716   1.411  29.453  0.00  0.00    +0.032 C 
BRANCH  43  44
ATOM     44  C   UNL     1       5.497   2.717  29.525  0.00  0.00    +0.003 C 
BRANCH  44  45
ATOM     45  C   UNL     1       6.818   2.677  28.775  0.00  0.00    +0.015 C 
BRANCH  45  46
ATOM     46  C   UNL     1       7.345   1.248  28.819  0.00  0.00    +0.077 C 
BRANCH  46  47
ATOM     47  N   UNL     1       8.320   1.108  29.886  0.00  0.00    -0.330 NA
ATOM     48  H   UNL     1       7.961   1.583  30.716  0.00  0.00    +0.118 HD
ATOM     49  H   UNL     1       8.383   0.122  30.134  0.00  0.00    +0.118 HD
ENDBRANCH  46  47
ENDBRANCH  45  46
ENDBRANCH  44  45
ENDBRANCH  43  44
ENDBRANCH  28  43
ENDBRANCH  24  28
ENDBRANCH   1  26
BRANCH   1  50
ATOM     50  C   UNL     1       4.087   5.455  25.695  0.00  0.00    +0.067 C 
BRANCH  50  51
ATOM     51  C   UNL     1       5.483   5.905  26.072  0.00  0.00    -0.043 A 
ATOM     52  C   UNL     1       6.460   6.118  25.087  0.00  0.00    +0.022 A 
ATOM     53  C   UNL     1       7.773   6.438  25.447  0.00  0.00    +0.061 A 
ATOM     54 BR   UNL     1       9.049   6.733  24.076  0.00  0.00    -0.046 Br
ATOM     55  C   UNL     1       8.131   6.546  26.792  0.00  0.00    +0.145 A 
ATOM     56  C   UNL     1       7.154   6.380  27.776  0.00  0.00    +0.061 A 
ATOM     57 BR   UNL     1       7.561   6.587  29.617  0.00  0.00    -0.046 Br
ATOM     58  C   UNL     1       5.836   6.067  27.418  0.00  0.00    +0.022 A 
BRANCH  55  59
ATOM     59  O   UNL     1       9.422   6.817  27.163  0.00  0.00    -0.505 OA
ATOM     60  H   UNL     1       9.518   7.782  27.248  0.00  0.00    +0.292 HD
ENDBRANCH  55  59
ENDBRANCH  50  51
ENDBRANCH   1  50
TORSDOF 14
ENDMDL
MODEL 4
REMARK VINA RESULT:      -6.9      3.631     10.421
REMARK  Name = 
REMARK  14 active torsions:
REMARK  status: ('A' for Active; 'I' for Inactive)
REMARK    1  A    between atoms: N_1  and  C_2
REMARK    2  A    between atoms: C_2  and  C_3
REMARK    3  A    between atoms: C_3  and  C_4
REMARK    4  A    between atoms: C_4  and  C_5
REMARK    5  A    between atoms: C_5  and  C_6
REMARK    6  A    between atoms: C_6  and  N_7
REMARK    7  A    between atoms: C_6  and  C_41
REMARK    8  A    between atoms: C_8  and  C_10
REMARK    9  A    between atoms: C_10  and  C_11
REMARK   10  A    between atoms: C_10  and  N_21
REMARK   11  A    between atoms: C_11  and  C_12
REMARK   12  A    between atoms: C_16  and  O_17
REMARK   13  A    between atoms: C_27  and  N_30
REMARK   14  A    between atoms: N_46  and  C_49
REMARK                            x       y       z     vdW  Elec       q    Type
REMARK                         _______ _______ _______ _____ _____    ______ ____
ROOT
ATOM      1  C   UNL     1       5.519   2.014  25.512  0.00  0.00    +0.165 C 
ENDROOT
BRANCH   1   2
ATOM      2  N   UNL     1       5.890   0.613  25.707  0.00  0.00    -0.288 N 
ATOM      3  H   UNL     1       5.452   0.143  26.488  0.00  0.00    +0.151 HD
ATOM      4  C   UNL     1       6.195  -0.181  24.637  0.00  0.00    +0.303 C 
ATOM      5  N   UNL     1       6.720  -1.425  24.937  0.00  0.00    -0.286 N 
ATOM      6  C   UNL     1       6.839  -2.030  26.271  0.00  0.00    +0.111 C 
ATOM      7  C   UNL     1       8.178  -2.751  26.447  0.00  0.00    +0.041 C 
ATOM      8  C   UNL     1       8.417  -3.799  25.331  0.00  0.00    +0.081 C 
ATOM      9  C   UNL     1       8.418  -2.975  24.024  0.00  0.00    +0.041 C 
ATOM     10  C   UNL     1       7.056  -2.308  23.818  0.00  0.00    +0.111 C 
ATOM     11  O   UNL     1       6.054   0.240  23.490  0.00  0.00    -0.253 OA
BRANCH   8  12
ATOM     12  N   UNL     1       7.418  -4.898  25.290  0.00  0.00    -0.278 N 
ATOM     13  C   UNL     1       7.125  -5.664  26.413  0.00  0.00    +0.307 C 
ATOM     14  O   UNL     1       7.801  -5.723  27.435  0.00  0.00    -0.252 OA
ATOM     15  N   UNL     1       5.889  -6.257  26.394  0.00  0.00    -0.269 N 
ATOM     16  H   UNL     1       5.576  -6.621  27.283  0.00  0.00    +0.156 HD
ATOM     17  C   UNL     1       5.041  -6.254  25.289  0.00  0.00    +0.039 A 
ATOM     18  C   UNL     1       5.564  -5.880  24.053  0.00  0.00    -0.009 A 
ATOM     19  C   UNL     1       4.758  -5.959  22.915  0.00  0.00    +0.007 A 
ATOM     20  C   UNL     1       3.421  -6.346  23.035  0.00  0.00    +0.000 A 
ATOM     21  C   UNL     1       2.896  -6.670  24.287  0.00  0.00    +0.002 A 
ATOM     22  C   UNL     1       3.713  -6.642  25.417  0.00  0.00    +0.023 A 
ATOM     23  C   UNL     1       7.008  -5.480  24.009  0.00  0.00    +0.146 C 
ENDBRANCH   8  12
ENDBRANCH   1   2
BRANCH   1  26
ATOM     24  N   UNL     1       4.040   1.818  27.517  0.00  0.00    -0.302 N 
ATOM     25  H   UNL     1       4.840   1.391  27.978  0.00  0.00    +0.150 HD
ATOM     26  C   UNL     1       4.170   2.267  26.218  0.00  0.00    +0.234 C 
ATOM     27  O   UNL     1       3.288   2.939  25.676  0.00  0.00    -0.274 OA
BRANCH  24  28
ATOM     28  C   UNL     1       2.859   2.171  28.311  0.00  0.00    +0.159 C 
BRANCH  28  29
ATOM     29  C   UNL     1       1.814   1.047  28.495  0.00  0.00    +0.236 C 
ATOM     30  N   UNL     1       2.298  -0.238  28.749  0.00  0.00    -0.297 N 
ATOM     31  C   UNL     1       1.657  -1.348  28.032  0.00  0.00    +0.126 C 
ATOM     32  C   UNL     1       1.757  -2.674  28.795  0.00  0.00    +0.124 C 
ATOM     33  N   UNL     1       3.179  -2.936  29.108  0.00  0.00    -0.327 N 
ATOM     34  C   UNL     1       3.754  -1.902  29.984  0.00  0.00    +0.124 C 
ATOM     35  C   UNL     1       3.647  -0.526  29.278  0.00  0.00    +0.126 C 
ATOM     36  O   UNL     1       0.613   1.265  28.313  0.00  0.00    -0.274 OA
BRANCH  33  37
ATOM     37  C   UNL     1       3.540  -4.274  29.199  0.00  0.00    +0.033 A 
ATOM     38  C   UNL     1       2.625  -5.250  28.782  0.00  0.00    +0.043 A 
ATOM     39  C   UNL     1       2.955  -6.593  28.867  0.00  0.00    +0.112 A 
ATOM     40  N   UNL     1       4.133  -7.039  29.337  0.00  0.00    -0.263 NA
ATOM     41  C   UNL     1       5.016  -6.093  29.720  0.00  0.00    +0.112 A 
ATOM     42  C   UNL     1       4.776  -4.723  29.661  0.00  0.00    +0.043 A 
ENDBRANCH  33  37
ENDBRANCH  28  29
BRANCH  28  43
ATOM     43  C   UNL     1       3.252   2.688  29.707  0.00  0.00    +0.032 C 
BRANCH  43  44
ATOM     44  C   UNL     1       4.463   3.602  29.570  0.00  0.00    +0.003 C 
BRANCH  44  45
ATOM     45  C   UNL     1       5.617   3.224  30.485  0.00  0.00    +0.015 C 
BRANCH  45  46
ATOM     46  C   UNL     1       6.528   2.265  29.727  0.00  0.00    +0.077 C 
BRANCH  46  47
ATOM     47  N   UNL     1       7.908   2.708  29.822  0.00  0.00    -0.330 NA
ATOM     48  H   UNL     1       8.500   1.891  29.975  0.00  0.00    +0.118 HD
ATOM     49  H   UNL     1       8.184   3.088  28.919  0.00  0.00    +0.118 HD
ENDBRANCH  46  47
ENDBRANCH  45  46
ENDBRANCH  44  45
ENDBRANCH  43  44
ENDBRANCH  28  43
ENDBRANCH  24  28
ENDBRANCH   1  26
BRANCH   1  50
ATOM     50  C   UNL     1       6.567   2.950  26.147  0.00  0.00    +0.067 C 
BRANCH  50  51
ATOM     51  C   UNL     1       7.858   3.128  25.376  0.00  0.00    -0.043 A 
ATOM     52  C   UNL     1       8.309   4.407  25.013  0.00  0.00    +0.022 A 
ATOM     53  C   UNL     1       9.450   4.559  24.219  0.00  0.00    +0.061 A 
ATOM     54 BR   UNL     1      10.025   6.309  23.772  0.00  0.00    -0.046 Br
ATOM     55  C   UNL     1      10.155   3.439  23.772  0.00  0.00    +0.145 A 
ATOM     56  C   UNL     1       9.738   2.166  24.167  0.00  0.00    +0.061 A 
ATOM     57 BR   UNL     1      10.696   0.610  23.655  0.00  0.00    -0.046 Br
ATOM     58  C   UNL     1       8.601   2.011  24.969  0.00  0.00    +0.022 A 
BRANCH  55  59
ATOM     59  O   UNL     1      11.249   3.568  22.958  0.00  0.00    -0.505 OA
ATOM     60  H   UNL     1      11.084   4.303  22.341  0.00  0.00    +0.292 HD
ENDBRANCH  55  59
ENDBRANCH  50  51
ENDBRANCH   1  50
TORSDOF 14
ENDMDL
MODEL 5
REMARK VINA RESULT:      -6.8      3.748      9.624
REMARK  Name = 
REMARK  14 active torsions:
REMARK  status: ('A' for Active; 'I' for Inactive)
REMARK    1  A    between atoms: N_1  and  C_2
REMARK    2  A    between atoms: C_2  and  C_3
REMARK    3  A    between atoms: C_3  and  C_4
REMARK    4  A    between atoms: C_4  and  C_5
REMARK    5  A    between atoms: C_5  and  C_6
REMARK    6  A    between atoms: C_6  and  N_7
REMARK    7  A    between atoms: C_6  and  C_41
REMARK    8  A    between atoms: C_8  and  C_10
REMARK    9  A    between atoms: C_10  and  C_11
REMARK   10  A    between atoms: C_10  and  N_21
REMARK   11  A    between atoms: C_11  and  C_12
REMARK   12  A    between atoms: C_16  and  O_17
REMARK   13  A    between atoms: C_27  and  N_30
REMARK   14  A    between atoms: N_46  and  C_49
REMARK                            x       y       z     vdW  Elec       q    Type
REMARK                         _______ _______ _______ _____ _____    ______ ____
ROOT
ATOM      1  C   UNL     1       6.301   1.147  25.138  0.00  0.00    +0.165 C 
ENDROOT
BRANCH   1   2
ATOM      2  N   UNL     1       5.395   0.129  25.668  0.00  0.00    -0.288 N 
ATOM      3  H   UNL     1       5.222  -0.666  25.067  0.00  0.00    +0.151 HD
ATOM      4  C   UNL     1       5.342  -0.124  27.010  0.00  0.00    +0.303 C 
ATOM      5  N   UNL     1       4.322  -0.959  27.428  0.00  0.00    -0.286 N 
ATOM      6  C   UNL     1       3.395  -1.712  26.571  0.00  0.00    +0.111 C 
ATOM      7  C   UNL     1       1.964  -1.671  27.113  0.00  0.00    +0.041 C 
ATOM      8  C   UNL     1       1.892  -2.157  28.583  0.00  0.00    +0.081 C 
ATOM      9  C   UNL     1       2.789  -1.169  29.359  0.00  0.00    +0.041 C 
ATOM     10  C   UNL     1       4.233  -1.260  28.859  0.00  0.00    +0.111 C 
ATOM     11  O   UNL     1       6.134   0.420  27.777  0.00  0.00    -0.253 OA
BRANCH   8  12
ATOM     12  N   UNL     1       2.315  -3.567  28.789  0.00  0.00    -0.278 N 
ATOM     13  C   UNL     1       1.753  -4.613  28.067  0.00  0.00    +0.307 C 
ATOM     14  O   UNL     1       0.714  -4.558  27.417  0.00  0.00    -0.252 OA
ATOM     15  N   UNL     1       2.543  -5.730  27.970  0.00  0.00    -0.269 N 
ATOM     16  H   UNL     1       2.253  -6.399  27.271  0.00  0.00    +0.156 HD
ATOM     17  C   UNL     1       3.740  -5.900  28.662  0.00  0.00    +0.039 A 
ATOM     18  C   UNL     1       4.024  -5.033  29.716  0.00  0.00    -0.009 A 
ATOM     19  C   UNL     1       5.172  -5.242  30.485  0.00  0.00    +0.007 A 
ATOM     20  C   UNL     1       6.054  -6.271  30.151  0.00  0.00    +0.000 A 
ATOM     21  C   UNL     1       5.782  -7.102  29.062  0.00  0.00    +0.002 A 
ATOM     22  C   UNL     1       4.611  -6.928  28.325  0.00  0.00    +0.023 A 
ATOM     23  C   UNL     1       3.025  -3.956  30.011  0.00  0.00    +0.146 C 
ENDBRANCH   8  12
ENDBRANCH   1   2
BRANCH   1  26
ATOM     24  N   UNL     1       7.722  -0.345  23.725  0.00  0.00    -0.302 N 
ATOM     25  H   UNL     1       6.901  -0.446  23.131  0.00  0.00    +0.150 HD
ATOM     26  C   UNL     1       7.658   0.482  24.827  0.00  0.00    +0.234 C 
ATOM     27  O   UNL     1       8.668   0.769  25.477  0.00  0.00    -0.274 OA
BRANCH  24  28
ATOM     28  C   UNL     1       9.009  -0.874  23.263  0.00  0.00    +0.159 C 
BRANCH  28  29
ATOM     29  C   UNL     1       9.166  -2.410  23.327  0.00  0.00    +0.236 C 
ATOM     30  N   UNL     1       7.994  -3.169  23.338  0.00  0.00    -0.297 N 
ATOM     31  C   UNL     1       7.937  -4.299  24.275  0.00  0.00    +0.126 C 
ATOM     32  C   UNL     1       6.991  -5.407  23.801  0.00  0.00    +0.124 C 
ATOM     33  N   UNL     1       5.662  -4.816  23.531  0.00  0.00    -0.327 N 
ATOM     34  C   UNL     1       5.709  -3.814  22.454  0.00  0.00    +0.124 C 
ATOM     35  C   UNL     1       6.684  -2.679  22.863  0.00  0.00    +0.126 C 
ATOM     36  O   UNL     1      10.277  -2.926  23.475  0.00  0.00    -0.274 OA
BRANCH  33  37
ATOM     37  C   UNL     1       4.577  -5.662  23.713  0.00  0.00    +0.033 A 
ATOM     38  C   UNL     1       4.649  -6.648  24.707  0.00  0.00    +0.043 A 
ATOM     39  C   UNL     1       3.583  -7.511  24.908  0.00  0.00    +0.112 A 
ATOM     40  N   UNL     1       2.447  -7.466  24.191  0.00  0.00    -0.263 NA
ATOM     41  C   UNL     1       2.378  -6.503  23.248  0.00  0.00    +0.112 A 
ATOM     42  C   UNL     1       3.392  -5.587  22.984  0.00  0.00    +0.043 A 
ENDBRANCH  33  37
ENDBRANCH  28  29
BRANCH  28  43
ATOM     43  C   UNL     1       9.321  -0.423  21.824  0.00  0.00    +0.032 C 
BRANCH  43  44
ATOM     44  C   UNL     1      10.013   0.933  21.872  0.00  0.00    +0.003 C 
BRANCH  44  45
ATOM     45  C   UNL     1       9.048   2.108  21.868  0.00  0.00    +0.015 C 
BRANCH  45  46
ATOM     46  C   UNL     1       9.453   3.056  22.992  0.00  0.00    +0.077 C 
BRANCH  46  47
ATOM     47  N   UNL     1      10.576   2.506  23.729  0.00  0.00    -0.330 NA
ATOM     48  H   UNL     1      10.323   2.457  24.716  0.00  0.00    +0.118 HD
ATOM     49  H   UNL     1      10.715   1.543  23.428  0.00  0.00    +0.118 HD
ENDBRANCH  46  47
ENDBRANCH  45  46
ENDBRANCH  44  45
ENDBRANCH  43  44
ENDBRANCH  28  43
ENDBRANCH  24  28
ENDBRANCH   1  26
BRANCH   1  50
ATOM     50  C   UNL     1       5.752   1.737  23.824  0.00  0.00    +0.067 C 
BRANCH  50  51
ATOM     51  C   UNL     1       5.288   3.177  23.880  0.00  0.00    -0.043 A 
ATOM     52  C   UNL     1       4.114   3.529  24.565  0.00  0.00    +0.022 A 
ATOM     53  C   UNL     1       3.639   4.843  24.531  0.00  0.00    +0.061 A 
ATOM     54 BR   UNL     1       2.058   5.268  25.488  0.00  0.00    -0.046 Br
ATOM     55  C   UNL     1       4.324   5.825  23.811  0.00  0.00    +0.145 A 
ATOM     56  C   UNL     1       5.516   5.492  23.165  0.00  0.00    +0.061 A 
ATOM     57 BR   UNL     1       6.532   6.796  22.233  0.00  0.00    -0.046 Br
ATOM     58  C   UNL     1       5.999   4.178  23.204  0.00  0.00    +0.022 A 
BRANCH  55  59
ATOM     59  O   UNL     1       3.849   7.108  23.732  0.00  0.00    -0.505 OA
ATOM     60  H   UNL     1       3.999   7.432  22.826  0.00  0.00    +0.292 HD
ENDBRANCH  55  59
ENDBRANCH  50  51
ENDBRANCH   1  50
TORSDOF 14
ENDMDL
MODEL 6
REMARK VINA RESULT:      -6.7      2.901      8.573
REMARK  Name = 
REMARK  14 active torsions:
REMARK  status: ('A' for Active; 'I' for Inactive)
REMARK    1  A    between atoms: N_1  and  C_2
REMARK    2  A    between atoms: C_2  and  C_3
REMARK    3  A    between atoms: C_3  and  C_4
REMARK    4  A    between atoms: C_4  and  C_5
REMARK    5  A    between atoms: C_5  and  C_6
REMARK    6  A    between atoms: C_6  and  N_7
REMARK    7  A    between atoms: C_6  and  C_41
REMARK    8  A    between atoms: C_8  and  C_10
REMARK    9  A    between atoms: C_10  and  C_11
REMARK   10  A    between atoms: C_10  and  N_21
REMARK   11  A    between atoms: C_11  and  C_12
REMARK   12  A    between atoms: C_16  and  O_17
REMARK   13  A    between atoms: C_27  and  N_30
REMARK   14  A    between atoms: N_46  and  C_49
REMARK                            x       y       z     vdW  Elec       q    Type
REMARK                         _______ _______ _______ _____ _____    ______ ____
ROOT
ATOM      1  C   UNL     1       6.230   4.163  27.074  0.00  0.00    +0.165 C 
ENDROOT
BRANCH   1   2
ATOM      2  N   UNL     1       5.916   2.745  26.902  0.00  0.00    -0.288 N 
ATOM      3  H   UNL     1       6.336   2.292  26.101  0.00  0.00    +0.151 HD
ATOM      4  C   UNL     1       5.702   1.944  27.988  0.00  0.00    +0.303 C 
ATOM      5  N   UNL     1       5.222   0.675  27.718  0.00  0.00    -0.286 N 
ATOM      6  C   UNL     1       5.065   0.058  26.393  0.00  0.00    +0.111 C 
ATOM      7  C   UNL     1       3.754  -0.726  26.287  0.00  0.00    +0.041 C 
ATOM      8  C   UNL     1       3.621  -1.778  27.416  0.00  0.00    +0.081 C 
ATOM      9  C   UNL     1       3.646  -0.949  28.719  0.00  0.00    +0.041 C 
ATOM     10  C   UNL     1       4.985  -0.218  28.855  0.00  0.00    +0.111 C 
ATOM     11  O   UNL     1       5.881   2.376  29.125  0.00  0.00    -0.253 OA
BRANCH   8  12
ATOM     12  N   UNL     1       4.672  -2.829  27.409  0.00  0.00    -0.278 N 
ATOM     13  C   UNL     1       4.369  -4.169  27.622  0.00  0.00    +0.307 C 
ATOM     14  O   UNL     1       3.320  -4.600  28.090  0.00  0.00    -0.252 OA
ATOM     15  N   UNL     1       5.280  -5.051  27.102  0.00  0.00    -0.269 N 
ATOM     16  H   UNL     1       4.966  -6.009  27.048  0.00  0.00    +0.156 HD
ATOM     17  C   UNL     1       6.501  -4.673  26.548  0.00  0.00    +0.039 A 
ATOM     18  C   UNL     1       6.959  -3.376  26.775  0.00  0.00    -0.009 A 
ATOM     19  C   UNL     1       8.222  -3.003  26.310  0.00  0.00    +0.007 A 
ATOM     20  C   UNL     1       8.984  -3.907  25.567  0.00  0.00    +0.000 A 
ATOM     21  C   UNL     1       8.492  -5.187  25.305  0.00  0.00    +0.002 A 
ATOM     22  C   UNL     1       7.254  -5.579  25.812  0.00  0.00    +0.023 A 
ATOM     23  C   UNL     1       6.082  -2.468  27.584  0.00  0.00    +0.146 C 
ENDBRANCH   8  12
ENDBRANCH   1   2
BRANCH   1  26
ATOM     24  N   UNL     1       7.930   3.634  25.321  0.00  0.00    -0.302 N 
ATOM     25  H   UNL     1       7.287   2.906  25.017  0.00  0.00    +0.150 HD
ATOM     26  C   UNL     1       7.570   4.458  26.368  0.00  0.00    +0.234 C 
ATOM     27  O   UNL     1       8.234   5.456  26.661  0.00  0.00    -0.274 OA
BRANCH  24  28
ATOM     28  C   UNL     1       9.096   3.952  24.491  0.00  0.00    +0.159 C 
BRANCH  28  29
ATOM     29  C   UNL     1       9.804   2.743  23.838  0.00  0.00    +0.236 C 
ATOM     30  N   UNL     1       9.026   1.613  23.579  0.00  0.00    -0.297 N 
ATOM     31  C   UNL     1       9.616   0.307  23.901  0.00  0.00    +0.126 C 
ATOM     32  C   UNL     1       9.044  -0.824  23.039  0.00  0.00    +0.124 C 
ATOM     33  N   UNL     1       7.570  -0.813  23.157  0.00  0.00    -0.327 N 
ATOM     34  C   UNL     1       6.981   0.439  22.653  0.00  0.00    +0.124 C 
ATOM     35  C   UNL     1       7.553   1.628  23.468  0.00  0.00    +0.126 C 
ATOM     36  O   UNL     1      11.025   2.747  23.660  0.00  0.00    -0.274 OA
BRANCH  33  37
ATOM     37  C   UNL     1       6.943  -2.043  23.005  0.00  0.00    +0.033 A 
ATOM     38  C   UNL     1       7.586  -3.040  22.258  0.00  0.00    +0.043 A 
ATOM     39  C   UNL     1       6.982  -4.275  22.085  0.00  0.00    +0.112 A 
ATOM     40  N   UNL     1       5.783  -4.594  22.601  0.00  0.00    -0.263 NA
ATOM     41  C   UNL     1       5.178  -3.635  23.334  0.00  0.00    +0.112 A 
ATOM     42  C   UNL     1       5.712  -2.372  23.570  0.00  0.00    +0.043 A 
ENDBRANCH  33  37
ENDBRANCH  28  29
BRANCH  28  43
ATOM     43  C   UNL     1       8.739   4.953  23.377  0.00  0.00    +0.032 C 
BRANCH  43  44
ATOM     44  C   UNL     1       9.694   6.137  23.454  0.00  0.00    +0.003 C 
BRANCH  44  45
ATOM     45  C   UNL     1      10.692   6.040  24.597  0.00  0.00    +0.015 C 
BRANCH  45  46
ATOM     46  C   UNL     1      12.096   6.082  24.005  0.00  0.00    +0.077 C 
BRANCH  46  47
ATOM     47  N   UNL     1      12.115   5.405  22.720  0.00  0.00    -0.330 NA
ATOM     48  H   UNL     1      11.165   5.105  22.498  0.00  0.00    +0.118 HD
ATOM     49  H   UNL     1      12.367   6.085  22.005  0.00  0.00    +0.118 HD
ENDBRANCH  46  47
ENDBRANCH  45  46
ENDBRANCH  44  45
ENDBRANCH  43  44
ENDBRANCH  28  43
ENDBRANCH  24  28
ENDBRANCH   1  26
BRANCH   1  50
ATOM     50  C   UNL     1       5.148   5.046  26.422  0.00  0.00    +0.067 C 
BRANCH  50  51
ATOM     51  C   UNL     1       4.044   4.317  25.685  0.00  0.00    -0.043 A 
ATOM     52  C   UNL     1       4.003   4.304  24.282  0.00  0.00    +0.022 A 
ATOM     53  C   UNL     1       2.929   3.712  23.609  0.00  0.00    +0.061 A 
ATOM     54 BR   UNL     1       2.932   3.706  21.712  0.00  0.00    -0.046 Br
ATOM     55  C   UNL     1       1.881   3.129  24.324  0.00  0.00    +0.145 A 
ATOM     56  C   UNL     1       1.938   3.099  25.718  0.00  0.00    +0.061 A 
ATOM     57 BR   UNL     1       0.581   2.257  26.744  0.00  0.00    -0.046 Br
ATOM     58  C   UNL     1       3.015   3.683  26.395  0.00  0.00    +0.022 A 
BRANCH  55  59
ATOM     59  O   UNL     1       0.801   2.583  23.680  0.00  0.00    -0.505 OA
ATOM     60  H   UNL     1       0.749   1.641  23.919  0.00  0.00    +0.292 HD
ENDBRANCH  55  59
ENDBRANCH  50  51
ENDBRANCH   1  50
TORSDOF 14
ENDMDL
MODEL 7
REMARK VINA RESULT:      -6.6      3.311      8.534
REMARK  Name = 
REMARK  14 active torsions:
REMARK  status: ('A' for Active; 'I' for Inactive)
REMARK    1  A    between atoms: N_1  and  C_2
REMARK    2  A    between atoms: C_2  and  C_3
REMARK    3  A    between atoms: C_3  and  C_4
REMARK    4  A    between atoms: C_4  and  C_5
REMARK    5  A    between atoms: C_5  and  C_6
REMARK    6  A    between atoms: C_6  and  N_7
REMARK    7  A    between atoms: C_6  and  C_41
REMARK    8  A    between atoms: C_8  and  C_10
REMARK    9  A    between atoms: C_10  and  C_11
REMARK   10  A    between atoms: C_10  and  N_21
REMARK   11  A    between atoms: C_11  and  C_12
REMARK   12  A    between atoms: C_16  and  O_17
REMARK   13  A    between atoms: C_27  and  N_30
REMARK   14  A    between atoms: N_46  and  C_49
REMARK                            x       y       z     vdW  Elec       q    Type
REMARK                         _______ _______ _______ _____ _____    ______ ____
ROOT
ATOM      1  C   UNL     1       7.195   4.713  27.185  0.00  0.00    +0.165 C 
ENDROOT
BRANCH   1   2
ATOM      2  N   UNL     1       6.472   3.451  27.033  0.00  0.00    -0.288 N 
ATOM      3  H   UNL     1       6.397   3.095  26.090  0.00  0.00    +0.151 HD
ATOM      4  C   UNL     1       6.508   2.506  28.019  0.00  0.00    +0.303 C 
ATOM      5  N   UNL     1       5.640   1.440  27.868  0.00  0.00    -0.286 N 
ATOM      6  C   UNL     1       4.804   1.147  26.694  0.00  0.00    +0.111 C 
ATOM      7  C   UNL     1       3.404   0.679  27.101  0.00  0.00    +0.041 C 
ATOM      8  C   UNL     1       3.461  -0.531  28.067  0.00  0.00    +0.081 C 
ATOM      9  C   UNL     1       4.229  -0.004  29.298  0.00  0.00    +0.041 C 
ATOM     10  C   UNL     1       5.651   0.402  28.901  0.00  0.00    +0.111 C 
ATOM     11  O   UNL     1       7.238   2.655  28.998  0.00  0.00    -0.253 OA
BRANCH   8  12
ATOM     12  N   UNL     1       4.097  -1.747  27.497  0.00  0.00    -0.278 N 
ATOM     13  C   UNL     1       4.257  -2.909  28.244  0.00  0.00    +0.307 C 
ATOM     14  O   UNL     1       4.162  -2.993  29.464  0.00  0.00    -0.252 OA
ATOM     15  N   UNL     1       4.366  -4.056  27.501  0.00  0.00    -0.269 N 
ATOM     16  H   UNL     1       4.254  -4.914  28.021  0.00  0.00    +0.156 HD
ATOM     17  C   UNL     1       4.481  -4.077  26.113  0.00  0.00    +0.039 A 
ATOM     18  C   UNL     1       4.780  -2.885  25.455  0.00  0.00    -0.009 A 
ATOM     19  C   UNL     1       4.993  -2.899  24.074  0.00  0.00    +0.007 A 
ATOM     20  C   UNL     1       4.838  -4.088  23.359  0.00  0.00    +0.000 A 
ATOM     21  C   UNL     1       4.489  -5.265  24.025  0.00  0.00    +0.002 A 
ATOM     22  C   UNL     1       4.327  -5.265  25.410  0.00  0.00    +0.023 A 
ATOM     23  C   UNL     1       4.932  -1.653  26.296  0.00  0.00    +0.146 C 
ENDBRANCH   8  12
ENDBRANCH   1   2
BRANCH   1  26
ATOM     24  N   UNL     1       8.215   3.840  25.077  0.00  0.00    -0.302 N 
ATOM     25  H   UNL     1       7.591   3.043  25.189  0.00  0.00    +0.150 HD
ATOM     26  C   UNL     1       8.158   4.873  25.989  0.00  0.00    +0.234 C 
ATOM     27  O   UNL     1       8.768   5.931  25.805  0.00  0.00    -0.274 OA
BRANCH  24  28
ATOM     28  C   UNL     1       8.969   3.989  23.829  0.00  0.00    +0.159 C 
BRANCH  28  29
ATOM     29  C   UNL     1       9.928   2.828  23.482  0.00  0.00    +0.236 C 
ATOM     30  N   UNL     1       9.507   1.536  23.807  0.00  0.00    -0.297 N 
ATOM     31  C   UNL     1      10.503   0.640  24.409  0.00  0.00    +0.126 C 
ATOM     32  C   UNL     1      10.204  -0.838  24.135  0.00  0.00    +0.124 C 
ATOM     33  N   UNL     1       8.823  -1.133  24.576  0.00  0.00    -0.327 N 
ATOM     34  C   UNL     1       7.823  -0.356  23.825  0.00  0.00    +0.124 C 
ATOM     35  C   UNL     1       8.099   1.156  24.035  0.00  0.00    +0.126 C 
ATOM     36  O   UNL     1      11.058   3.052  23.040  0.00  0.00    -0.274 OA
BRANCH  33  37
ATOM     37  C   UNL     1       8.589  -2.435  24.997  0.00  0.00    +0.033 A 
ATOM     38  C   UNL     1       8.597  -3.464  24.045  0.00  0.00    +0.043 A 
ATOM     39  C   UNL     1       8.361  -4.773  24.435  0.00  0.00    +0.112 A 
ATOM     40  N   UNL     1       8.116  -5.135  25.707  0.00  0.00    -0.263 NA
ATOM     41  C   UNL     1       8.127  -4.142  26.620  0.00  0.00    +0.112 A 
ATOM     42  C   UNL     1       8.365  -2.803  26.322  0.00  0.00    +0.043 A 
ENDBRANCH  33  37
ENDBRANCH  28  29
BRANCH  28  43
ATOM     43  C   UNL     1       8.033   4.209  22.626  0.00  0.00    +0.032 C 
BRANCH  43  44
ATOM     44  C   UNL     1       6.590   4.054  23.090  0.00  0.00    +0.003 C 
BRANCH  44  45
ATOM     45  C   UNL     1       5.782   3.080  22.249  0.00  0.00    +0.015 C 
BRANCH  45  46
ATOM     46  C   UNL     1       4.303   3.382  22.464  0.00  0.00    +0.077 C 
BRANCH  46  47
ATOM     47  N   UNL     1       3.790   2.594  23.570  0.00  0.00    -0.330 NA
ATOM     48  H   UNL     1       4.263   1.690  23.570  0.00  0.00    +0.118 HD
ATOM     49  H   UNL     1       4.059   3.051  24.440  0.00  0.00    +0.118 HD
ENDBRANCH  46  47
ENDBRANCH  45  46
ENDBRANCH  44  45
ENDBRANCH  43  44
ENDBRANCH  28  43
ENDBRANCH  24  28
ENDBRANCH   1  26
BRANCH   1  50
ATOM     50  C   UNL     1       6.221   5.907  27.170  0.00  0.00    +0.067 C 
BRANCH  50  51
ATOM     51  C   UNL     1       4.960   5.731  26.351  0.00  0.00    -0.043 A 
ATOM     52  C   UNL     1       4.823   6.352  25.099  0.00  0.00    +0.022 A 
ATOM     53  C   UNL     1       3.620   6.266  24.392  0.00  0.00    +0.061 A 
ATOM     54 BR   UNL     1       3.495   7.108  22.697  0.00  0.00    -0.046 Br
ATOM     55  C   UNL     1       2.536   5.564  24.923  0.00  0.00    +0.145 A 
ATOM     56  C   UNL     1       2.680   4.906  26.146  0.00  0.00    +0.061 A 
ATOM     57 BR   UNL     1       1.269   3.875  26.886  0.00  0.00    -0.046 Br
ATOM     58  C   UNL     1       3.886   4.984  26.853  0.00  0.00    +0.022 A 
BRANCH  55  59
ATOM     59  O   UNL     1       1.336   5.506  24.263  0.00  0.00    -0.505 OA
ATOM     60  H   UNL     1       0.623   5.539  24.925  0.00  0.00    +0.292 HD
ENDBRANCH  55  59
ENDBRANCH  50  51
ENDBRANCH   1  50
TORSDOF 14
ENDMDL
MODEL 8
REMARK VINA RESULT:      -6.6      3.220      8.823
REMARK  Name = 
REMARK  14 active torsions:
REMARK  status: ('A' for Active; 'I' for Inactive)
REMARK    1  A    between atoms: N_1  and  C_2
REMARK    2  A    between atoms: C_2  and  C_3
REMARK    3  A    between atoms: C_3  and  C_4
REMARK    4  A    between atoms: C_4  and  C_5
REMARK    5  A    between atoms: C_5  and  C_6
REMARK    6  A    between atoms: C_6  and  N_7
REMARK    7  A    between atoms: C_6  and  C_41
REMARK    8  A    between atoms: C_8  and  C_10
REMARK    9  A    between atoms: C_10  and  C_11
REMARK   10  A    between atoms: C_10  and  N_21
REMARK   11  A    between atoms: C_11  and  C_12
REMARK   12  A    between atoms: C_16  and  O_17
REMARK   13  A    between atoms: C_27  and  N_30
REMARK   14  A    between atoms: N_46  and  C_49
REMARK                            x       y       z     vdW  Elec       q    Type
REMARK                         _______ _______ _______ _____ _____    ______ ____
ROOT
ATOM      1  C   UNL     1       6.179   3.529  27.955  0.00  0.00    +0.165 C 
ENDROOT
BRANCH   1   2
ATOM      2  N   UNL     1       5.626   2.240  27.544  0.00  0.00    -0.288 N 
ATOM      3  H   UNL     1       5.662   2.037  26.554  0.00  0.00    +0.151 HD
ATOM      4  C   UNL     1       5.704   1.155  28.371  0.00  0.00    +0.303 C 
ATOM      5  N   UNL     1       4.984   0.041  27.978  0.00  0.00    -0.286 N 
ATOM      6  C   UNL     1       4.276  -0.143  26.702  0.00  0.00    +0.111 C 
ATOM      7  C   UNL     1       2.917  -0.819  26.903  0.00  0.00    +0.041 C 
ATOM      8  C   UNL     1       3.049  -2.158  27.670  0.00  0.00    +0.081 C 
ATOM      9  C   UNL     1       3.658  -1.762  29.033  0.00  0.00    +0.041 C 
ATOM     10  C   UNL     1       5.045  -1.146  28.834  0.00  0.00    +0.111 C 
ATOM     11  O   UNL     1       6.338   1.218  29.423  0.00  0.00    -0.253 OA
BRANCH   8  12
ATOM     12  N   UNL     1       3.867  -3.189  26.979  0.00  0.00    -0.278 N 
ATOM     13  C   UNL     1       4.161  -4.411  27.573  0.00  0.00    +0.307 C 
ATOM     14  O   UNL     1       4.038  -4.675  28.765  0.00  0.00    -0.252 OA
ATOM     15  N   UNL     1       4.453  -5.419  26.692  0.00  0.00    -0.269 N 
ATOM     16  H   UNL     1       4.444  -6.349  27.087  0.00  0.00    +0.156 HD
ATOM     17  C   UNL     1       4.617  -5.233  25.321  0.00  0.00    +0.039 A 
ATOM     18  C   UNL     1       4.770  -3.933  24.843  0.00  0.00    -0.009 A 
ATOM     19  C   UNL     1       5.029  -3.728  23.485  0.00  0.00    +0.007 A 
ATOM     20  C   UNL     1       5.064  -4.817  22.612  0.00  0.00    +0.000 A 
ATOM     21  C   UNL     1       4.860  -6.110  23.097  0.00  0.00    +0.002 A 
ATOM     22  C   UNL     1       4.653  -6.322  24.460  0.00  0.00    +0.023 A 
ATOM     23  C   UNL     1       4.720  -2.820  25.846  0.00  0.00    +0.146 C 
ENDBRANCH   8  12
ENDBRANCH   1   2
BRANCH   1  26
ATOM     24  N   UNL     1       7.386   3.169  25.797  0.00  0.00    -0.302 N 
ATOM     25  H   UNL     1       6.790   2.351  25.682  0.00  0.00    +0.150 HD
ATOM     26  C   UNL     1       7.219   3.974  26.905  0.00  0.00    +0.234 C 
ATOM     27  O   UNL     1       7.795   5.061  27.005  0.00  0.00    -0.274 OA
BRANCH  24  28
ATOM     28  C   UNL     1       8.223   3.608  24.677  0.00  0.00    +0.159 C 
BRANCH  28  29
ATOM     29  C   UNL     1       9.265   2.583  24.175  0.00  0.00    +0.236 C 
ATOM     30  N   UNL     1       8.968   1.231  24.359  0.00  0.00    -0.297 N 
ATOM     31  C   UNL     1      10.056   0.364  24.831  0.00  0.00    +0.126 C 
ATOM     32  C   UNL     1       9.875  -1.094  24.396  0.00  0.00    +0.124 C 
ATOM     33  N   UNL     1       8.540  -1.558  24.832  0.00  0.00    -0.327 N 
ATOM     34  C   UNL     1       7.452  -0.793  24.201  0.00  0.00    +0.124 C 
ATOM     35  C   UNL     1       7.605   0.704  24.576  0.00  0.00    +0.126 C 
ATOM     36  O   UNL     1      10.357   2.954  23.735  0.00  0.00    -0.274 OA
BRANCH  33  37
ATOM     37  C   UNL     1       8.432  -2.915  25.107  0.00  0.00    +0.033 A 
ATOM     38  C   UNL     1       8.195  -3.319  26.428  0.00  0.00    +0.043 A 
ATOM     39  C   UNL     1       8.088  -4.666  26.734  0.00  0.00    +0.112 A 
ATOM     40  N   UNL     1       8.201  -5.646  25.819  0.00  0.00    -0.263 NA
ATOM     41  C   UNL     1       8.412  -5.248  24.547  0.00  0.00    +0.112 A 
ATOM     42  C   UNL     1       8.521  -3.921  24.146  0.00  0.00    +0.043 A 
ENDBRANCH  33  37
ENDBRANCH  28  29
BRANCH  28  43
ATOM     43  C   UNL     1       7.370   4.047  23.473  0.00  0.00    +0.032 C 
BRANCH  43  44
ATOM     44  C   UNL     1       8.000   5.285  22.847  0.00  0.00    +0.003 C 
BRANCH  44  45
ATOM     45  C   UNL     1       8.171   6.438  23.821  0.00  0.00    +0.015 C 
BRANCH  45  46
ATOM     46  C   UNL     1       9.664   6.681  24.012  0.00  0.00    +0.077 C 
BRANCH  46  47
ATOM     47  N   UNL     1      10.418   5.979  22.988  0.00  0.00    -0.330 NA
ATOM     48  H   UNL     1      10.603   5.030  23.316  0.00  0.00    +0.118 HD
ATOM     49  H   UNL     1       9.825   5.879  22.166  0.00  0.00    +0.118 HD
ENDBRANCH  46  47
ENDBRANCH  45  46
ENDBRANCH  44  45
ENDBRANCH  43  44
ENDBRANCH  28  43
ENDBRANCH  24  28
ENDBRANCH   1  26
BRANCH   1  50
ATOM     50  C   UNL     1       5.075   4.605  28.011  0.00  0.00    +0.067 C 
BRANCH  50  51
ATOM     51  C   UNL     1       4.146   4.672  26.817  0.00  0.00    -0.043 A 
ATOM     52  C   UNL     1       2.971   3.906  26.776  0.00  0.00    +0.022 A 
ATOM     53  C   UNL     1       2.168   3.898  25.631  0.00  0.00    +0.061 A 
ATOM     54 BR   UNL     1       0.581   2.860  25.636  0.00  0.00    -0.046 Br
ATOM     55  C   UNL     1       2.527   4.651  24.510  0.00  0.00    +0.145 A 
ATOM     56  C   UNL     1       3.670   5.450  24.561  0.00  0.00    +0.061 A 
ATOM     57 BR   UNL     1       4.170   6.551  23.099  0.00  0.00    -0.046 Br
ATOM     58  C   UNL     1       4.472   5.466  25.709  0.00  0.00    +0.022 A 
BRANCH  55  59
ATOM     59  O   UNL     1       1.774   4.621  23.366  0.00  0.00    -0.505 OA
ATOM     60  H   UNL     1       1.688   5.532  23.034  0.00  0.00    +0.292 HD
ENDBRANCH  55  59
ENDBRANCH  50  51
ENDBRANCH   1  50
TORSDOF 14
ENDMDL
MODEL 9
REMARK VINA RESULT:      -6.5      3.485     10.763
REMARK  Name = 
REMARK  14 active torsions:
REMARK  status: ('A' for Active; 'I' for Inactive)
REMARK    1  A    between atoms: N_1  and  C_2
REMARK    2  A    between atoms: C_2  and  C_3
REMARK    3  A    between atoms: C_3  and  C_4
REMARK    4  A    between atoms: C_4  and  C_5
REMARK    5  A    between atoms: C_5  and  C_6
REMARK    6  A    between atoms: C_6  and  N_7
REMARK    7  A    between atoms: C_6  and  C_41
REMARK    8  A    between atoms: C_8  and  C_10
REMARK    9  A    between atoms: C_10  and  C_11
REMARK   10  A    between atoms: C_10  and  N_21
REMARK   11  A    between atoms: C_11  and  C_12
REMARK   12  A    between atoms: C_16  and  O_17
REMARK   13  A    between atoms: C_27  and  N_30
REMARK   14  A    between atoms: N_46  and  C_49
REMARK                            x       y       z     vdW  Elec       q    Type
REMARK                         _______ _______ _______ _____ _____    ______ ____
ROOT
ATOM      1  C   UNL     1       5.695   0.776  25.592  0.00  0.00    +0.165 C 
ENDROOT
BRANCH   1   2
ATOM      2  N   UNL     1       5.608  -0.650  25.900  0.00  0.00    -0.288 N 
ATOM      3  H   UNL     1       5.029  -0.898  26.691  0.00  0.00    +0.151 HD
ATOM      4  C   UNL     1       5.675  -1.583  24.903  0.00  0.00    +0.303 C 
ATOM      5  N   UNL     1       5.781  -2.900  25.312  0.00  0.00    -0.286 N 
ATOM      6  C   UNL     1       5.677  -3.403  26.690  0.00  0.00    +0.111 C 
ATOM      7  C   UNL     1       6.723  -4.485  26.976  0.00  0.00    +0.041 C 
ATOM      8  C   UNL     1       6.649  -5.641  25.948  0.00  0.00    +0.081 C 
ATOM      9  C   UNL     1       6.934  -4.966  24.589  0.00  0.00    +0.041 C 
ATOM     10  C   UNL     1       5.851  -3.931  24.274  0.00  0.00    +0.111 C 
ATOM     11  O   UNL     1       5.696  -1.233  23.725  0.00  0.00    -0.253 OA
BRANCH   8  12
ATOM     12  N   UNL     1       5.359  -6.379  25.938  0.00  0.00    -0.278 N 
ATOM     13  C   UNL     1       4.884  -7.038  27.066  0.00  0.00    +0.307 C 
ATOM     14  O   UNL     1       5.544  -7.321  28.061  0.00  0.00    -0.252 OA
ATOM     15  N   UNL     1       3.525  -7.223  27.091  0.00  0.00    -0.269 N 
ATOM     16  H   UNL     1       3.146  -7.489  27.989  0.00  0.00    +0.156 HD
ATOM     17  C   UNL     1       2.681  -6.938  26.020  0.00  0.00    +0.039 A 
ATOM     18  C   UNL     1       3.251  -6.721  24.767  0.00  0.00    -0.009 A 
ATOM     19  C   UNL     1       2.420  -6.527  23.661  0.00  0.00    +0.007 A 
ATOM     20  C   UNL     1       1.035  -6.486  23.830  0.00  0.00    +0.000 A 
ATOM     21  C   UNL     1       0.480  -6.657  25.099  0.00  0.00    +0.002 A 
ATOM     22  C   UNL     1       1.304  -6.902  26.197  0.00  0.00    +0.023 A 
ATOM     23  C   UNL     1       4.746  -6.783  24.670  0.00  0.00    +0.146 C 
ENDBRANCH   8  12
ENDBRANCH   1   2
BRANCH   1  26
ATOM     24  N   UNL     1       4.706   1.691  27.696  0.00  0.00    -0.302 N 
ATOM     25  H   UNL     1       5.568   1.391  28.147  0.00  0.00    +0.150 HD
ATOM     26  C   UNL     1       4.559   1.509  26.336  0.00  0.00    +0.234 C 
ATOM     27  O   UNL     1       3.612   2.004  25.717  0.00  0.00    -0.274 OA
BRANCH  24  28
ATOM     28  C   UNL     1       3.759   2.526  28.442  0.00  0.00    +0.159 C 
BRANCH  28  29
ATOM     29  C   UNL     1       2.511   1.798  28.991  0.00  0.00    +0.236 C 
ATOM     30  N   UNL     1       2.639   0.434  29.264  0.00  0.00    -0.297 N 
ATOM     31  C   UNL     1       1.532  -0.437  28.848  0.00  0.00    +0.126 C 
ATOM     32  C   UNL     1       1.426  -1.702  29.707  0.00  0.00    +0.124 C 
ATOM     33  N   UNL     1       2.735  -2.391  29.702  0.00  0.00    -0.327 N 
ATOM     34  C   UNL     1       3.799  -1.566  30.297  0.00  0.00    +0.124 C 
ATOM     35  C   UNL     1       3.928  -0.249  29.488  0.00  0.00    +0.126 C 
ATOM     36  O   UNL     1       1.426   2.380  29.076  0.00  0.00    -0.274 OA
BRANCH  33  37
ATOM     37  C   UNL     1       2.691  -3.771  29.853  0.00  0.00    +0.033 A 
ATOM     38  C   UNL     1       3.831  -4.434  30.329  0.00  0.00    +0.043 A 
ATOM     39  C   UNL     1       3.819  -5.810  30.485  0.00  0.00    +0.112 A 
ATOM     40  N   UNL     1       2.754  -6.580  30.200  0.00  0.00    -0.263 NA
ATOM     41  C   UNL     1       1.655  -5.933  29.759  0.00  0.00    +0.112 A 
ATOM     42  C   UNL     1       1.572  -4.556  29.583  0.00  0.00    +0.043 A 
ENDBRANCH  33  37
ENDBRANCH  28  29
BRANCH  28  43
ATOM     43  C   UNL     1       4.446   3.246  29.617  0.00  0.00    +0.032 C 
BRANCH  43  44
ATOM     44  C   UNL     1       5.807   3.752  29.157  0.00  0.00    +0.003 C 
BRANCH  44  45
ATOM     45  C   UNL     1       5.725   4.859  28.119  0.00  0.00    +0.015 C 
BRANCH  45  46
ATOM     46  C   UNL     1       6.852   5.849  28.392  0.00  0.00    +0.077 C 
BRANCH  46  47
ATOM     47  N   UNL     1       7.905   5.692  27.405  0.00  0.00    -0.330 NA
ATOM     48  H   UNL     1       8.806   5.743  27.882  0.00  0.00    +0.118 HD
ATOM     49  H   UNL     1       7.845   4.751  27.021  0.00  0.00    +0.118 HD
ENDBRANCH  46  47
ENDBRANCH  45  46
ENDBRANCH  44  45
ENDBRANCH  43  44
ENDBRANCH  28  43
ENDBRANCH  24  28
ENDBRANCH   1  26
BRANCH   1  50
ATOM     50  C   UNL     1       7.034   1.361  26.081  0.00  0.00    +0.067 C 
BRANCH  50  51
ATOM     51  C   UNL     1       8.056   1.679  25.009  0.00  0.00    -0.043 A 
ATOM     52  C   UNL     1       8.584   2.973  24.880  0.00  0.00    +0.022 A 
ATOM     53  C   UNL     1       9.453   3.283  23.829  0.00  0.00    +0.061 A 
ATOM     54 BR   UNL     1      10.152   5.042  23.710  0.00  0.00    -0.046 Br
ATOM     55  C   UNL     1       9.805   2.310  22.891  0.00  0.00    +0.145 A 
ATOM     56  C   UNL     1       9.319   1.009  23.040  0.00  0.00    +0.061 A 
ATOM     57 BR   UNL     1       9.818  -0.375  21.842  0.00  0.00    -0.046 Br
ATOM     58  C   UNL     1       8.455   0.693  24.096  0.00  0.00    +0.022 A 
BRANCH  55  59
ATOM     59  O   UNL     1      10.620   2.608  21.831  0.00  0.00    -0.505 OA
ATOM     60  H   UNL     1      10.423   1.984  21.110  0.00  0.00    +0.292 HD
ENDBRANCH  55  59
ENDBRANCH  50  51
ENDBRANCH   1  50
TORSDOF 14
ENDMDL
