MODEL 1
REMARK VINA RESULT:      -8.2      0.000      0.000
REMARK  Name = 
REMARK  14 active torsions:
REMARK  status: ('A' for Active; 'I' for Inactive)
REMARK    1  A    between atoms: N_1  and  C_2
REMARK    2  A    between atoms: C_2  and  C_4
REMARK    3  A    between atoms: C_2  and  C_14
REMARK    4  A    between atoms: C_4  and  C_5
REMARK    5  A    between atoms: C_14  and  O_16
REMARK    6  A    between atoms: O_16  and  P_17
REMARK    7  A    between atoms: P_17  and  O_18
REMARK    8  A    between atoms: P_17  and  O_20
REMARK    9  A    between atoms: O_20  and  C_21
REMARK   10  A    between atoms: C_21  and  C_22
REMARK   11  A    between atoms: C_25  and  N_33
REMARK   12  A    between atoms: C_27  and  O_29
REMARK   13  A    between atoms: C_30  and  O_32
REMARK   14  A    between atoms: C_37  and  N_38
REMARK                            x       y       z     vdW  Elec       q    Type
REMARK                         _______ _______ _______ _____ _____    ______ ____
ROOT
ATOM      1  O   UNL     1       8.342  -2.608  22.226  0.00  0.00    -0.274 OA
ENDROOT
BRANCH   1   2
ATOM      2  P   UNL     1       9.401  -1.273  22.525  0.00  0.00    +0.533 P 
ATOM      3  O   UNL     1      10.590  -2.233  22.629  0.00  0.00    -0.215 OA
BRANCH   2   4
ATOM      4  O   UNL     1       9.356  -0.882  20.938  0.00  0.00    -0.293 OA
ATOM      5  H   UNL     1      10.273  -0.684  20.668  0.00  0.00    +0.223 HD
ENDBRANCH   2   4
BRANCH   2   6
ATOM      6  O   UNL     1      10.460   0.062  22.824  0.00  0.00    -0.370 OA
BRANCH   6   7
ATOM      7  C   UNL     1      10.240   0.653  24.017  0.00  0.00    +0.332 C 
ATOM      8  O   UNL     1      11.135   0.803  24.843  0.00  0.00    -0.249 OA
BRANCH   7   9
ATOM      9  C   UNL     1       8.777   1.096  24.185  0.00  0.00    +0.166 C 
BRANCH   9  10
ATOM     10  N   UNL     1       8.522   1.402  25.616  0.00  0.00    -0.318 NA
ATOM     11  H   UNL     1       9.385   1.270  26.145  0.00  0.00    +0.119 HD
ATOM     12  H   UNL     1       8.278   2.389  25.711  0.00  0.00    +0.119 HD
ENDBRANCH   9  10
BRANCH   9  13
ATOM     13  C   UNL     1       8.498   2.286  23.248  0.00  0.00    +0.067 C 
BRANCH  13  14
ATOM     14  C   UNL     1       8.846   3.632  23.817  0.00  0.00    -0.020 A 
ATOM     15  C   UNL     1      10.123   4.282  23.772  0.00  0.00    +0.003 A 
ATOM     16  C   UNL     1       9.985   5.526  24.387  0.00  0.00    +0.047 A 
ATOM     17  C   UNL     1      11.046   6.434  24.506  0.00  0.00    +0.026 A 
ATOM     18  C   UNL     1      12.287   6.053  23.989  0.00  0.00    +0.002 A 
ATOM     19  C   UNL     1      12.459   4.815  23.377  0.00  0.00    +0.001 A 
ATOM     20  N   UNL     1       8.678   5.633  24.798  0.00  0.00    -0.360 N 
ATOM     21  H   UNL     1       8.289   6.438  25.270  0.00  0.00    +0.165 HD
ATOM     22  C   UNL     1      11.388   3.924  23.259  0.00  0.00    +0.010 A 
ATOM     23  C   UNL     1       7.983   4.501  24.459  0.00  0.00    +0.087 A 
ENDBRANCH  13  14
ENDBRANCH   9  13
ENDBRANCH   7   9
ENDBRANCH   6   7
ENDBRANCH   2   6
ENDBRANCH   1   2
BRANCH   1  24
ATOM     24  C   UNL     1       7.210  -2.660  23.089  0.00  0.00    +0.207 C 
BRANCH  24  25
ATOM     25  C   UNL     1       7.614  -3.185  24.470  0.00  0.00    +0.178 C 
ATOM     26  C   UNL     1       8.479  -4.442  24.422  0.00  0.00    +0.178 C 
ATOM     27  C   UNL     1       8.003  -5.292  25.601  0.00  0.00    +0.195 C 
ATOM     28  C   UNL     1       6.881  -4.465  26.241  0.00  0.00    +0.253 C 
ATOM     29  O   UNL     1       6.451  -3.513  25.250  0.00  0.00    -0.346 OA
BRANCH  28  30
ATOM     30  N   UNL     1       5.748  -5.265  26.671  0.00  0.00    -0.286 N 
ATOM     31  C   UNL     1       5.528  -5.720  27.946  0.00  0.00    +0.167 A 
ATOM     32  C   UNL     1       4.336  -6.428  27.869  0.00  0.00    +0.147 A 
ATOM     33  C   UNL     1       3.873  -7.025  29.051  0.00  0.00    +0.147 A 
ATOM     34  N   UNL     1       4.586  -6.848  30.185  0.00  0.00    -0.219 NA
ATOM     35  C   UNL     1       5.731  -6.134  30.116  0.00  0.00    +0.225 A 
ATOM     36  N   UNL     1       3.827  -6.391  26.591  0.00  0.00    -0.231 NA
ATOM     37  N   UNL     1       6.298  -5.536  29.039  0.00  0.00    -0.216 NA
ATOM     38  C   UNL     1       4.696  -5.684  25.901  0.00  0.00    +0.203 A 
BRANCH  33  39
ATOM     39  N   UNL     1       2.711  -7.788  29.108  0.00  0.00    -0.341 N 
ATOM     40  H   UNL     1       2.309  -7.828  30.034  0.00  0.00    +0.144 HD
ATOM     41  H   UNL     1       2.087  -7.633  28.324  0.00  0.00    +0.144 HD
ENDBRANCH  33  39
ENDBRANCH  28  30
BRANCH  26  42
ATOM     42  O   UNL     1       9.861  -4.099  24.510  0.00  0.00    -0.386 OA
ATOM     43  H   UNL     1       9.923  -3.167  24.214  0.00  0.00    +0.210 HD
ENDBRANCH  26  42
BRANCH  27  44
ATOM     44  O   UNL     1       9.082  -5.579  26.501  0.00  0.00    -0.385 OA
ATOM     45  H   UNL     1       9.428  -6.462  26.251  0.00  0.00    +0.210 HD
ENDBRANCH  27  44
ENDBRANCH  24  25
ENDBRANCH   1  24
TORSDOF 14
ENDMDL
MODEL 2
REMARK VINA RESULT:      -8.1      3.664      8.142
REMARK  Name = 
REMARK  14 active torsions:
REMARK  status: ('A' for Active; 'I' for Inactive)
REMARK    1  A    between atoms: N_1  and  C_2
REMARK    2  A    between atoms: C_2  and  C_4
REMARK    3  A    between atoms: C_2  and  C_14
REMARK    4  A    between atoms: C_4  and  C_5
REMARK    5  A    between atoms: C_14  and  O_16
REMARK    6  A    between atoms: O_16  and  P_17
REMARK    7  A    between atoms: P_17  and  O_18
REMARK    8  A    between atoms: P_17  and  O_20
REMARK    9  A    between atoms: O_20  and  C_21
REMARK   10  A    between atoms: C_21  and  C_22
REMARK   11  A    between atoms: C_25  and  N_33
REMARK   12  A    between atoms: C_27  and  O_29
REMARK   13  A    between atoms: C_30  and  O_32
REMARK   14  A    between atoms: C_37  and  N_38
REMARK                            x       y       z     vdW  Elec       q    Type
REMARK                         _______ _______ _______ _____ _____    ______ ____
ROOT
ATOM      1  O   UNL     1       5.299  -1.351  24.715  0.00  0.00    -0.274 OA
ENDROOT
BRANCH   1   2
ATOM      2  P   UNL     1       6.011  -2.803  24.097  0.00  0.00    +0.533 P 
ATOM      3  O   UNL     1       4.757  -3.591  24.492  0.00  0.00    -0.215 OA
BRANCH   2   4
ATOM      4  O   UNL     1       5.693  -2.309  22.571  0.00  0.00    -0.293 OA
ATOM      5  H   UNL     1       6.490  -1.847  22.249  0.00  0.00    +0.223 HD
ENDBRANCH   2   4
BRANCH   2   6
ATOM      6  O   UNL     1       6.721  -4.254  23.480  0.00  0.00    -0.370 OA
BRANCH   6   7
ATOM      7  C   UNL     1       7.973  -4.466  23.938  0.00  0.00    +0.332 C 
ATOM      8  O   UNL     1       8.578  -5.509  23.716  0.00  0.00    -0.249 OA
BRANCH   7   9
ATOM      9  C   UNL     1       8.508  -3.266  24.739  0.00  0.00    +0.166 C 
BRANCH   9  10
ATOM     10  N   UNL     1       8.638  -3.654  26.167  0.00  0.00    -0.318 NA
ATOM     11  H   UNL     1       9.394  -4.334  26.261  0.00  0.00    +0.119 HD
ATOM     12  H   UNL     1       8.920  -2.838  26.713  0.00  0.00    +0.119 HD
ENDBRANCH   9  10
BRANCH   9  13
ATOM     13  C   UNL     1       9.832  -2.791  24.112  0.00  0.00    +0.067 C 
BRANCH  13  14
ATOM     14  C   UNL     1       9.692  -1.688  23.101  0.00  0.00    -0.020 A 
ATOM     15  C   UNL     1      10.059  -0.313  23.271  0.00  0.00    +0.003 A 
ATOM     16  C   UNL     1       9.791   0.346  22.071  0.00  0.00    +0.047 A 
ATOM     17  C   UNL     1      10.045   1.711  21.884  0.00  0.00    +0.026 A 
ATOM     18  C   UNL     1      10.580   2.426  22.959  0.00  0.00    +0.002 A 
ATOM     19  C   UNL     1      10.851   1.798  24.172  0.00  0.00    +0.001 A 
ATOM     20  N   UNL     1       9.275  -0.586  21.203  0.00  0.00    -0.360 N 
ATOM     21  H   UNL     1       8.996  -0.391  20.251  0.00  0.00    +0.165 HD
ATOM     22  C   UNL     1      10.598   0.433  24.340  0.00  0.00    +0.010 A 
ATOM     23  C   UNL     1       9.212  -1.813  21.811  0.00  0.00    +0.087 A 
ENDBRANCH  13  14
ENDBRANCH   9  13
ENDBRANCH   7   9
ENDBRANCH   6   7
ENDBRANCH   2   6
ENDBRANCH   1   2
BRANCH   1  24
ATOM     24  C   UNL     1       5.503  -1.149  26.110  0.00  0.00    +0.207 C 
BRANCH  24  25
ATOM     25  C   UNL     1       6.543  -0.049  26.345  0.00  0.00    +0.178 C 
ATOM     26  C   UNL     1       6.065   1.061  27.278  0.00  0.00    +0.178 C 
ATOM     27  C   UNL     1       6.647   2.347  26.689  0.00  0.00    +0.195 C 
ATOM     28  C   UNL     1       7.413   1.885  25.443  0.00  0.00    +0.253 C 
ATOM     29  O   UNL     1       6.905   0.582  25.103  0.00  0.00    -0.346 OA
BRANCH  28  30
ATOM     30  N   UNL     1       7.259   2.778  24.308  0.00  0.00    -0.286 N 
ATOM     31  C   UNL     1       7.807   4.030  24.195  0.00  0.00    +0.167 A 
ATOM     32  C   UNL     1       7.389   4.489  22.953  0.00  0.00    +0.147 A 
ATOM     33  C   UNL     1       7.802   5.776  22.578  0.00  0.00    +0.147 A 
ATOM     34  N   UNL     1       8.599   6.469  23.421  0.00  0.00    -0.219 NA
ATOM     35  C   UNL     1       8.931   5.900  24.601  0.00  0.00    +0.225 A 
ATOM     36  N   UNL     1       6.626   3.540  22.312  0.00  0.00    -0.231 NA
ATOM     37  N   UNL     1       8.575   4.685  25.090  0.00  0.00    -0.216 NA
ATOM     38  C   UNL     1       6.571   2.527  23.150  0.00  0.00    +0.203 A 
BRANCH  33  39
ATOM     39  N   UNL     1       7.430   6.370  21.377  0.00  0.00    -0.341 N 
ATOM     40  H   UNL     1       8.150   6.962  20.988  0.00  0.00    +0.144 HD
ATOM     41  H   UNL     1       6.939   5.742  20.750  0.00  0.00    +0.144 HD
ENDBRANCH  33  39
ENDBRANCH  28  30
BRANCH  26  42
ATOM     42  O   UNL     1       6.506   0.814  28.612  0.00  0.00    -0.386 OA
ATOM     43  H   UNL     1       5.941   1.371  29.186  0.00  0.00    +0.210 HD
ENDBRANCH  26  42
BRANCH  27  44
ATOM     44  O   UNL     1       7.473   3.026  27.644  0.00  0.00    -0.385 OA
ATOM     45  H   UNL     1       8.403   2.866  27.375  0.00  0.00    +0.210 HD
ENDBRANCH  27  44
ENDBRANCH  24  25
ENDBRANCH   1  24
TORSDOF 14
ENDMDL
MODEL 3
REMARK VINA RESULT:      -8.1      1.451      1.845
REMARK  Name = 
REMARK  14 active torsions:
REMARK  status: ('A' for Active; 'I' for Inactive)
REMARK    1  A    between atoms: N_1  and  C_2
REMARK    2  A    between atoms: C_2  and  C_4
REMARK    3  A    between atoms: C_2  and  C_14
REMARK    4  A    between atoms: C_4  and  C_5
REMARK    5  A    between atoms: C_14  and  O_16
REMARK    6  A    between atoms: O_16  and  P_17
REMARK    7  A    between atoms: P_17  and  O_18
REMARK    8  A    between atoms: P_17  and  O_20
REMARK    9  A    between atoms: O_20  and  C_21
REMARK   10  A    between atoms: C_21  and  C_22
REMARK   11  A    between atoms: C_25  and  N_33
REMARK   12  A    between atoms: C_27  and  O_29
REMARK   13  A    between atoms: C_30  and  O_32
REMARK   14  A    between atoms: C_37  and  N_38
REMARK                            x       y       z     vdW  Elec       q    Type
REMARK                         _______ _______ _______ _____ _____    ______ ____
ROOT
ATOM      1  O   UNL     1       8.483  -2.381  22.197  0.00  0.00    -0.274 OA
ENDROOT
BRANCH   1   2
ATOM      2  P   UNL     1       9.377  -0.904  22.323  0.00  0.00    +0.533 P 
ATOM      3  O   UNL     1      10.675  -1.699  22.498  0.00  0.00    -0.215 OA
BRANCH   2   4
ATOM      4  O   UNL     1       9.264  -0.698  20.705  0.00  0.00    -0.293 OA
ATOM      5  H   UNL     1       8.382  -1.019  20.438  0.00  0.00    +0.223 HD
ENDBRANCH   2   4
BRANCH   2   6
ATOM      6  O   UNL     1      10.271   0.572  22.449  0.00  0.00    -0.370 OA
BRANCH   6   7
ATOM      7  C   UNL     1      10.247   1.099  23.692  0.00  0.00    +0.332 C 
ATOM      8  O   UNL     1      11.089   1.905  24.071  0.00  0.00    -0.249 OA
BRANCH   7   9
ATOM      9  C   UNL     1       9.065   0.572  24.523  0.00  0.00    +0.166 C 
BRANCH   9  10
ATOM     10  N   UNL     1       9.589  -0.214  25.669  0.00  0.00    -0.318 NA
ATOM     11  H   UNL     1      10.566   0.035  25.827  0.00  0.00    +0.119 HD
ATOM     12  H   UNL     1       9.086   0.051  26.517  0.00  0.00    +0.119 HD
ENDBRANCH   9  10
BRANCH   9  13
ATOM     13  C   UNL     1       8.179   1.757  24.951  0.00  0.00    +0.067 C 
BRANCH  13  14
ATOM     14  C   UNL     1       7.671   2.606  23.819  0.00  0.00    -0.020 A 
ATOM     15  C   UNL     1       7.929   4.000  23.606  0.00  0.00    +0.003 A 
ATOM     16  C   UNL     1       7.295   4.370  22.421  0.00  0.00    +0.047 A 
ATOM     17  C   UNL     1       7.352   5.671  21.905  0.00  0.00    +0.026 A 
ATOM     18  C   UNL     1       8.074   6.625  22.628  0.00  0.00    +0.002 A 
ATOM     19  C   UNL     1       8.711   6.289  23.819  0.00  0.00    +0.001 A 
ATOM     20  N   UNL     1       6.668   3.250  21.930  0.00  0.00    -0.360 N 
ATOM     21  H   UNL     1       6.133   3.221  21.073  0.00  0.00    +0.165 HD
ATOM     22  C   UNL     1       8.650   4.984  24.316  0.00  0.00    +0.010 A 
ATOM     23  C   UNL     1       6.889   2.183  22.762  0.00  0.00    +0.087 A 
ENDBRANCH  13  14
ENDBRANCH   9  13
ENDBRANCH   7   9
ENDBRANCH   6   7
ENDBRANCH   2   6
ENDBRANCH   1   2
BRANCH   1  24
ATOM     24  C   UNL     1       7.346  -2.449  23.052  0.00  0.00    +0.207 C 
BRANCH  24  25
ATOM     25  C   UNL     1       7.740  -3.004  24.423  0.00  0.00    +0.178 C 
ATOM     26  C   UNL     1       8.591  -4.270  24.354  0.00  0.00    +0.178 C 
ATOM     27  C   UNL     1       8.102  -5.137  25.515  0.00  0.00    +0.195 C 
ATOM     28  C   UNL     1       6.987  -4.310  26.167  0.00  0.00    +0.253 C 
ATOM     29  O   UNL     1       6.570  -3.335  25.193  0.00  0.00    -0.346 OA
BRANCH  28  30
ATOM     30  N   UNL     1       5.844  -5.106  26.578  0.00  0.00    -0.286 N 
ATOM     31  C   UNL     1       5.660  -5.659  27.820  0.00  0.00    +0.167 A 
ATOM     32  C   UNL     1       4.440  -6.319  27.736  0.00  0.00    +0.147 A 
ATOM     33  C   UNL     1       4.004  -6.998  28.883  0.00  0.00    +0.147 A 
ATOM     34  N   UNL     1       4.769  -6.941  29.996  0.00  0.00    -0.219 NA
ATOM     35  C   UNL     1       5.936  -6.261  29.937  0.00  0.00    +0.225 A 
ATOM     36  N   UNL     1       3.881  -6.157  26.489  0.00  0.00    -0.231 NA
ATOM     37  N   UNL     1       6.480  -5.594  28.890  0.00  0.00    -0.216 NA
ATOM     38  C   UNL     1       4.747  -5.423  25.823  0.00  0.00    +0.203 A 
BRANCH  33  39
ATOM     39  N   UNL     1       2.819  -7.724  28.928  0.00  0.00    -0.341 N 
ATOM     40  H   UNL     1       2.953  -8.684  29.212  0.00  0.00    +0.144 HD
ATOM     41  H   UNL     1       2.045  -7.210  29.334  0.00  0.00    +0.144 HD
ENDBRANCH  33  39
ENDBRANCH  28  30
BRANCH  26  42
ATOM     42  O   UNL     1       9.977  -3.944  24.453  0.00  0.00    -0.386 OA
ATOM     43  H   UNL     1      10.379  -4.652  24.997  0.00  0.00    +0.210 HD
ENDBRANCH  26  42
BRANCH  27  44
ATOM     44  O   UNL     1       9.175  -5.452  26.413  0.00  0.00    -0.385 OA
ATOM     45  H   UNL     1      10.008  -5.249  25.936  0.00  0.00    +0.210 HD
ENDBRANCH  27  44
ENDBRANCH  24  25
ENDBRANCH   1  24
TORSDOF 14
ENDMDL
MODEL 4
REMARK VINA RESULT:      -8.0      2.256      9.597
REMARK  Name = 
REMARK  14 active torsions:
REMARK  status: ('A' for Active; 'I' for Inactive)
REMARK    1  A    between atoms: N_1  and  C_2
REMARK    2  A    between atoms: C_2  and  C_4
REMARK    3  A    between atoms: C_2  and  C_14
REMARK    4  A    between atoms: C_4  and  C_5
REMARK    5  A    between atoms: C_14  and  O_16
REMARK    6  A    between atoms: O_16  and  P_17
REMARK    7  A    between atoms: P_17  and  O_18
REMARK    8  A    between atoms: P_17  and  O_20
REMARK    9  A    between atoms: O_20  and  C_21
REMARK   10  A    between atoms: C_21  and  C_22
REMARK   11  A    between atoms: C_25  and  N_33
REMARK   12  A    between atoms: C_27  and  O_29
REMARK   13  A    between atoms: C_30  and  O_32
REMARK   14  A    between atoms: C_37  and  N_38
REMARK                            x       y       z     vdW  Elec       q    Type
REMARK                         _______ _______ _______ _____ _____    ______ ____
ROOT
ATOM      1  O   UNL     1       9.093  -2.899  25.881  0.00  0.00    -0.274 OA
ENDROOT
BRANCH   1   2
ATOM      2  P   UNL     1       8.288  -4.406  26.160  0.00  0.00    +0.533 P 
ATOM      3  O   UNL     1       8.692  -4.886  24.762  0.00  0.00    -0.215 OA
BRANCH   2   4
ATOM      4  O   UNL     1       9.526  -4.892  27.110  0.00  0.00    -0.293 OA
ATOM      5  H   UNL     1       9.721  -5.818  26.872  0.00  0.00    +0.223 HD
ENDBRANCH   2   4
BRANCH   2   6
ATOM      6  O   UNL     1       7.482  -5.911  26.437  0.00  0.00    -0.370 OA
BRANCH   6   7
ATOM      7  C   UNL     1       6.464  -5.811  27.317  0.00  0.00    +0.332 C 
ATOM      8  O   UNL     1       6.518  -5.069  28.291  0.00  0.00    -0.249 OA
BRANCH   7   9
ATOM      9  C   UNL     1       5.278  -6.716  26.938  0.00  0.00    +0.166 C 
BRANCH   9  10
ATOM     10  N   UNL     1       4.880  -7.517  28.123  0.00  0.00    -0.318 NA
ATOM     11  H   UNL     1       5.559  -8.265  28.265  0.00  0.00    +0.119 HD
ATOM     12  H   UNL     1       4.925  -6.929  28.957  0.00  0.00    +0.119 HD
ENDBRANCH   9  10
BRANCH   9  13
ATOM     13  C   UNL     1       4.138  -5.846  26.377  0.00  0.00    +0.067 C 
BRANCH  13  14
ATOM     14  C   UNL     1       4.571  -4.793  25.396  0.00  0.00    -0.020 A 
ATOM     15  C   UNL     1       5.138  -5.008  24.097  0.00  0.00    +0.003 A 
ATOM     16  C   UNL     1       5.354  -3.757  23.519  0.00  0.00    +0.047 A 
ATOM     17  C   UNL     1       5.891  -3.598  22.235  0.00  0.00    +0.026 A 
ATOM     18  C   UNL     1       6.225  -4.754  21.524  0.00  0.00    +0.002 A 
ATOM     19  C   UNL     1       6.029  -6.017  22.076  0.00  0.00    +0.001 A 
ATOM     20  N   UNL     1       4.942  -2.813  24.430  0.00  0.00    -0.360 N 
ATOM     21  H   UNL     1       4.976  -1.814  24.276  0.00  0.00    +0.165 HD
ATOM     22  C   UNL     1       5.485  -6.158  23.357  0.00  0.00    +0.010 A 
ATOM     23  C   UNL     1       4.469  -3.425  25.562  0.00  0.00    +0.087 A 
ENDBRANCH  13  14
ENDBRANCH   9  13
ENDBRANCH   7   9
ENDBRANCH   6   7
ENDBRANCH   2   6
ENDBRANCH   1   2
BRANCH   1  24
ATOM     24  C   UNL     1       8.219  -1.779  25.788  0.00  0.00    +0.207 C 
BRANCH  24  25
ATOM     25  C   UNL     1       8.217  -1.220  24.362  0.00  0.00    +0.178 C 
ATOM     26  C   UNL     1       9.508  -1.490  23.592  0.00  0.00    +0.178 C 
ATOM     27  C   UNL     1       9.747  -0.224  22.769  0.00  0.00    +0.195 C 
ATOM     28  C   UNL     1       8.577   0.698  23.135  0.00  0.00    +0.253 C 
ATOM     29  O   UNL     1       8.035   0.207  24.375  0.00  0.00    -0.346 OA
BRANCH  28  30
ATOM     30  N   UNL     1       8.965   2.088  23.290  0.00  0.00    -0.286 N 
ATOM     31  C   UNL     1       8.152   3.174  23.081  0.00  0.00    +0.167 A 
ATOM     32  C   UNL     1       8.955   4.274  23.351  0.00  0.00    +0.147 A 
ATOM     33  C   UNL     1       8.370   5.540  23.200  0.00  0.00    +0.147 A 
ATOM     34  N   UNL     1       7.069   5.611  22.841  0.00  0.00    -0.219 NA
ATOM     35  C   UNL     1       6.405   4.457  22.610  0.00  0.00    +0.225 A 
ATOM     36  N   UNL     1      10.216   3.878  23.735  0.00  0.00    -0.231 NA
ATOM     37  N   UNL     1       6.861   3.182  22.691  0.00  0.00    -0.216 NA
ATOM     38  C   UNL     1      10.185   2.563  23.690  0.00  0.00    +0.203 A 
BRANCH  33  39
ATOM     39  N   UNL     1       9.068   6.725  23.407  0.00  0.00    -0.341 N 
ATOM     40  H   UNL     1       8.614   7.343  24.066  0.00  0.00    +0.144 HD
ATOM     41  H   UNL     1      10.070   6.595  23.488  0.00  0.00    +0.144 HD
ENDBRANCH  33  39
ENDBRANCH  28  30
BRANCH  26  42
ATOM     42  O   UNL     1       9.370  -2.658  22.784  0.00  0.00    -0.386 OA
ATOM     43  H   UNL     1       8.588  -3.133  23.135  0.00  0.00    +0.210 HD
ENDBRANCH  26  42
BRANCH  27  44
ATOM     44  O   UNL     1       9.818  -0.524  21.368  0.00  0.00    -0.385 OA
ATOM     45  H   UNL     1      10.770  -0.614  21.149  0.00  0.00    +0.210 HD
ENDBRANCH  27  44
ENDBRANCH  24  25
ENDBRANCH   1  24
TORSDOF 14
ENDMDL
MODEL 5
REMARK VINA RESULT:      -7.9      1.678      3.277
REMARK  Name = 
REMARK  14 active torsions:
REMARK  status: ('A' for Active; 'I' for Inactive)
REMARK    1  A    between atoms: N_1  and  C_2
REMARK    2  A    between atoms: C_2  and  C_4
REMARK    3  A    between atoms: C_2  and  C_14
REMARK    4  A    between atoms: C_4  and  C_5
REMARK    5  A    between atoms: C_14  and  O_16
REMARK    6  A    between atoms: O_16  and  P_17
REMARK    7  A    between atoms: P_17  and  O_18
REMARK    8  A    between atoms: P_17  and  O_20
REMARK    9  A    between atoms: O_20  and  C_21
REMARK   10  A    between atoms: C_21  and  C_22
REMARK   11  A    between atoms: C_25  and  N_33
REMARK   12  A    between atoms: C_27  and  O_29
REMARK   13  A    between atoms: C_30  and  O_32
REMARK   14  A    between atoms: C_37  and  N_38
REMARK                            x       y       z     vdW  Elec       q    Type
REMARK                         _______ _______ _______ _____ _____    ______ ____
ROOT
ATOM      1  O   UNL     1       8.423  -2.399  22.504  0.00  0.00    -0.274 OA
ENDROOT
BRANCH   1   2
ATOM      2  P   UNL     1       9.632  -1.171  22.666  0.00  0.00    +0.533 P 
ATOM      3  O   UNL     1      10.730  -2.240  22.617  0.00  0.00    -0.215 OA
BRANCH   2   4
ATOM      4  O   UNL     1       9.423  -0.758  21.098  0.00  0.00    -0.293 OA
ATOM      5  H   UNL     1      10.291  -0.849  20.662  0.00  0.00    +0.223 HD
ENDBRANCH   2   4
BRANCH   2   6
ATOM      6  O   UNL     1      10.842   0.055  22.829  0.00  0.00    -0.370 OA
BRANCH   6   7
ATOM      7  C   UNL     1      10.590   0.915  23.838  0.00  0.00    +0.332 C 
ATOM      8  O   UNL     1      10.604   0.561  25.011  0.00  0.00    -0.249 OA
BRANCH   7   9
ATOM      9  C   UNL     1      10.299   2.338  23.329  0.00  0.00    +0.166 C 
BRANCH   9  10
ATOM     10  N   UNL     1      10.125   2.301  21.854  0.00  0.00    -0.318 NA
ATOM     11  H   UNL     1       9.189   1.956  21.637  0.00  0.00    +0.119 HD
ATOM     12  H   UNL     1      10.171   3.252  21.486  0.00  0.00    +0.119 HD
ENDBRANCH   9  10
BRANCH   9  13
ATOM     13  C   UNL     1       9.075   2.901  24.074  0.00  0.00    +0.067 C 
BRANCH  13  14
ATOM     14  C   UNL     1       7.843   2.044  24.002  0.00  0.00    -0.020 A 
ATOM     15  C   UNL     1       7.225   1.332  25.083  0.00  0.00    +0.003 A 
ATOM     16  C   UNL     1       6.090   0.700  24.578  0.00  0.00    +0.047 A 
ATOM     17  C   UNL     1       5.238  -0.077  25.373  0.00  0.00    +0.026 A 
ATOM     18  C   UNL     1       5.562  -0.219  26.725  0.00  0.00    +0.002 A 
ATOM     19  C   UNL     1       6.693   0.393  27.258  0.00  0.00    +0.001 A 
ATOM     20  N   UNL     1       6.018   1.006  23.240  0.00  0.00    -0.360 N 
ATOM     21  H   UNL     1       5.288   0.687  22.616  0.00  0.00    +0.165 HD
ATOM     22  C   UNL     1       7.529   1.171  26.451  0.00  0.00    +0.010 A 
ATOM     23  C   UNL     1       7.066   1.814  22.883  0.00  0.00    +0.087 A 
ENDBRANCH  13  14
ENDBRANCH   9  13
ENDBRANCH   7   9
ENDBRANCH   6   7
ENDBRANCH   2   6
ENDBRANCH   1   2
BRANCH   1  24
ATOM     24  C   UNL     1       7.402  -2.346  23.496  0.00  0.00    +0.207 C 
BRANCH  24  25
ATOM     25  C   UNL     1       7.830  -3.119  24.746  0.00  0.00    +0.178 C 
ATOM     26  C   UNL     1       8.565  -4.423  24.443  0.00  0.00    +0.178 C 
ATOM     27  C   UNL     1       8.075  -5.407  25.506  0.00  0.00    +0.195 C 
ATOM     28  C   UNL     1       7.077  -4.599  26.345  0.00  0.00    +0.253 C 
ATOM     29  O   UNL     1       6.686  -3.466  25.546  0.00  0.00    -0.346 OA
BRANCH  28  30
ATOM     30  N   UNL     1       5.897  -5.356  26.725  0.00  0.00    -0.286 N 
ATOM     31  C   UNL     1       5.596  -5.786  27.992  0.00  0.00    +0.167 A 
ATOM     32  C   UNL     1       4.387  -6.456  27.861  0.00  0.00    +0.147 A 
ATOM     33  C   UNL     1       3.844  -7.021  29.024  0.00  0.00    +0.147 A 
ATOM     34  N   UNL     1       4.503  -6.852  30.192  0.00  0.00    -0.219 NA
ATOM     35  C   UNL     1       5.673  -6.176  30.175  0.00  0.00    +0.225 A 
ATOM     36  N   UNL     1       3.946  -6.420  26.558  0.00  0.00    -0.231 NA
ATOM     37  N   UNL     1       6.314  -5.612  29.121  0.00  0.00    -0.216 NA
ATOM     38  C   UNL     1       4.873  -5.751  25.906  0.00  0.00    +0.203 A 
BRANCH  33  39
ATOM     39  N   UNL     1       2.657  -7.745  29.030  0.00  0.00    -0.341 N 
ATOM     40  H   UNL     1       1.837  -7.162  28.932  0.00  0.00    +0.144 HD
ATOM     41  H   UNL     1       2.701  -8.599  28.487  0.00  0.00    +0.144 HD
ENDBRANCH  33  39
ENDBRANCH  28  30
BRANCH  26  42
ATOM     42  O   UNL     1       9.976  -4.221  24.484  0.00  0.00    -0.386 OA
ATOM     43  H   UNL     1      10.354  -4.849  23.835  0.00  0.00    +0.210 HD
ENDBRANCH  26  42
BRANCH  27  44
ATOM     44  O   UNL     1       9.170  -5.928  26.272  0.00  0.00    -0.385 OA
ATOM     45  H   UNL     1       9.935  -5.989  25.661  0.00  0.00    +0.210 HD
ENDBRANCH  27  44
ENDBRANCH  24  25
ENDBRANCH   1  24
TORSDOF 14
ENDMDL
MODEL 6
REMARK VINA RESULT:      -7.7      2.181      2.976
REMARK  Name = 
REMARK  14 active torsions:
REMARK  status: ('A' for Active; 'I' for Inactive)
REMARK    1  A    between atoms: N_1  and  C_2
REMARK    2  A    between atoms: C_2  and  C_4
REMARK    3  A    between atoms: C_2  and  C_14
REMARK    4  A    between atoms: C_4  and  C_5
REMARK    5  A    between atoms: C_14  and  O_16
REMARK    6  A    between atoms: O_16  and  P_17
REMARK    7  A    between atoms: P_17  and  O_18
REMARK    8  A    between atoms: P_17  and  O_20
REMARK    9  A    between atoms: O_20  and  C_21
REMARK   10  A    between atoms: C_21  and  C_22
REMARK   11  A    between atoms: C_25  and  N_33
REMARK   12  A    between atoms: C_27  and  O_29
REMARK   13  A    between atoms: C_30  and  O_32
REMARK   14  A    between atoms: C_37  and  N_38
REMARK                            x       y       z     vdW  Elec       q    Type
REMARK                         _______ _______ _______ _____ _____    ______ ____
ROOT
ATOM      1  O   UNL     1       9.177  -2.620  23.236  0.00  0.00    -0.274 OA
ENDROOT
BRANCH   1   2
ATOM      2  P   UNL     1       8.980  -1.121  22.394  0.00  0.00    +0.533 P 
ATOM      3  O   UNL     1       9.619  -0.372  23.568  0.00  0.00    -0.215 OA
BRANCH   2   4
ATOM      4  O   UNL     1      10.250  -1.494  21.434  0.00  0.00    -0.293 OA
ATOM      5  H   UNL     1      10.132  -2.421  21.153  0.00  0.00    +0.223 HD
ENDBRANCH   2   4
BRANCH   2   6
ATOM      6  O   UNL     1       8.782   0.378  21.552  0.00  0.00    -0.370 OA
BRANCH   6   7
ATOM      7  C   UNL     1       8.171   1.324  22.295  0.00  0.00    +0.332 C 
ATOM      8  O   UNL     1       6.982   1.252  22.588  0.00  0.00    -0.249 OA
BRANCH   7   9
ATOM      9  C   UNL     1       9.133   2.451  22.706  0.00  0.00    +0.166 C 
BRANCH   9  10
ATOM     10  N   UNL     1      10.343   2.396  21.846  0.00  0.00    -0.318 NA
ATOM     11  H   UNL     1      10.623   1.422  21.725  0.00  0.00    +0.119 HD
ATOM     12  H   UNL     1      10.109   2.743  20.914  0.00  0.00    +0.119 HD
ENDBRANCH   9  10
BRANCH   9  13
ATOM     13  C   UNL     1       8.393   3.800  22.633  0.00  0.00    +0.067 C 
BRANCH  13  14
ATOM     14  C   UNL     1       8.614   4.706  23.811  0.00  0.00    -0.020 A 
ATOM     15  C   UNL     1       9.832   5.374  24.166  0.00  0.00    +0.003 A 
ATOM     16  C   UNL     1       9.577   6.138  25.305  0.00  0.00    +0.047 A 
ATOM     17  C   UNL     1      10.554   6.934  25.918  0.00  0.00    +0.026 A 
ATOM     18  C   UNL     1      11.832   6.942  25.354  0.00  0.00    +0.002 A 
ATOM     19  C   UNL     1      12.121   6.184  24.222  0.00  0.00    +0.001 A 
ATOM     20  N   UNL     1       8.258   5.941  25.638  0.00  0.00    -0.360 N 
ATOM     21  H   UNL     1       7.793   6.378  26.423  0.00  0.00    +0.165 HD
ATOM     22  C   UNL     1      11.132   5.401  23.618  0.00  0.00    +0.010 A 
ATOM     23  C   UNL     1       7.669   5.083  24.746  0.00  0.00    +0.087 A 
ENDBRANCH  13  14
ENDBRANCH   9  13
ENDBRANCH   7   9
ENDBRANCH   6   7
ENDBRANCH   2   6
ENDBRANCH   1   2
BRANCH   1  24
ATOM     24  C   UNL     1       9.510  -2.476  24.613  0.00  0.00    +0.207 C 
BRANCH  24  25
ATOM     25  C   UNL     1       8.481  -3.196  25.490  0.00  0.00    +0.178 C 
ATOM     26  C   UNL     1       8.843  -4.646  25.802  0.00  0.00    +0.178 C 
ATOM     27  C   UNL     1       7.513  -5.400  25.768  0.00  0.00    +0.195 C 
ATOM     28  C   UNL     1       6.473  -4.326  25.423  0.00  0.00    +0.253 C 
ATOM     29  O   UNL     1       7.194  -3.221  24.848  0.00  0.00    -0.346 OA
BRANCH  28  30
ATOM     30  N   UNL     1       5.459  -4.784  24.491  0.00  0.00    -0.286 N 
ATOM     31  C   UNL     1       4.566  -5.800  24.716  0.00  0.00    +0.167 A 
ATOM     32  C   UNL     1       3.807  -5.869  23.554  0.00  0.00    +0.147 A 
ATOM     33  C   UNL     1       2.807  -6.852  23.504  0.00  0.00    +0.147 A 
ATOM     34  N   UNL     1       2.622  -7.638  24.588  0.00  0.00    -0.219 NA
ATOM     35  C   UNL     1       3.433  -7.462  25.654  0.00  0.00    +0.225 A 
ATOM     36  N   UNL     1       4.207  -4.910  22.652  0.00  0.00    -0.231 NA
ATOM     37  N   UNL     1       4.447  -6.576  25.814  0.00  0.00    -0.216 NA
ATOM     38  C   UNL     1       5.195  -4.277  23.246  0.00  0.00    +0.203 A 
BRANCH  33  39
ATOM     39  N   UNL     1       1.998  -7.051  22.391  0.00  0.00    -0.341 N 
ATOM     40  H   UNL     1       1.047  -6.736  22.532  0.00  0.00    +0.144 HD
ATOM     41  H   UNL     1       2.451  -6.820  21.515  0.00  0.00    +0.144 HD
ENDBRANCH  33  39
ENDBRANCH  28  30
BRANCH  26  42
ATOM     42  O   UNL     1       9.497  -4.735  27.067  0.00  0.00    -0.386 OA
ATOM     43  H   UNL     1      10.266  -5.326  26.927  0.00  0.00    +0.210 HD
ENDBRANCH  26  42
BRANCH  27  44
ATOM     44  O   UNL     1       7.259  -6.057  27.016  0.00  0.00    -0.385 OA
ATOM     45  H   UNL     1       6.413  -5.696  27.356  0.00  0.00    +0.210 HD
ENDBRANCH  27  44
ENDBRANCH  24  25
ENDBRANCH   1  24
TORSDOF 14
ENDMDL
MODEL 7
REMARK VINA RESULT:      -7.7      3.968      6.048
REMARK  Name = 
REMARK  14 active torsions:
REMARK  status: ('A' for Active; 'I' for Inactive)
REMARK    1  A    between atoms: N_1  and  C_2
REMARK    2  A    between atoms: C_2  and  C_4
REMARK    3  A    between atoms: C_2  and  C_14
REMARK    4  A    between atoms: C_4  and  C_5
REMARK    5  A    between atoms: C_14  and  O_16
REMARK    6  A    between atoms: O_16  and  P_17
REMARK    7  A    between atoms: P_17  and  O_18
REMARK    8  A    between atoms: P_17  and  O_20
REMARK    9  A    between atoms: O_20  and  C_21
REMARK   10  A    between atoms: C_21  and  C_22
REMARK   11  A    between atoms: C_25  and  N_33
REMARK   12  A    between atoms: C_27  and  O_29
REMARK   13  A    between atoms: C_30  and  O_32
REMARK   14  A    between atoms: C_37  and  N_38
REMARK                            x       y       z     vdW  Elec       q    Type
REMARK                         _______ _______ _______ _____ _____    ______ ____
ROOT
ATOM      1  O   UNL     1       5.041  -2.812  25.955  0.00  0.00    -0.274 OA
ENDROOT
BRANCH   1   2
ATOM      2  P   UNL     1       5.092  -1.190  26.557  0.00  0.00    +0.533 P 
ATOM      3  O   UNL     1       4.901  -1.710  27.986  0.00  0.00    -0.215 OA
BRANCH   2   4
ATOM      4  O   UNL     1       6.716  -1.170  26.366  0.00  0.00    -0.293 OA
ATOM      5  H   UNL     1       6.894  -0.792  25.484  0.00  0.00    +0.223 HD
ENDBRANCH   2   4
BRANCH   2   6
ATOM      6  O   UNL     1       5.143   0.431  27.160  0.00  0.00    -0.370 OA
BRANCH   6   7
ATOM      7  C   UNL     1       4.964   1.359  26.197  0.00  0.00    +0.332 C 
ATOM      8  O   UNL     1       3.891   1.497  25.619  0.00  0.00    -0.249 OA
BRANCH   7   9
ATOM      9  C   UNL     1       6.238   2.182  25.941  0.00  0.00    +0.166 C 
BRANCH   9  10
ATOM     10  N   UNL     1       7.247   1.852  26.979  0.00  0.00    -0.318 NA
ATOM     11  H   UNL     1       8.153   1.706  26.531  0.00  0.00    +0.119 HD
ATOM     12  H   UNL     1       7.364   2.653  27.602  0.00  0.00    +0.119 HD
ENDBRANCH   9  10
BRANCH   9  13
ATOM     13  C   UNL     1       6.731   1.919  24.505  0.00  0.00    +0.067 C 
BRANCH  13  14
ATOM     14  C   UNL     1       6.869   3.147  23.650  0.00  0.00    -0.020 A 
ATOM     15  C   UNL     1       7.780   4.236  23.849  0.00  0.00    +0.003 A 
ATOM     16  C   UNL     1       7.593   5.138  22.802  0.00  0.00    +0.047 A 
ATOM     17  C   UNL     1       8.335   6.320  22.679  0.00  0.00    +0.026 A 
ATOM     18  C   UNL     1       9.292   6.591  23.661  0.00  0.00    +0.002 A 
ATOM     19  C   UNL     1       9.497   5.714  24.723  0.00  0.00    +0.001 A 
ATOM     20  N   UNL     1       6.603   4.626  21.998  0.00  0.00    -0.360 N 
ATOM     21  H   UNL     1       6.262   5.069  21.155  0.00  0.00    +0.165 HD
ATOM     22  C   UNL     1       8.752   4.535  24.827  0.00  0.00    +0.010 A 
ATOM     23  C   UNL     1       6.161   3.429  22.497  0.00  0.00    +0.087 A 
ENDBRANCH  13  14
ENDBRANCH   9  13
ENDBRANCH   7   9
ENDBRANCH   6   7
ENDBRANCH   2   6
ENDBRANCH   1   2
BRANCH   1  24
ATOM     24  C   UNL     1       5.949  -3.701  26.597  0.00  0.00    +0.207 C 
BRANCH  24  25
ATOM     25  C   UNL     1       6.999  -4.203  25.601  0.00  0.00    +0.178 C 
ATOM     26  C   UNL     1       8.407  -4.294  26.185  0.00  0.00    +0.178 C 
ATOM     27  C   UNL     1       9.333  -3.854  25.049  0.00  0.00    +0.195 C 
ATOM     28  C   UNL     1       8.385  -3.526  23.888  0.00  0.00    +0.253 C 
ATOM     29  O   UNL     1       7.079  -3.328  24.462  0.00  0.00    -0.346 OA
BRANCH  28  30
ATOM     30  N   UNL     1       8.773  -2.342  23.144  0.00  0.00    -0.286 N 
ATOM     31  C   UNL     1       9.286  -1.189  23.684  0.00  0.00    +0.167 A 
ATOM     32  C   UNL     1       9.501  -0.353  22.596  0.00  0.00    +0.147 A 
ATOM     33  C   UNL     1      10.018   0.922  22.866  0.00  0.00    +0.147 A 
ATOM     34  N   UNL     1      10.304   1.244  24.148  0.00  0.00    -0.219 NA
ATOM     35  C   UNL     1      10.044   0.331  25.110  0.00  0.00    +0.225 A 
ATOM     36  N   UNL     1       9.153  -0.980  21.421  0.00  0.00    -0.231 NA
ATOM     37  N   UNL     1       9.522  -0.914  24.984  0.00  0.00    -0.216 NA
ATOM     38  C   UNL     1       8.724  -2.170  21.786  0.00  0.00    +0.203 A 
BRANCH  33  39
ATOM     39  N   UNL     1      10.251   1.869  21.875  0.00  0.00    -0.341 N 
ATOM     40  H   UNL     1      11.233   2.067  21.740  0.00  0.00    +0.144 HD
ATOM     41  H   UNL     1       9.673   1.744  21.052  0.00  0.00    +0.144 HD
ENDBRANCH  33  39
ENDBRANCH  28  30
BRANCH  26  42
ATOM     42  O   UNL     1       8.675  -5.622  26.634  0.00  0.00    -0.386 OA
ATOM     43  H   UNL     1       9.233  -6.029  25.940  0.00  0.00    +0.210 HD
ENDBRANCH  26  42
BRANCH  27  44
ATOM     44  O   UNL     1      10.285  -4.878  24.733  0.00  0.00    -0.385 OA
ATOM     45  H   UNL     1      10.773  -5.072  25.561  0.00  0.00    +0.210 HD
ENDBRANCH  27  44
ENDBRANCH  24  25
ENDBRANCH   1  24
TORSDOF 14
ENDMDL
MODEL 8
REMARK VINA RESULT:      -7.6      3.560      8.033
REMARK  Name = 
REMARK  14 active torsions:
REMARK  status: ('A' for Active; 'I' for Inactive)
REMARK    1  A    between atoms: N_1  and  C_2
REMARK    2  A    between atoms: C_2  and  C_4
REMARK    3  A    between atoms: C_2  and  C_14
REMARK    4  A    between atoms: C_4  and  C_5
REMARK    5  A    between atoms: C_14  and  O_16
REMARK    6  A    between atoms: O_16  and  P_17
REMARK    7  A    between atoms: P_17  and  O_18
REMARK    8  A    between atoms: P_17  and  O_20
REMARK    9  A    between atoms: O_20  and  C_21
REMARK   10  A    between atoms: C_21  and  C_22
REMARK   11  A    between atoms: C_25  and  N_33
REMARK   12  A    between atoms: C_27  and  O_29
REMARK   13  A    between atoms: C_30  and  O_32
REMARK   14  A    between atoms: C_37  and  N_38
REMARK                            x       y       z     vdW  Elec       q    Type
REMARK                         _______ _______ _______ _____ _____    ______ ____
ROOT
ATOM      1  O   UNL     1       6.293   2.798  24.927  0.00  0.00    -0.274 OA
ENDROOT
BRANCH   1   2
ATOM      2  P   UNL     1       5.369   1.483  25.568  0.00  0.00    +0.533 P 
ATOM      3  O   UNL     1       4.194   1.858  24.658  0.00  0.00    -0.215 OA
BRANCH   2   4
ATOM      4  O   UNL     1       6.238   0.433  24.666  0.00  0.00    -0.293 OA
ATOM      5  H   UNL     1       5.722   0.258  23.856  0.00  0.00    +0.223 HD
ENDBRANCH   2   4
BRANCH   2   6
ATOM      6  O   UNL     1       4.445   0.168  26.208  0.00  0.00    -0.370 OA
BRANCH   6   7
ATOM      7  C   UNL     1       5.098  -0.519  27.169  0.00  0.00    +0.332 C 
ATOM      8  O   UNL     1       5.929   0.014  27.896  0.00  0.00    -0.249 OA
BRANCH   7   9
ATOM      9  C   UNL     1       4.668  -1.995  27.221  0.00  0.00    +0.166 C 
BRANCH   9  10
ATOM     10  N   UNL     1       3.735  -2.190  28.361  0.00  0.00    -0.318 NA
ATOM     11  H   UNL     1       3.009  -2.854  28.089  0.00  0.00    +0.119 HD
ATOM     12  H   UNL     1       4.239  -2.620  29.138  0.00  0.00    +0.119 HD
ENDBRANCH   9  10
BRANCH   9  13
ATOM     13  C   UNL     1       4.064  -2.394  25.862  0.00  0.00    +0.067 C 
BRANCH  13  14
ATOM     14  C   UNL     1       4.606  -3.669  25.280  0.00  0.00    -0.020 A 
ATOM     15  C   UNL     1       5.344  -3.812  24.059  0.00  0.00    +0.003 A 
ATOM     16  C   UNL     1       5.680  -5.159  23.925  0.00  0.00    +0.047 A 
ATOM     17  C   UNL     1       6.418  -5.651  22.841  0.00  0.00    +0.026 A 
ATOM     18  C   UNL     1       6.818  -4.739  21.860  0.00  0.00    +0.002 A 
ATOM     19  C   UNL     1       6.492  -3.390  21.961  0.00  0.00    +0.001 A 
ATOM     20  N   UNL     1       5.163  -5.816  25.016  0.00  0.00    -0.360 N 
ATOM     21  H   UNL     1       5.260  -6.808  25.187  0.00  0.00    +0.165 HD
ATOM     22  C   UNL     1       5.759  -2.914  23.054  0.00  0.00    +0.010 A 
ATOM     23  C   UNL     1       4.517  -4.930  25.839  0.00  0.00    +0.087 A 
ENDBRANCH  13  14
ENDBRANCH   9  13
ENDBRANCH   7   9
ENDBRANCH   6   7
ENDBRANCH   2   6
ENDBRANCH   1   2
BRANCH   1  24
ATOM     24  C   UNL     1       7.541   3.008  25.582  0.00  0.00    +0.207 C 
BRANCH  24  25
ATOM     25  C   UNL     1       8.701   2.659  24.645  0.00  0.00    +0.178 C 
ATOM     26  C   UNL     1       8.333   2.709  23.163  0.00  0.00    +0.178 C 
ATOM     27  C   UNL     1       9.092   1.542  22.530  0.00  0.00    +0.195 C 
ATOM     28  C   UNL     1       9.837   0.889  23.701  0.00  0.00    +0.253 C 
ATOM     29  O   UNL     1       9.182   1.328  24.905  0.00  0.00    -0.346 OA
BRANCH  28  30
ATOM     30  N   UNL     1       9.836  -0.562  23.648  0.00  0.00    -0.286 N 
ATOM     31  C   UNL     1       9.280  -1.396  24.585  0.00  0.00    +0.167 A 
ATOM     32  C   UNL     1       9.526  -2.677  24.109  0.00  0.00    +0.147 A 
ATOM     33  C   UNL     1       9.069  -3.746  24.893  0.00  0.00    +0.147 A 
ATOM     34  N   UNL     1       8.395  -3.469  26.031  0.00  0.00    -0.219 NA
ATOM     35  C   UNL     1       8.227  -2.173  26.376  0.00  0.00    +0.225 A 
ATOM     36  N   UNL     1      10.193  -2.632  22.905  0.00  0.00    -0.231 NA
ATOM     37  N   UNL     1       8.643  -1.058  25.725  0.00  0.00    -0.216 NA
ATOM     38  C   UNL     1      10.360  -1.350  22.659  0.00  0.00    +0.203 A 
BRANCH  33  39
ATOM     39  N   UNL     1       9.275  -5.078  24.550  0.00  0.00    -0.341 N 
ATOM     40  H   UNL     1       8.715  -5.719  25.096  0.00  0.00    +0.144 HD
ATOM     41  H   UNL     1       9.338  -5.233  23.551  0.00  0.00    +0.144 HD
ENDBRANCH  33  39
ENDBRANCH  28  30
BRANCH  26  42
ATOM     42  O   UNL     1       8.692   3.971  22.604  0.00  0.00    -0.386 OA
ATOM     43  H   UNL     1       7.867   4.498  22.585  0.00  0.00    +0.210 HD
ENDBRANCH  26  42
BRANCH  27  44
ATOM     44  O   UNL     1       9.962   1.997  21.485  0.00  0.00    -0.385 OA
ATOM     45  H   UNL     1       9.989   2.975  21.550  0.00  0.00    +0.210 HD
ENDBRANCH  27  44
ENDBRANCH  24  25
ENDBRANCH   1  24
TORSDOF 14
ENDMDL
MODEL 9
REMARK VINA RESULT:      -7.6      2.873      4.195
REMARK  Name = 
REMARK  14 active torsions:
REMARK  status: ('A' for Active; 'I' for Inactive)
REMARK    1  A    between atoms: N_1  and  C_2
REMARK    2  A    between atoms: C_2  and  C_4
REMARK    3  A    between atoms: C_2  and  C_14
REMARK    4  A    between atoms: C_4  and  C_5
REMARK    5  A    between atoms: C_14  and  O_16
REMARK    6  A    between atoms: O_16  and  P_17
REMARK    7  A    between atoms: P_17  and  O_18
REMARK    8  A    between atoms: P_17  and  O_20
REMARK    9  A    between atoms: O_20  and  C_21
REMARK   10  A    between atoms: C_21  and  C_22
REMARK   11  A    between atoms: C_25  and  N_33
REMARK   12  A    between atoms: C_27  and  O_29
REMARK   13  A    between atoms: C_30  and  O_32
REMARK   14  A    between atoms: C_37  and  N_38
REMARK                            x       y       z     vdW  Elec       q    Type
REMARK                         _______ _______ _______ _____ _____    ______ ____
ROOT
ATOM      1  O   UNL     1       7.262   0.065  25.196  0.00  0.00    -0.274 OA
ENDROOT
BRANCH   1   2
ATOM      2  P   UNL     1       5.832   0.966  24.824  0.00  0.00    +0.533 P 
ATOM      3  O   UNL     1       4.970  -0.131  25.460  0.00  0.00    -0.215 OA
BRANCH   2   4
ATOM      4  O   UNL     1       6.147   1.980  26.067  0.00  0.00    -0.293 OA
ATOM      5  H   UNL     1       7.118   2.034  26.151  0.00  0.00    +0.223 HD
ENDBRANCH   2   4
BRANCH   2   6
ATOM      6  O   UNL     1       4.402   1.866  24.453  0.00  0.00    -0.370 OA
BRANCH   6   7
ATOM      7  C   UNL     1       4.656   3.152  24.131  0.00  0.00    +0.332 C 
ATOM      8  O   UNL     1       4.577   4.055  24.957  0.00  0.00    -0.249 OA
BRANCH   7   9
ATOM      9  C   UNL     1       5.044   3.314  22.652  0.00  0.00    +0.166 C 
BRANCH   9  10
ATOM     10  N   UNL     1       3.855   3.767  21.884  0.00  0.00    -0.318 NA
ATOM     11  H   UNL     1       3.021   3.316  22.263  0.00  0.00    +0.119 HD
ATOM     12  H   UNL     1       3.725   4.770  22.025  0.00  0.00    +0.119 HD
ENDBRANCH   9  10
BRANCH   9  13
ATOM     13  C   UNL     1       6.241   4.277  22.546  0.00  0.00    +0.067 C 
BRANCH  13  14
ATOM     14  C   UNL     1       7.529   3.748  23.110  0.00  0.00    -0.020 A 
ATOM     15  C   UNL     1       8.285   2.630  22.627  0.00  0.00    +0.003 A 
ATOM     16  C   UNL     1       9.425   2.516  23.422  0.00  0.00    +0.047 A 
ATOM     17  C   UNL     1      10.396   1.528  23.217  0.00  0.00    +0.026 A 
ATOM     18  C   UNL     1      10.191   0.623  22.171  0.00  0.00    +0.002 A 
ATOM     19  C   UNL     1       9.060   0.705  21.365  0.00  0.00    +0.001 A 
ATOM     20  N   UNL     1       9.367   3.520  24.359  0.00  0.00    -0.360 N 
ATOM     21  H   UNL     1      10.069   3.684  25.068  0.00  0.00    +0.165 HD
ATOM     22  C   UNL     1       8.103   1.703  21.579  0.00  0.00    +0.010 A 
ATOM     23  C   UNL     1       8.232   4.267  24.181  0.00  0.00    +0.087 A 
ENDBRANCH  13  14
ENDBRANCH   9  13
ENDBRANCH   7   9
ENDBRANCH   6   7
ENDBRANCH   2   6
ENDBRANCH   1   2
BRANCH   1  24
ATOM     24  C   UNL     1       7.576  -0.949  24.246  0.00  0.00    +0.207 C 
BRANCH  24  25
ATOM     25  C   UNL     1       8.291  -2.118  24.928  0.00  0.00    +0.178 C 
ATOM     26  C   UNL     1       8.920  -3.110  23.953  0.00  0.00    +0.178 C 
ATOM     27  C   UNL     1       8.698  -4.483  24.590  0.00  0.00    +0.195 C 
ATOM     28  C   UNL     1       7.940  -4.184  25.889  0.00  0.00    +0.253 C 
ATOM     29  O   UNL     1       7.375  -2.868  25.746  0.00  0.00    -0.346 OA
BRANCH  28  30
ATOM     30  N   UNL     1       6.884  -5.139  26.174  0.00  0.00    -0.286 N 
ATOM     31  C   UNL     1       5.942  -5.580  25.279  0.00  0.00    +0.167 A 
ATOM     32  C   UNL     1       5.158  -6.471  26.000  0.00  0.00    +0.147 A 
ATOM     33  C   UNL     1       4.089  -7.072  25.321  0.00  0.00    +0.147 A 
ATOM     34  N   UNL     1       3.910  -6.779  24.014  0.00  0.00    -0.219 NA
ATOM     35  C   UNL     1       4.749  -5.892  23.435  0.00  0.00    +0.225 A 
ATOM     36  N   UNL     1       5.618  -6.592  27.292  0.00  0.00    -0.231 NA
ATOM     37  N   UNL     1       5.793  -5.225  23.986  0.00  0.00    -0.216 NA
ATOM     38  C   UNL     1       6.653  -5.782  27.360  0.00  0.00    +0.203 A 
BRANCH  33  39
ATOM     39  N   UNL     1       3.208  -7.959  25.930  0.00  0.00    -0.341 N 
ATOM     40  H   UNL     1       3.637  -8.841  26.171  0.00  0.00    +0.144 HD
ATOM     41  H   UNL     1       2.603  -7.520  26.616  0.00  0.00    +0.144 HD
ENDBRANCH  33  39
ENDBRANCH  28  30
BRANCH  26  42
ATOM     42  O   UNL     1      10.301  -2.808  23.757  0.00  0.00    -0.386 OA
ATOM     43  H   UNL     1      10.722  -3.652  23.490  0.00  0.00    +0.210 HD
ENDBRANCH  26  42
BRANCH  27  44
ATOM     44  O   UNL     1       9.943  -5.162  24.802  0.00  0.00    -0.385 OA
ATOM     45  H   UNL     1       9.858  -6.043  24.377  0.00  0.00    +0.210 HD
ENDBRANCH  27  44
ENDBRANCH  24  25
ENDBRANCH   1  24
TORSDOF 14
ENDMDL
