MODEL 1
REMARK VINA RESULT:      -6.3      0.000      0.000
REMARK  Name = 
REMARK  6 active torsions:
REMARK  status: ('A' for Active; 'I' for Inactive)
REMARK    1  A    between atoms: O_1  and  C_2
REMARK    2  A    between atoms: C_2  and  C_4
REMARK    3  A    between atoms: C_4  and  O_5
REMARK    4  A    between atoms: O_5  and  C_6
REMARK    5  A    between atoms: C_11  and  C_14
REMARK    6  A    between atoms: C_14  and  C_16
REMARK                            x       y       z     vdW  Elec       q    Type
REMARK                         _______ _______ _______ _____ _____    ______ ____
ROOT
ATOM      1  C   UNL     1       9.545  -0.238  24.564  0.00  0.00    +0.141 A 
ATOM      2  C   UNL     1      10.143  -1.025  23.587  0.00  0.00    +0.048 A 
ATOM      3  C   UNL     1       9.755  -2.361  23.447  0.00  0.00    +0.017 A 
ATOM      4  C   UNL     1       8.811  -2.950  24.316  0.00  0.00    +0.043 A 
ATOM      5  C   UNL     1       8.295  -2.182  25.374  0.00  0.00    +0.074 A 
ATOM      6 CL   UNL     1       7.427  -2.903  26.696  0.00  0.00    -0.081 Cl
ATOM      7  C   UNL     1       8.617  -0.814  25.451  0.00  0.00    +0.101 A 
ATOM      8 CL   UNL     1       7.874   0.220  26.644  0.00  0.00    -0.078 Cl
ENDROOT
BRANCH   4   9
ATOM      9  C   UNL     1       8.526  -4.399  24.082  0.00  0.00    +0.201 C 
ATOM     10  O   UNL     1       9.335  -5.185  24.574  0.00  0.00    -0.286 OA
BRANCH   9  11
ATOM     11  C   UNL     1       7.366  -4.873  23.348  0.00  0.00    +0.059 A 
ATOM     12  S   UNL     1       5.758  -4.733  23.927  0.00  0.00    -0.093 S 
ATOM     13  C   UNL     1       5.161  -5.724  22.661  0.00  0.00    +0.046 A 
ATOM     14  C   UNL     1       6.121  -5.962  21.704  0.00  0.00    +0.008 A 
ATOM     15  C   UNL     1       7.381  -5.414  22.074  0.00  0.00    +0.019 A 
ENDBRANCH   9  11
ENDBRANCH   4   9
BRANCH   1  16
ATOM     16  O   UNL     1       9.864   1.075  24.787  0.00  0.00    -0.479 OA
BRANCH  16  17
ATOM     17  C   UNL     1       9.256   2.056  23.945  0.00  0.00    +0.349 C 
BRANCH  17  18
ATOM     18  C   UNL     1      10.340   2.619  23.046  0.00  0.00    +0.343 C 
ATOM     19  O   UNL     1      11.251   3.338  23.446  0.00  0.00    -0.247 OA
BRANCH  18  20
ATOM     20  O   UNL     1      10.219   2.260  21.745  0.00  0.00    -0.478 OA
ATOM     21  H   UNL     1      10.297   1.283  21.652  0.00  0.00    +0.295 HD
ENDBRANCH  18  20
ENDBRANCH  17  18
ENDBRANCH  16  17
ENDBRANCH   1  16
TORSDOF 6
ENDMDL
MODEL 2
REMARK VINA RESULT:      -6.2      3.467      7.136
REMARK  Name = 
REMARK  6 active torsions:
REMARK  status: ('A' for Active; 'I' for Inactive)
REMARK    1  A    between atoms: O_1  and  C_2
REMARK    2  A    between atoms: C_2  and  C_4
REMARK    3  A    between atoms: C_4  and  O_5
REMARK    4  A    between atoms: O_5  and  C_6
REMARK    5  A    between atoms: C_11  and  C_14
REMARK    6  A    between atoms: C_14  and  C_16
REMARK                            x       y       z     vdW  Elec       q    Type
REMARK                         _______ _______ _______ _____ _____    ______ ____
ROOT
ATOM      1  C   UNL     1       7.246  -5.101  25.936  0.00  0.00    +0.141 A 
ATOM      2  C   UNL     1       8.377  -4.543  26.520  0.00  0.00    +0.048 A 
ATOM      3  C   UNL     1       9.105  -3.574  25.824  0.00  0.00    +0.017 A 
ATOM      4  C   UNL     1       8.754  -3.190  24.512  0.00  0.00    +0.043 A 
ATOM      5  C   UNL     1       7.679  -3.839  23.881  0.00  0.00    +0.074 A 
ATOM      6 CL   UNL     1       7.400  -3.709  22.170  0.00  0.00    -0.081 Cl
ATOM      7  C   UNL     1       6.894  -4.744  24.621  0.00  0.00    +0.101 A 
ATOM      8 CL   UNL     1       5.452  -5.451  23.939  0.00  0.00    -0.078 Cl
ENDROOT
BRANCH   4   9
ATOM      9  C   UNL     1       9.648  -2.179  23.868  0.00  0.00    +0.201 C 
ATOM     10  O   UNL     1      10.535  -2.636  23.148  0.00  0.00    -0.286 OA
BRANCH   9  11
ATOM     11  C   UNL     1       9.486  -0.746  24.046  0.00  0.00    +0.059 A 
ATOM     12  S   UNL     1       8.042   0.097  23.667  0.00  0.00    -0.093 S 
ATOM     13  C   UNL     1       8.806   1.615  23.899  0.00  0.00    +0.046 A 
ATOM     14  C   UNL     1      10.052   1.476  24.467  0.00  0.00    +0.008 A 
ATOM     15  C   UNL     1      10.418   0.109  24.610  0.00  0.00    +0.019 A 
ENDBRANCH   9  11
ENDBRANCH   4   9
BRANCH   1  16
ATOM     16  O   UNL     1       6.475  -6.063  26.531  0.00  0.00    -0.479 OA
BRANCH  16  17
ATOM     17  C   UNL     1       5.546  -5.641  27.532  0.00  0.00    +0.349 C 
BRANCH  17  18
ATOM     18  C   UNL     1       5.875  -6.396  28.805  0.00  0.00    +0.343 C 
ATOM     19  O   UNL     1       6.328  -5.865  29.815  0.00  0.00    -0.247 OA
BRANCH  18  20
ATOM     20  O   UNL     1       5.626  -7.726  28.737  0.00  0.00    -0.478 OA
ATOM     21  H   UNL     1       5.397  -7.984  27.814  0.00  0.00    +0.295 HD
ENDBRANCH  18  20
ENDBRANCH  17  18
ENDBRANCH  16  17
ENDBRANCH   1  16
TORSDOF 6
ENDMDL
MODEL 3
REMARK VINA RESULT:      -6.0      1.854      2.241
REMARK  Name = 
REMARK  6 active torsions:
REMARK  status: ('A' for Active; 'I' for Inactive)
REMARK    1  A    between atoms: O_1  and  C_2
REMARK    2  A    between atoms: C_2  and  C_4
REMARK    3  A    between atoms: C_4  and  O_5
REMARK    4  A    between atoms: O_5  and  C_6
REMARK    5  A    between atoms: C_11  and  C_14
REMARK    6  A    between atoms: C_14  and  C_16
REMARK                            x       y       z     vdW  Elec       q    Type
REMARK                         _______ _______ _______ _____ _____    ______ ____
ROOT
ATOM      1  C   UNL     1       9.435  -1.301  23.968  0.00  0.00    +0.141 A 
ATOM      2  C   UNL     1       9.908  -2.604  23.869  0.00  0.00    +0.048 A 
ATOM      3  C   UNL     1       9.242  -3.631  24.544  0.00  0.00    +0.017 A 
ATOM      4  C   UNL     1       8.132  -3.369  25.375  0.00  0.00    +0.043 A 
ATOM      5  C   UNL     1       7.728  -2.036  25.564  0.00  0.00    +0.074 A 
ATOM      6 CL   UNL     1       6.631  -1.577  26.831  0.00  0.00    -0.081 Cl
ATOM      7  C   UNL     1       8.342  -1.019  24.808  0.00  0.00    +0.101 A 
ATOM      8 CL   UNL     1       7.768   0.627  24.880  0.00  0.00    -0.078 Cl
ENDROOT
BRANCH   4   9
ATOM      9  C   UNL     1       7.547  -4.555  26.074  0.00  0.00    +0.201 C 
ATOM     10  O   UNL     1       8.089  -4.867  27.134  0.00  0.00    -0.286 OA
BRANCH   9  11
ATOM     11  C   UNL     1       6.401  -5.290  25.569  0.00  0.00    +0.059 A 
ATOM     12  S   UNL     1       5.335  -6.186  26.569  0.00  0.00    -0.093 S 
ATOM     13  C   UNL     1       4.552  -6.873  25.208  0.00  0.00    +0.046 A 
ATOM     14  C   UNL     1       4.940  -6.266  24.036  0.00  0.00    +0.008 A 
ATOM     15  C   UNL     1       5.965  -5.304  24.254  0.00  0.00    +0.019 A 
ENDBRANCH   9  11
ENDBRANCH   4   9
BRANCH   1  16
ATOM     16  O   UNL     1      10.023  -0.227  23.355  0.00  0.00    -0.479 OA
BRANCH  16  17
ATOM     17  C   UNL     1       9.865  -0.103  21.940  0.00  0.00    +0.349 C 
BRANCH  17  18
ATOM     18  C   UNL     1       9.313   1.282  21.664  0.00  0.00    +0.343 C 
ATOM     19  O   UNL     1       8.121   1.520  21.495  0.00  0.00    -0.247 OA
BRANCH  18  20
ATOM     20  O   UNL     1      10.258   2.252  21.616  0.00  0.00    -0.478 OA
ATOM     21  H   UNL     1       9.910   3.088  22.003  0.00  0.00    +0.295 HD
ENDBRANCH  18  20
ENDBRANCH  17  18
ENDBRANCH  16  17
ENDBRANCH   1  16
TORSDOF 6
ENDMDL
MODEL 4
REMARK VINA RESULT:      -6.0      3.033      6.595
REMARK  Name = 
REMARK  6 active torsions:
REMARK  status: ('A' for Active; 'I' for Inactive)
REMARK    1  A    between atoms: O_1  and  C_2
REMARK    2  A    between atoms: C_2  and  C_4
REMARK    3  A    between atoms: C_4  and  O_5
REMARK    4  A    between atoms: O_5  and  C_6
REMARK    5  A    between atoms: C_11  and  C_14
REMARK    6  A    between atoms: C_14  and  C_16
REMARK                            x       y       z     vdW  Elec       q    Type
REMARK                         _______ _______ _______ _____ _____    ______ ____
ROOT
ATOM      1  C   UNL     1       5.706  -3.362  23.705  0.00  0.00    +0.141 A 
ATOM      2  C   UNL     1       6.205  -2.981  22.465  0.00  0.00    +0.048 A 
ATOM      3  C   UNL     1       7.517  -2.509  22.366  0.00  0.00    +0.017 A 
ATOM      4  C   UNL     1       8.332  -2.351  23.508  0.00  0.00    +0.043 A 
ATOM      5  C   UNL     1       7.785  -2.627  24.773  0.00  0.00    +0.074 A 
ATOM      6 CL   UNL     1       8.563  -2.123  26.243  0.00  0.00    -0.081 Cl
ATOM      7  C   UNL     1       6.497  -3.192  24.856  0.00  0.00    +0.101 A 
ATOM      8 CL   UNL     1       5.838  -3.706  26.387  0.00  0.00    -0.078 Cl
ENDROOT
BRANCH   4   9
ATOM      9  C   UNL     1       9.696  -1.790  23.262  0.00  0.00    +0.201 C 
ATOM     10  O   UNL     1      10.606  -2.617  23.197  0.00  0.00    -0.286 OA
BRANCH   9  11
ATOM     11  C   UNL     1       9.952  -0.372  23.081  0.00  0.00    +0.059 A 
ATOM     12  S   UNL     1      10.523   0.654  24.330  0.00  0.00    -0.093 S 
ATOM     13  C   UNL     1      10.271   2.051  23.369  0.00  0.00    +0.046 A 
ATOM     14  C   UNL     1       9.978   1.726  22.064  0.00  0.00    +0.008 A 
ATOM     15  C   UNL     1       9.857   0.320  21.885  0.00  0.00    +0.019 A 
ENDBRANCH   9  11
ENDBRANCH   4   9
BRANCH   1  16
ATOM     16  O   UNL     1       4.433  -3.824  23.906  0.00  0.00    -0.479 OA
BRANCH  16  17
ATOM     17  C   UNL     1       3.998  -4.930  23.112  0.00  0.00    +0.349 C 
BRANCH  17  18
ATOM     18  C   UNL     1       4.776  -6.150  23.566  0.00  0.00    +0.343 C 
ATOM     19  O   UNL     1       4.688  -6.635  24.690  0.00  0.00    -0.247 OA
BRANCH  18  20
ATOM     20  O   UNL     1       5.590  -6.669  22.616  0.00  0.00    -0.478 OA
ATOM     21  H   UNL     1       5.578  -7.652  22.655  0.00  0.00    +0.295 HD
ENDBRANCH  18  20
ENDBRANCH  17  18
ENDBRANCH  16  17
ENDBRANCH   1  16
TORSDOF 6
ENDMDL
MODEL 5
REMARK VINA RESULT:      -6.0      2.810      3.593
REMARK  Name = 
REMARK  6 active torsions:
REMARK  status: ('A' for Active; 'I' for Inactive)
REMARK    1  A    between atoms: O_1  and  C_2
REMARK    2  A    between atoms: C_2  and  C_4
REMARK    3  A    between atoms: C_4  and  O_5
REMARK    4  A    between atoms: O_5  and  C_6
REMARK    5  A    between atoms: C_11  and  C_14
REMARK    6  A    between atoms: C_14  and  C_16
REMARK                            x       y       z     vdW  Elec       q    Type
REMARK                         _______ _______ _______ _____ _____    ______ ____
ROOT
ATOM      1  C   UNL     1       8.588   2.472  22.772  0.00  0.00    +0.141 A 
ATOM      2  C   UNL     1       8.959   1.801  21.612  0.00  0.00    +0.048 A 
ATOM      3  C   UNL     1       9.278   0.442  21.676  0.00  0.00    +0.017 A 
ATOM      4  C   UNL     1       9.294  -0.255  22.903  0.00  0.00    +0.043 A 
ATOM      5  C   UNL     1       9.032   0.454  24.087  0.00  0.00    +0.074 A 
ATOM      6 CL   UNL     1       9.382  -0.210  25.655  0.00  0.00    -0.081 Cl
ATOM      7  C   UNL     1       8.618   1.798  24.006  0.00  0.00    +0.101 A 
ATOM      8 CL   UNL     1       8.121   2.674  25.431  0.00  0.00    -0.078 Cl
ENDROOT
BRANCH   4   9
ATOM      9  C   UNL     1       9.701  -1.692  22.830  0.00  0.00    +0.201 C 
ATOM     10  O   UNL     1      10.839  -1.900  22.409  0.00  0.00    -0.286 OA
BRANCH   9  11
ATOM     11  C   UNL     1       8.840  -2.785  23.246  0.00  0.00    +0.059 A 
ATOM     12  S   UNL     1       9.156  -3.771  24.613  0.00  0.00    -0.093 S 
ATOM     13  C   UNL     1       7.896  -4.854  24.187  0.00  0.00    +0.046 A 
ATOM     14  C   UNL     1       7.118  -4.355  23.167  0.00  0.00    +0.008 A 
ATOM     15  C   UNL     1       7.630  -3.126  22.666  0.00  0.00    +0.019 A 
ENDBRANCH   9  11
ENDBRANCH   4   9
BRANCH   1  16
ATOM     16  O   UNL     1       8.269   3.804  22.815  0.00  0.00    -0.479 OA
BRANCH  16  17
ATOM     17  C   UNL     1       7.014   4.201  22.258  0.00  0.00    +0.349 C 
BRANCH  17  18
ATOM     18  C   UNL     1       7.035   5.711  22.122  0.00  0.00    +0.343 C 
ATOM     19  O   UNL     1       6.035   6.417  22.205  0.00  0.00    -0.247 OA
BRANCH  18  20
ATOM     20  O   UNL     1       8.268   6.227  21.897  0.00  0.00    -0.478 OA
ATOM     21  H   UNL     1       8.332   7.135  22.271  0.00  0.00    +0.295 HD
ENDBRANCH  18  20
ENDBRANCH  17  18
ENDBRANCH  16  17
ENDBRANCH   1  16
TORSDOF 6
ENDMDL
MODEL 6
REMARK VINA RESULT:      -5.9      2.271      2.958
REMARK  Name = 
REMARK  6 active torsions:
REMARK  status: ('A' for Active; 'I' for Inactive)
REMARK    1  A    between atoms: O_1  and  C_2
REMARK    2  A    between atoms: C_2  and  C_4
REMARK    3  A    between atoms: C_4  and  O_5
REMARK    4  A    between atoms: O_5  and  C_6
REMARK    5  A    between atoms: C_11  and  C_14
REMARK    6  A    between atoms: C_14  and  C_16
REMARK                            x       y       z     vdW  Elec       q    Type
REMARK                         _______ _______ _______ _____ _____    ______ ____
ROOT
ATOM      1  C   UNL     1       8.727   0.510  22.098  0.00  0.00    +0.141 A 
ATOM      2  C   UNL     1       9.592  -0.532  21.784  0.00  0.00    +0.048 A 
ATOM      3  C   UNL     1       9.222  -1.847  22.078  0.00  0.00    +0.017 A 
ATOM      4  C   UNL     1       8.012  -2.141  22.745  0.00  0.00    +0.043 A 
ATOM      5  C   UNL     1       7.196  -1.077  23.164  0.00  0.00    +0.074 A 
ATOM      6 CL   UNL     1       5.896  -1.305  24.296  0.00  0.00    -0.081 Cl
ATOM      7  C   UNL     1       7.528   0.237  22.781  0.00  0.00    +0.101 A 
ATOM      8 CL   UNL     1       6.462   1.573  23.132  0.00  0.00    -0.078 Cl
ENDROOT
BRANCH   4   9
ATOM      9  C   UNL     1       7.766  -3.586  23.039  0.00  0.00    +0.201 C 
ATOM     10  O   UNL     1       7.333  -4.253  22.100  0.00  0.00    -0.286 OA
BRANCH   9  11
ATOM     11  C   UNL     1       8.038  -4.192  24.331  0.00  0.00    +0.059 A 
ATOM     12  S   UNL     1       6.864  -5.050  25.239  0.00  0.00    -0.093 S 
ATOM     13  C   UNL     1       7.904  -5.133  26.601  0.00  0.00    +0.046 A 
ATOM     14  C   UNL     1       9.181  -4.722  26.293  0.00  0.00    +0.008 A 
ATOM     15  C   UNL     1       9.272  -4.237  24.959  0.00  0.00    +0.019 A 
ENDBRANCH   9  11
ENDBRANCH   4   9
BRANCH   1  16
ATOM     16  O   UNL     1       9.004   1.830  21.861  0.00  0.00    -0.479 OA
BRANCH  16  17
ATOM     17  C   UNL     1      10.242   2.345  22.356  0.00  0.00    +0.349 C 
BRANCH  17  18
ATOM     18  C   UNL     1       9.920   3.257  23.524  0.00  0.00    +0.343 C 
ATOM     19  O   UNL     1       9.298   2.897  24.519  0.00  0.00    -0.247 OA
BRANCH  18  20
ATOM     20  O   UNL     1      10.380   4.523  23.377  0.00  0.00    -0.478 OA
ATOM     21  H   UNL     1       9.919   5.129  24.001  0.00  0.00    +0.295 HD
ENDBRANCH  18  20
ENDBRANCH  17  18
ENDBRANCH  16  17
ENDBRANCH   1  16
TORSDOF 6
ENDMDL
MODEL 7
REMARK VINA RESULT:      -5.8      2.846      6.670
REMARK  Name = 
REMARK  6 active torsions:
REMARK  status: ('A' for Active; 'I' for Inactive)
REMARK    1  A    between atoms: O_1  and  C_2
REMARK    2  A    between atoms: C_2  and  C_4
REMARK    3  A    between atoms: C_4  and  O_5
REMARK    4  A    between atoms: O_5  and  C_6
REMARK    5  A    between atoms: C_11  and  C_14
REMARK    6  A    between atoms: C_14  and  C_16
REMARK                            x       y       z     vdW  Elec       q    Type
REMARK                         _______ _______ _______ _____ _____    ______ ____
ROOT
ATOM      1  C   UNL     1       8.042  -3.157  23.796  0.00  0.00    +0.141 A 
ATOM      2  C   UNL     1       8.521  -2.368  22.756  0.00  0.00    +0.048 A 
ATOM      3  C   UNL     1       9.247  -1.210  23.050  0.00  0.00    +0.017 A 
ATOM      4  C   UNL     1       9.454  -0.787  24.381  0.00  0.00    +0.043 A 
ATOM      5  C   UNL     1       8.870  -1.526  25.424  0.00  0.00    +0.074 A 
ATOM      6 CL   UNL     1       8.753  -0.901  27.042  0.00  0.00    -0.081 Cl
ATOM      7  C   UNL     1       8.222  -2.741  25.127  0.00  0.00    +0.101 A 
ATOM      8 CL   UNL     1       7.626  -3.777  26.398  0.00  0.00    -0.078 Cl
ENDROOT
BRANCH   4   9
ATOM      9  C   UNL     1      10.206   0.495  24.547  0.00  0.00    +0.201 C 
ATOM     10  O   UNL     1      11.413   0.379  24.754  0.00  0.00    -0.286 OA
BRANCH   9  11
ATOM     11  C   UNL     1       9.580   1.802  24.449  0.00  0.00    +0.059 A 
ATOM     12  S   UNL     1      10.176   3.064  23.453  0.00  0.00    -0.093 S 
ATOM     13  C   UNL     1       9.083   4.192  24.140  0.00  0.00    +0.046 A 
ATOM     14  C   UNL     1       8.145   3.574  24.936  0.00  0.00    +0.008 A 
ATOM     15  C   UNL     1       8.397   2.180  25.062  0.00  0.00    +0.019 A 
ENDBRANCH   9  11
ENDBRANCH   4   9
BRANCH   1  16
ATOM     16  O   UNL     1       7.312  -4.301  23.611  0.00  0.00    -0.479 OA
BRANCH  16  17
ATOM     17  C   UNL     1       7.471  -4.995  22.371  0.00  0.00    +0.349 C 
BRANCH  17  18
ATOM     18  C   UNL     1       6.113  -5.040  21.698  0.00  0.00    +0.343 C 
ATOM     19  O   UNL     1       5.564  -4.059  21.205  0.00  0.00    -0.247 OA
BRANCH  18  20
ATOM     20  O   UNL     1       5.545  -6.270  21.686  0.00  0.00    -0.478 OA
ATOM     21  H   UNL     1       4.738  -6.268  21.123  0.00  0.00    +0.295 HD
ENDBRANCH  18  20
ENDBRANCH  17  18
ENDBRANCH  16  17
ENDBRANCH   1  16
TORSDOF 6
ENDMDL
MODEL 8
REMARK VINA RESULT:      -5.8      3.406      7.226
REMARK  Name = 
REMARK  6 active torsions:
REMARK  status: ('A' for Active; 'I' for Inactive)
REMARK    1  A    between atoms: O_1  and  C_2
REMARK    2  A    between atoms: C_2  and  C_4
REMARK    3  A    between atoms: C_4  and  O_5
REMARK    4  A    between atoms: O_5  and  C_6
REMARK    5  A    between atoms: C_11  and  C_14
REMARK    6  A    between atoms: C_14  and  C_16
REMARK                            x       y       z     vdW  Elec       q    Type
REMARK                         _______ _______ _______ _____ _____    ______ ____
ROOT
ATOM      1  C   UNL     1       5.754  -5.573  23.403  0.00  0.00    +0.141 A 
ATOM      2  C   UNL     1       6.263  -4.980  22.253  0.00  0.00    +0.048 A 
ATOM      3  C   UNL     1       7.370  -4.131  22.349  0.00  0.00    +0.017 A 
ATOM      4  C   UNL     1       7.947  -3.811  23.597  0.00  0.00    +0.043 A 
ATOM      5  C   UNL     1       7.358  -4.320  24.766  0.00  0.00    +0.074 A 
ATOM      6 CL   UNL     1       7.754  -3.703  26.342  0.00  0.00    -0.081 Cl
ATOM      7  C   UNL     1       6.305  -5.249  24.656  0.00  0.00    +0.101 A 
ATOM      8 CL   UNL     1       5.649  -6.037  26.068  0.00  0.00    -0.078 Cl
ENDROOT
BRANCH   4   9
ATOM      9  C   UNL     1       9.094  -2.852  23.556  0.00  0.00    +0.201 C 
ATOM     10  O   UNL     1      10.156  -3.275  24.012  0.00  0.00    -0.286 OA
BRANCH   9  11
ATOM     11  C   UNL     1       8.994  -1.516  22.996  0.00  0.00    +0.059 A 
ATOM     12  S   UNL     1       8.034  -0.272  23.682  0.00  0.00    -0.093 S 
ATOM     13  C   UNL     1       8.282   0.741  22.321  0.00  0.00    +0.046 A 
ATOM     14  C   UNL     1       9.248   0.237  21.480  0.00  0.00    +0.008 A 
ATOM     15  C   UNL     1       9.705  -1.040  21.907  0.00  0.00    +0.019 A 
ENDBRANCH   9  11
ENDBRANCH   4   9
BRANCH   1  16
ATOM     16  O   UNL     1       4.669  -6.409  23.414  0.00  0.00    -0.479 OA
BRANCH  16  17
ATOM     17  C   UNL     1       3.376  -5.816  23.275  0.00  0.00    +0.349 C 
BRANCH  17  18
ATOM     18  C   UNL     1       2.360  -6.941  23.244  0.00  0.00    +0.343 C 
ATOM     19  O   UNL     1       1.234  -6.831  22.770  0.00  0.00    -0.247 OA
BRANCH  18  20
ATOM     20  O   UNL     1       2.804  -8.098  23.794  0.00  0.00    -0.478 OA
ATOM     21  H   UNL     1       2.728  -8.835  23.146  0.00  0.00    +0.295 HD
ENDBRANCH  18  20
ENDBRANCH  17  18
ENDBRANCH  16  17
ENDBRANCH   1  16
TORSDOF 6
ENDMDL
MODEL 9
REMARK VINA RESULT:      -5.8      2.560      3.022
REMARK  Name = 
REMARK  6 active torsions:
REMARK  status: ('A' for Active; 'I' for Inactive)
REMARK    1  A    between atoms: O_1  and  C_2
REMARK    2  A    between atoms: C_2  and  C_4
REMARK    3  A    between atoms: C_4  and  O_5
REMARK    4  A    between atoms: O_5  and  C_6
REMARK    5  A    between atoms: C_11  and  C_14
REMARK    6  A    between atoms: C_14  and  C_16
REMARK                            x       y       z     vdW  Elec       q    Type
REMARK                         _______ _______ _______ _____ _____    ______ ____
ROOT
ATOM      1  C   UNL     1       9.308   1.407  24.442  0.00  0.00    +0.141 A 
ATOM      2  C   UNL     1       8.820   0.560  25.431  0.00  0.00    +0.048 A 
ATOM      3  C   UNL     1       8.736  -0.812  25.181  0.00  0.00    +0.017 A 
ATOM      4  C   UNL     1       9.077  -1.355  23.923  0.00  0.00    +0.043 A 
ATOM      5  C   UNL     1       9.460  -0.482  22.891  0.00  0.00    +0.074 A 
ATOM      6 CL   UNL     1       9.542  -0.997  21.232  0.00  0.00    -0.081 Cl
ATOM      7  C   UNL     1       9.634   0.886  23.177  0.00  0.00    +0.101 A 
ATOM      8 CL   UNL     1      10.265   1.983  21.976  0.00  0.00    -0.078 Cl
ENDROOT
BRANCH   4   9
ATOM      9  C   UNL     1       8.893  -2.832  23.781  0.00  0.00    +0.201 C 
ATOM     10  O   UNL     1       9.830  -3.525  24.177  0.00  0.00    -0.286 OA
BRANCH   9  11
ATOM     11  C   UNL     1       7.687  -3.435  23.238  0.00  0.00    +0.059 A 
ATOM     12  S   UNL     1       7.420  -5.127  23.176  0.00  0.00    -0.093 S 
ATOM     13  C   UNL     1       6.017  -4.922  22.213  0.00  0.00    +0.046 A 
ATOM     14  C   UNL     1       5.640  -3.601  22.135  0.00  0.00    +0.008 A 
ATOM     15  C   UNL     1       6.575  -2.747  22.784  0.00  0.00    +0.019 A 
ENDBRANCH   9  11
ENDBRANCH   4   9
BRANCH   1  16
ATOM     16  O   UNL     1       9.418   2.765  24.586  0.00  0.00    -0.479 OA
BRANCH  16  17
ATOM     17  C   UNL     1       8.214   3.508  24.789  0.00  0.00    +0.349 C 
BRANCH  17  18
ATOM     18  C   UNL     1       7.778   4.045  23.440  0.00  0.00    +0.343 C 
ATOM     19  O   UNL     1       6.739   3.714  22.877  0.00  0.00    -0.247 OA
BRANCH  18  20
ATOM     20  O   UNL     1       8.644   4.934  22.896  0.00  0.00    -0.478 OA
ATOM     21  H   UNL     1       9.290   4.470  22.315  0.00  0.00    +0.295 HD
ENDBRANCH  18  20
ENDBRANCH  17  18
ENDBRANCH  16  17
ENDBRANCH   1  16
TORSDOF 6
ENDMDL
