MODEL 1
REMARK VINA RESULT:      -6.0      0.000      0.000
REMARK  Name = 
REMARK  6 active torsions:
REMARK  status: ('A' for Active; 'I' for Inactive)
REMARK    1  A    between atoms: C_1  and  N_2
REMARK    2  A    between atoms: N_5  and  C_8
REMARK    3  A    between atoms: C_9  and  C_10
REMARK    4  A    between atoms: C_10  and  N_11
REMARK    5  A    between atoms: N_12  and  C_13
REMARK    6  A    between atoms: C_13  and  N_14
REMARK                            x       y       z     vdW  Elec       q    Type
REMARK                         _______ _______ _______ _____ _____    ______ ____
ROOT
ATOM      1  C   UNL     1       6.813  -4.336  24.046  0.00  0.00    +0.035 A 
ATOM      2  C   UNL     1       6.388  -4.822  22.790  0.00  0.00    +0.023 A 
ATOM      3  C   UNL     1       5.438  -5.841  22.652  0.00  0.00    +0.002 A 
ATOM      4  C   UNL     1       4.902  -6.441  23.778  0.00  0.00    +0.000 A 
ATOM      5  C   UNL     1       5.312  -6.009  25.032  0.00  0.00    +0.007 A 
ATOM      6  C   UNL     1       6.234  -4.945  25.187  0.00  0.00    -0.004 A 
ENDROOT
BRANCH   1  11
ATOM      7  C   UNL     1       9.865  -0.325  25.008  0.00  0.00    +0.105 C 
ATOM      8  N   UNL     1       9.511  -0.984  23.757  0.00  0.00    -0.302 NA
ATOM      9  C   UNL     1       8.052  -0.915  23.506  0.00  0.00    +0.103 C 
ATOM     10  C   UNL     1       7.194  -1.885  24.360  0.00  0.00    +0.120 C 
ATOM     11  N   UNL     1       7.679  -3.256  24.124  0.00  0.00    -0.327 N 
ATOM     12  C   UNL     1       9.091  -3.416  24.514  0.00  0.00    +0.120 C 
ATOM     13  C   UNL     1       9.959  -2.388  23.731  0.00  0.00    +0.103 C 
ENDBRANCH   1  11
BRANCH   6  14
ATOM     14  C   UNL     1       6.441  -4.454  26.609  0.00  0.00    +0.200 C 
BRANCH  14  15
ATOM     15  N   UNL     1       7.461  -5.240  27.321  0.00  0.00    -0.191 NA
ATOM     16  N   UNL     1       7.204  -6.050  28.244  0.00  0.00    -0.100 NA
BRANCH  16  17
ATOM     17  C   UNL     1       5.934  -6.277  28.719  0.00  0.00    +0.172 C 
ATOM     18  S   UNL     1       5.174  -5.323  29.870  0.00  0.00    -0.015 S 
BRANCH  17  19
ATOM     19  N   UNL     1       5.302  -7.432  28.358  0.00  0.00    -0.338 N 
ATOM     20  H   UNL     1       4.683  -7.408  27.559  0.00  0.00    +0.144 HD
ATOM     21  H   UNL     1       5.242  -8.210  28.992  0.00  0.00    +0.144 HD
ENDBRANCH  17  19
ENDBRANCH  16  17
ENDBRANCH  14  15
ENDBRANCH   6  14
TORSDOF 5
ENDMDL
MODEL 2
REMARK VINA RESULT:      -5.9      6.173      9.754
REMARK  Name = 
REMARK  6 active torsions:
REMARK  status: ('A' for Active; 'I' for Inactive)
REMARK    1  A    between atoms: C_1  and  N_2
REMARK    2  A    between atoms: N_5  and  C_8
REMARK    3  A    between atoms: C_9  and  C_10
REMARK    4  A    between atoms: C_10  and  N_11
REMARK    5  A    between atoms: N_12  and  C_13
REMARK    6  A    between atoms: C_13  and  N_14
REMARK                            x       y       z     vdW  Elec       q    Type
REMARK                         _______ _______ _______ _____ _____    ______ ____
ROOT
ATOM      1  C   UNL     1      10.556   3.384  23.490  0.00  0.00    +0.035 A 
ATOM      2  C   UNL     1      11.864   3.890  23.324  0.00  0.00    +0.023 A 
ATOM      3  C   UNL     1      12.194   5.231  23.553  0.00  0.00    +0.002 A 
ATOM      4  C   UNL     1      11.210   6.130  23.922  0.00  0.00    +0.000 A 
ATOM      5  C   UNL     1       9.906   5.679  24.073  0.00  0.00    +0.007 A 
ATOM      6  C   UNL     1       9.567   4.315  23.895  0.00  0.00    -0.004 A 
ENDROOT
BRANCH   1  11
ATOM      7  C   UNL     1      10.253  -1.675  22.686  0.00  0.00    +0.105 C 
ATOM      8  N   UNL     1       9.275  -0.724  23.200  0.00  0.00    -0.302 NA
ATOM      9  C   UNL     1       8.968   0.328  22.201  0.00  0.00    +0.103 C 
ATOM     10  C   UNL     1      10.064   1.412  22.034  0.00  0.00    +0.120 C 
ATOM     11  N   UNL     1      10.305   2.027  23.351  0.00  0.00    -0.327 N 
ATOM     12  C   UNL     1      10.772   1.043  24.342  0.00  0.00    +0.120 C 
ATOM     13  C   UNL     1       9.724  -0.103  24.459  0.00  0.00    +0.103 C 
ENDBRANCH   1  11
BRANCH   6  14
ATOM     14  C   UNL     1       8.148   3.933  24.279  0.00  0.00    +0.200 C 
BRANCH  14  15
ATOM     15  N   UNL     1       7.397   3.381  23.140  0.00  0.00    -0.191 NA
ATOM     16  N   UNL     1       6.788   4.081  22.296  0.00  0.00    -0.100 NA
BRANCH  16  17
ATOM     17  C   UNL     1       6.727   5.453  22.355  0.00  0.00    +0.172 C 
ATOM     18  S   UNL     1       5.637   6.308  23.301  0.00  0.00    -0.015 S 
BRANCH  17  19
ATOM     19  N   UNL     1       7.486   6.175  21.480  0.00  0.00    -0.338 N 
ATOM     20  H   UNL     1       7.755   7.114  21.743  0.00  0.00    +0.144 HD
ATOM     21  H   UNL     1       7.567   5.903  20.516  0.00  0.00    +0.144 HD
ENDBRANCH  17  19
ENDBRANCH  16  17
ENDBRANCH  14  15
ENDBRANCH   6  14
TORSDOF 5
ENDMDL
MODEL 3
REMARK VINA RESULT:      -5.7      0.926      1.472
REMARK  Name = 
REMARK  6 active torsions:
REMARK  status: ('A' for Active; 'I' for Inactive)
REMARK    1  A    between atoms: C_1  and  N_2
REMARK    2  A    between atoms: N_5  and  C_8
REMARK    3  A    between atoms: C_9  and  C_10
REMARK    4  A    between atoms: C_10  and  N_11
REMARK    5  A    between atoms: N_12  and  C_13
REMARK    6  A    between atoms: C_13  and  N_14
REMARK                            x       y       z     vdW  Elec       q    Type
REMARK                         _______ _______ _______ _____ _____    ______ ____
ROOT
ATOM      1  C   UNL     1       7.215  -3.974  23.365  0.00  0.00    +0.035 A 
ATOM      2  C   UNL     1       6.970  -4.485  22.072  0.00  0.00    +0.023 A 
ATOM      3  C   UNL     1       6.145  -5.591  21.836  0.00  0.00    +0.002 A 
ATOM      4  C   UNL     1       5.561  -6.255  22.900  0.00  0.00    +0.000 A 
ATOM      5  C   UNL     1       5.795  -5.799  24.190  0.00  0.00    +0.007 A 
ATOM      6  C   UNL     1       6.587  -4.651  24.440  0.00  0.00    -0.004 A 
ENDROOT
BRANCH   1  11
ATOM      7  C   UNL     1      10.330   0.103  23.444  0.00  0.00    +0.105 C 
ATOM      8  N   UNL     1       9.261  -0.307  24.347  0.00  0.00    -0.302 NA
ATOM      9  C   UNL     1       9.551  -1.624  24.962  0.00  0.00    +0.103 C 
ATOM     10  C   UNL     1       9.345  -2.843  24.026  0.00  0.00    +0.120 C 
ATOM     11  N   UNL     1       7.957  -2.814  23.533  0.00  0.00    -0.327 N 
ATOM     12  C   UNL     1       7.668  -1.588  22.770  0.00  0.00    +0.120 C 
ATOM     13  C   UNL     1       7.954  -0.347  23.667  0.00  0.00    +0.103 C 
ENDBRANCH   1  11
BRANCH   6  14
ATOM     14  C   UNL     1       6.599  -4.158  25.877  0.00  0.00    +0.200 C 
BRANCH  14  15
ATOM     15  N   UNL     1       7.582  -4.880  26.699  0.00  0.00    -0.191 NA
ATOM     16  N   UNL     1       7.278  -5.669  27.626  0.00  0.00    -0.100 NA
BRANCH  16  17
ATOM     17  C   UNL     1       5.981  -5.930  28.001  0.00  0.00    +0.172 C 
ATOM     18  S   UNL     1       5.127  -5.027  29.127  0.00  0.00    -0.015 S 
BRANCH  17  19
ATOM     19  N   UNL     1       5.395  -7.080  27.558  0.00  0.00    -0.338 N 
ATOM     20  H   UNL     1       5.315  -7.221  26.559  0.00  0.00    +0.144 HD
ATOM     21  H   UNL     1       4.837  -7.648  28.171  0.00  0.00    +0.144 HD
ENDBRANCH  17  19
ENDBRANCH  16  17
ENDBRANCH  14  15
ENDBRANCH   6  14
TORSDOF 5
ENDMDL
MODEL 4
REMARK VINA RESULT:      -5.6      1.510      4.175
REMARK  Name = 
REMARK  6 active torsions:
REMARK  status: ('A' for Active; 'I' for Inactive)
REMARK    1  A    between atoms: C_1  and  N_2
REMARK    2  A    between atoms: N_5  and  C_8
REMARK    3  A    between atoms: C_9  and  C_10
REMARK    4  A    between atoms: C_10  and  N_11
REMARK    5  A    between atoms: N_12  and  C_13
REMARK    6  A    between atoms: C_13  and  N_14
REMARK                            x       y       z     vdW  Elec       q    Type
REMARK                         _______ _______ _______ _____ _____    ______ ____
ROOT
ATOM      1  C   UNL     1       7.933  -2.267  24.452  0.00  0.00    +0.035 A 
ATOM      2  C   UNL     1       8.785  -1.288  23.896  0.00  0.00    +0.023 A 
ATOM      3  C   UNL     1       9.491  -0.364  24.675  0.00  0.00    +0.002 A 
ATOM      4  C   UNL     1       9.338  -0.362  26.050  0.00  0.00    +0.000 A 
ATOM      5  C   UNL     1       8.490  -1.292  26.636  0.00  0.00    +0.007 A 
ATOM      6  C   UNL     1       7.809  -2.266  25.864  0.00  0.00    -0.004 A 
ENDROOT
BRANCH   1  11
ATOM      7  C   UNL     1       6.178  -5.599  20.967  0.00  0.00    +0.105 C 
ATOM      8  N   UNL     1       5.720  -5.289  22.316  0.00  0.00    -0.302 NA
ATOM      9  C   UNL     1       5.310  -3.869  22.433  0.00  0.00    +0.103 C 
ATOM     10  C   UNL     1       6.480  -2.854  22.504  0.00  0.00    +0.120 C 
ATOM     11  N   UNL     1       7.339  -3.223  23.642  0.00  0.00    -0.327 N 
ATOM     12  C   UNL     1       7.905  -4.575  23.491  0.00  0.00    +0.120 C 
ATOM     13  C   UNL     1       6.744  -5.600  23.328  0.00  0.00    +0.103 C 
ENDBRANCH   1  11
BRANCH   6  14
ATOM     14  C   UNL     1       7.073  -3.335  26.652  0.00  0.00    +0.200 C 
BRANCH  14  15
ATOM     15  N   UNL     1       7.958  -4.446  27.035  0.00  0.00    -0.191 NA
ATOM     16  N   UNL     1       7.551  -5.542  27.491  0.00  0.00    -0.100 NA
BRANCH  16  17
ATOM     17  C   UNL     1       6.224  -5.821  27.716  0.00  0.00    +0.172 C 
ATOM     18  S   UNL     1       5.408  -5.443  29.131  0.00  0.00    -0.015 S 
BRANCH  17  19
ATOM     19  N   UNL     1       5.560  -6.592  26.806  0.00  0.00    -0.338 N 
ATOM     20  H   UNL     1       5.213  -6.147  25.966  0.00  0.00    +0.144 HD
ATOM     21  H   UNL     1       5.200  -7.497  27.056  0.00  0.00    +0.144 HD
ENDBRANCH  17  19
ENDBRANCH  16  17
ENDBRANCH  14  15
ENDBRANCH   6  14
TORSDOF 5
ENDMDL
MODEL 5
REMARK VINA RESULT:      -5.5      5.608      8.498
REMARK  Name = 
REMARK  6 active torsions:
REMARK  status: ('A' for Active; 'I' for Inactive)
REMARK    1  A    between atoms: C_1  and  N_2
REMARK    2  A    between atoms: N_5  and  C_8
REMARK    3  A    between atoms: C_9  and  C_10
REMARK    4  A    between atoms: C_10  and  N_11
REMARK    5  A    between atoms: N_12  and  C_13
REMARK    6  A    between atoms: C_13  and  N_14
REMARK                            x       y       z     vdW  Elec       q    Type
REMARK                         _______ _______ _______ _____ _____    ______ ____
ROOT
ATOM      1  C   UNL     1      10.395   3.376  23.654  0.00  0.00    +0.035 A 
ATOM      2  C   UNL     1      11.621   3.968  23.279  0.00  0.00    +0.023 A 
ATOM      3  C   UNL     1      11.909   5.321  23.497  0.00  0.00    +0.002 A 
ATOM      4  C   UNL     1      10.956   6.145  24.068  0.00  0.00    +0.000 A 
ATOM      5  C   UNL     1       9.728   5.607  24.429  0.00  0.00    +0.007 A 
ATOM      6  C   UNL     1       9.442   4.230  24.262  0.00  0.00    -0.004 A 
ENDROOT
BRANCH   1  11
ATOM      7  C   UNL     1      10.268  -1.675  22.755  0.00  0.00    +0.105 C 
ATOM      8  N   UNL     1       9.311  -0.791  23.409  0.00  0.00    -0.302 NA
ATOM      9  C   UNL     1       8.828   0.261  22.483  0.00  0.00    +0.103 C 
ATOM     10  C   UNL     1       9.835   1.409  22.214  0.00  0.00    +0.120 C 
ATOM     11  N   UNL     1      10.202   2.010  23.509  0.00  0.00    -0.327 N 
ATOM     12  C   UNL     1      10.839   1.034  24.410  0.00  0.00    +0.120 C 
ATOM     13  C   UNL     1       9.876  -0.171  24.621  0.00  0.00    +0.103 C 
ENDBRANCH   1  11
BRANCH   6  14
ATOM     14  C   UNL     1       8.139   3.748  24.876  0.00  0.00    +0.200 C 
BRANCH  14  15
ATOM     15  N   UNL     1       7.949   4.263  26.241  0.00  0.00    -0.191 NA
ATOM     16  N   UNL     1       7.380   3.624  27.159  0.00  0.00    -0.100 NA
BRANCH  16  17
ATOM     17  C   UNL     1       6.839   2.373  26.985  0.00  0.00    +0.172 C 
ATOM     18  S   UNL     1       5.245   2.087  26.550  0.00  0.00    -0.015 S 
BRANCH  17  19
ATOM     19  N   UNL     1       7.588   1.287  27.338  0.00  0.00    -0.338 N 
ATOM     20  H   UNL     1       8.422   1.088  26.801  0.00  0.00    +0.144 HD
ATOM     21  H   UNL     1       7.211   0.566  27.928  0.00  0.00    +0.144 HD
ENDBRANCH  17  19
ENDBRANCH  16  17
ENDBRANCH  14  15
ENDBRANCH   6  14
TORSDOF 5
ENDMDL
MODEL 6
REMARK VINA RESULT:      -5.5      2.879      3.481
REMARK  Name = 
REMARK  6 active torsions:
REMARK  status: ('A' for Active; 'I' for Inactive)
REMARK    1  A    between atoms: C_1  and  N_2
REMARK    2  A    between atoms: N_5  and  C_8
REMARK    3  A    between atoms: C_9  and  C_10
REMARK    4  A    between atoms: C_10  and  N_11
REMARK    5  A    between atoms: N_12  and  C_13
REMARK    6  A    between atoms: C_13  and  N_14
REMARK                            x       y       z     vdW  Elec       q    Type
REMARK                         _______ _______ _______ _____ _____    ______ ____
ROOT
ATOM      1  C   UNL     1       7.582  -2.980  22.598  0.00  0.00    +0.035 A 
ATOM      2  C   UNL     1       6.482  -3.424  21.831  0.00  0.00    +0.023 A 
ATOM      3  C   UNL     1       5.987  -4.731  21.898  0.00  0.00    +0.002 A 
ATOM      4  C   UNL     1       6.605  -5.662  22.714  0.00  0.00    +0.000 A 
ATOM      5  C   UNL     1       7.705  -5.273  23.467  0.00  0.00    +0.007 A 
ATOM      6  C   UNL     1       8.185  -3.941  23.448  0.00  0.00    -0.004 A 
ENDROOT
BRANCH   1  11
ATOM      7  C   UNL     1       8.738   1.964  21.859  0.00  0.00    +0.105 C 
ATOM      8  N   UNL     1       9.039   1.062  22.963  0.00  0.00    -0.302 NA
ATOM      9  C   UNL     1       9.855  -0.091  22.511  0.00  0.00    +0.103 C 
ATOM     10  C   UNL     1       9.076  -1.176  21.724  0.00  0.00    +0.120 C 
ATOM     11  N   UNL     1       7.966  -1.648  22.570  0.00  0.00    -0.327 N 
ATOM     12  C   UNL     1       7.032  -0.562  22.914  0.00  0.00    +0.120 C 
ATOM     13  C   UNL     1       7.815   0.579  23.627  0.00  0.00    +0.103 C 
ENDBRANCH   1  11
BRANCH   6  14
ATOM     14  C   UNL     1       9.269  -3.616  24.462  0.00  0.00    +0.200 C 
BRANCH  14  15
ATOM     15  N   UNL     1       8.959  -4.161  25.793  0.00  0.00    -0.191 NA
ATOM     16  N   UNL     1       8.296  -3.549  26.665  0.00  0.00    -0.100 NA
BRANCH  16  17
ATOM     17  C   UNL     1       7.804  -2.278  26.487  0.00  0.00    +0.172 C 
ATOM     18  S   UNL     1       8.648  -0.879  26.864  0.00  0.00    -0.015 S 
BRANCH  17  19
ATOM     19  N   UNL     1       6.495  -2.133  26.130  0.00  0.00    -0.338 N 
ATOM     20  H   UNL     1       5.809  -2.023  26.866  0.00  0.00    +0.144 HD
ATOM     21  H   UNL     1       6.177  -2.378  25.208  0.00  0.00    +0.144 HD
ENDBRANCH  17  19
ENDBRANCH  16  17
ENDBRANCH  14  15
ENDBRANCH   6  14
TORSDOF 5
ENDMDL
MODEL 7
REMARK VINA RESULT:      -5.5      2.762      5.557
REMARK  Name = 
REMARK  6 active torsions:
REMARK  status: ('A' for Active; 'I' for Inactive)
REMARK    1  A    between atoms: C_1  and  N_2
REMARK    2  A    between atoms: N_5  and  C_8
REMARK    3  A    between atoms: C_9  and  C_10
REMARK    4  A    between atoms: C_10  and  N_11
REMARK    5  A    between atoms: N_12  and  C_13
REMARK    6  A    between atoms: C_13  and  N_14
REMARK                            x       y       z     vdW  Elec       q    Type
REMARK                         _______ _______ _______ _____ _____    ______ ____
ROOT
ATOM      1  C   UNL     1       5.949  -5.050  24.252  0.00  0.00    +0.035 A 
ATOM      2  C   UNL     1       5.283  -5.945  23.387  0.00  0.00    +0.023 A 
ATOM      3  C   UNL     1       5.652  -6.125  22.049  0.00  0.00    +0.002 A 
ATOM      4  C   UNL     1       6.685  -5.378  21.512  0.00  0.00    +0.000 A 
ATOM      5  C   UNL     1       7.351  -4.468  22.322  0.00  0.00    +0.007 A 
ATOM      6  C   UNL     1       7.022  -4.313  23.691  0.00  0.00    -0.004 A 
ENDROOT
BRANCH   1  11
ATOM      7  C   UNL     1       4.069  -5.041  29.026  0.00  0.00    +0.105 C 
ATOM      8  N   UNL     1       5.356  -4.604  28.500  0.00  0.00    -0.302 NA
ATOM      9  C   UNL     1       5.191  -3.515  27.507  0.00  0.00    +0.103 C 
ATOM     10  C   UNL     1       4.679  -3.970  26.116  0.00  0.00    +0.120 C 
ATOM     11  N   UNL     1       5.609  -4.987  25.595  0.00  0.00    -0.327 N 
ATOM     12  C   UNL     1       5.683  -6.168  26.473  0.00  0.00    +0.120 C 
ATOM     13  C   UNL     1       6.111  -5.719  27.901  0.00  0.00    +0.103 C 
ENDBRANCH   1  11
BRANCH   6  14
ATOM     14  C   UNL     1       7.955  -3.426  24.498  0.00  0.00    +0.200 C 
BRANCH  14  15
ATOM     15  N   UNL     1       9.370  -3.755  24.261  0.00  0.00    -0.191 NA
ATOM     16  N   UNL     1      10.212  -2.944  23.807  0.00  0.00    -0.100 NA
BRANCH  16  17
ATOM     17  C   UNL     1       9.901  -1.653  23.449  0.00  0.00    +0.172 C 
ATOM     18  S   UNL     1       9.422  -1.192  21.910  0.00  0.00    -0.015 S 
BRANCH  17  19
ATOM     19  N   UNL     1      10.145  -0.654  24.347  0.00  0.00    -0.338 N 
ATOM     20  H   UNL     1      10.946  -0.745  24.957  0.00  0.00    +0.144 HD
ATOM     21  H   UNL     1       9.434   0.018  24.581  0.00  0.00    +0.144 HD
ENDBRANCH  17  19
ENDBRANCH  16  17
ENDBRANCH  14  15
ENDBRANCH   6  14
TORSDOF 5
ENDMDL
MODEL 8
REMARK VINA RESULT:      -5.4      3.049      4.040
REMARK  Name = 
REMARK  6 active torsions:
REMARK  status: ('A' for Active; 'I' for Inactive)
REMARK    1  A    between atoms: C_1  and  N_2
REMARK    2  A    between atoms: N_5  and  C_8
REMARK    3  A    between atoms: C_9  and  C_10
REMARK    4  A    between atoms: C_10  and  N_11
REMARK    5  A    between atoms: N_12  and  C_13
REMARK    6  A    between atoms: C_13  and  N_14
REMARK                            x       y       z     vdW  Elec       q    Type
REMARK                         _______ _______ _______ _____ _____    ______ ____
ROOT
ATOM      1  C   UNL     1       8.578  -2.996  24.394  0.00  0.00    +0.035 A 
ATOM      2  C   UNL     1       9.678  -3.729  24.889  0.00  0.00    +0.023 A 
ATOM      3  C   UNL     1       9.538  -4.947  25.564  0.00  0.00    +0.002 A 
ATOM      4  C   UNL     1       8.276  -5.461  25.804  0.00  0.00    +0.000 A 
ATOM      5  C   UNL     1       7.165  -4.759  25.355  0.00  0.00    +0.007 A 
ATOM      6  C   UNL     1       7.295  -3.552  24.627  0.00  0.00    -0.004 A 
ENDROOT
BRANCH   1  11
ATOM      7  C   UNL     1       9.823   1.404  22.067  0.00  0.00    +0.105 C 
ATOM      8  N   UNL     1       8.756   0.447  21.804  0.00  0.00    -0.302 NA
ATOM      9  C   UNL     1       7.850   0.315  22.970  0.00  0.00    +0.103 C 
ATOM     10  C   UNL     1       8.419  -0.513  24.151  0.00  0.00    +0.120 C 
ATOM     11  N   UNL     1       8.779  -1.848  23.643  0.00  0.00    -0.327 N 
ATOM     12  C   UNL     1       9.804  -1.779  22.587  0.00  0.00    +0.120 C 
ATOM     13  C   UNL     1       9.285  -0.877  21.429  0.00  0.00    +0.103 C 
ENDBRANCH   1  11
BRANCH   6  14
ATOM     14  C   UNL     1       6.010  -2.998  24.035  0.00  0.00    +0.200 C 
BRANCH  14  15
ATOM     15  N   UNL     1       5.936  -3.210  22.581  0.00  0.00    -0.191 NA
ATOM     16  N   UNL     1       5.314  -4.157  22.041  0.00  0.00    -0.100 NA
BRANCH  16  17
ATOM     17  C   UNL     1       4.651  -5.128  22.752  0.00  0.00    +0.172 C 
ATOM     18  S   UNL     1       3.246  -4.862  23.628  0.00  0.00    -0.015 S 
BRANCH  17  19
ATOM     19  N   UNL     1       5.245  -6.350  22.892  0.00  0.00    -0.338 N 
ATOM     20  H   UNL     1       4.957  -7.094  22.270  0.00  0.00    +0.144 HD
ATOM     21  H   UNL     1       5.754  -6.587  23.726  0.00  0.00    +0.144 HD
ENDBRANCH  17  19
ENDBRANCH  16  17
ENDBRANCH  14  15
ENDBRANCH   6  14
TORSDOF 5
ENDMDL
MODEL 9
REMARK VINA RESULT:      -5.3      5.396      8.920
REMARK  Name = 
REMARK  6 active torsions:
REMARK  status: ('A' for Active; 'I' for Inactive)
REMARK    1  A    between atoms: C_1  and  N_2
REMARK    2  A    between atoms: N_5  and  C_8
REMARK    3  A    between atoms: C_9  and  C_10
REMARK    4  A    between atoms: C_10  and  N_11
REMARK    5  A    between atoms: N_12  and  C_13
REMARK    6  A    between atoms: C_13  and  N_14
REMARK                            x       y       z     vdW  Elec       q    Type
REMARK                         _______ _______ _______ _____ _____    ______ ____
ROOT
ATOM      1  C   UNL     1      10.299   3.307  23.378  0.00  0.00    +0.035 A 
ATOM      2  C   UNL     1      11.649   3.717  23.349  0.00  0.00    +0.023 A 
ATOM      3  C   UNL     1      12.046   5.041  23.571  0.00  0.00    +0.002 A 
ATOM      4  C   UNL     1      11.093   6.019  23.793  0.00  0.00    +0.000 A 
ATOM      5  C   UNL     1       9.751   5.662  23.805  0.00  0.00    +0.007 A 
ATOM      6  C   UNL     1       9.338   4.318  23.633  0.00  0.00    -0.004 A 
ENDROOT
BRANCH   1  11
ATOM      7  C   UNL     1       8.440  -1.467  23.102  0.00  0.00    +0.105 C 
ATOM      8  N   UNL     1       9.796  -0.955  22.953  0.00  0.00    -0.302 NA
ATOM      9  C   UNL     1      10.255  -0.280  24.190  0.00  0.00    +0.103 C 
ATOM     10  C   UNL     1       9.656   1.131  24.428  0.00  0.00    +0.120 C 
ATOM     11  N   UNL     1       9.969   1.966  23.255  0.00  0.00    -0.327 N 
ATOM     12  C   UNL     1       9.390   1.417  22.017  0.00  0.00    +0.120 C 
ATOM     13  C   UNL     1       9.913  -0.035  21.807  0.00  0.00    +0.103 C 
ENDBRANCH   1  11
BRANCH   6  14
ATOM     14  C   UNL     1       7.861   4.047  23.862  0.00  0.00    +0.200 C 
BRANCH  14  15
ATOM     15  N   UNL     1       7.081   4.158  22.620  0.00  0.00    -0.191 NA
ATOM     16  N   UNL     1       6.046   3.492  22.379  0.00  0.00    -0.100 NA
BRANCH  16  17
ATOM     17  C   UNL     1       5.534   2.553  23.243  0.00  0.00    +0.172 C 
ATOM     18  S   UNL     1       4.485   2.904  24.504  0.00  0.00    -0.015 S 
BRANCH  17  19
ATOM     19  N   UNL     1       6.022   1.280  23.181  0.00  0.00    -0.338 N 
ATOM     20  H   UNL     1       6.048   0.822  22.280  0.00  0.00    +0.144 HD
ATOM     21  H   UNL     1       6.114   0.718  24.010  0.00  0.00    +0.144 HD
ENDBRANCH  17  19
ENDBRANCH  16  17
ENDBRANCH  14  15
ENDBRANCH   6  14
TORSDOF 5
ENDMDL
