MODEL 1
REMARK VINA RESULT:      -6.6      0.000      0.000
REMARK  Name = 
REMARK  13 active torsions:
REMARK  status: ('A' for Active; 'I' for Inactive)
REMARK    1  A    between atoms: CD1_1  and  CG_2
REMARK    2  A    between atoms: CG_2  and  CD2_3
REMARK    3  A    between atoms: CG_2  and  CB_4
REMARK    4  A    between atoms: CB_4  and  CA_5
REMARK    5  A    between atoms: CA_5  and  N_7
REMARK    6  A    between atoms: CA_5  and  C_23
REMARK    7  A    between atoms: C_8  and  C_10
REMARK    8  A    between atoms: C_10  and  O_12
REMARK    9  A    between atoms: C_10  and  C_13
REMARK   10  A    between atoms: C_13  and  N_15
REMARK   11  A    between atoms: C_13  and  C_16
REMARK   12  A    between atoms: C_16  and  C_17
REMARK   13  A    between atoms: C_23  and  O_24
REMARK                            x       y       z     vdW  Elec       q    Type
REMARK                         _______ _______ _______ _____ _____    ______ ____
ROOT
ATOM      1  C   UNK A   0       9.295  -0.960  23.777  0.00  0.00    +0.217 C 
ENDROOT
BRANCH   1   4
ATOM      2  N   LEU A   1       8.292  -3.173  24.126  0.00  0.00    -0.300 N 
ATOM      3  H   LEU A   1       7.431  -2.629  24.142  0.00  0.00    +0.150 HD
ATOM      4  C   UNK A   0       9.453  -2.483  23.891  0.00  0.00    +0.244 C 
ATOM      5  O   UNK A   0      10.523  -3.070  23.765  0.00  0.00    -0.273 OA
BRANCH   2   6
ATOM      6  CA  LEU A   1       8.208  -4.630  24.256  0.00  0.00    +0.182 C 
BRANCH   6   7
ATOM      7  C   LEU A   1       8.922  -5.150  25.519  0.00  0.00    +0.325 C 
ATOM      8  OXT LEU A   1       8.433  -5.076  26.639  0.00  0.00    -0.249 OA
BRANCH   7   9
ATOM      9  O   LEU A   1      10.154  -5.672  25.319  0.00  0.00    -0.479 OA
ATOM     10  H   LEU A   1      10.883  -5.022  25.482  0.00  0.00    +0.295 HD
ENDBRANCH   7   9
ENDBRANCH   6   7
BRANCH   6  11
ATOM     11  CB  LEU A   1       6.780  -5.194  24.154  0.00  0.00    +0.036 C 
BRANCH  11  13
ATOM     12  CD1 LEU A   1       7.035  -5.938  21.726  0.00  0.00    +0.007 C 
ATOM     13  CG  LEU A   1       6.179  -5.170  22.734  0.00  0.00    -0.015 C 
ATOM     14  CD2 LEU A   1       4.760  -5.749  22.737  0.00  0.00    +0.007 C 
ENDBRANCH  11  13
ENDBRANCH   6  11
ENDBRANCH   2   6
ENDBRANCH   1   4
BRANCH   1  15
ATOM     15  O   UNK A   0      10.424  -0.348  24.444  0.00  0.00    -0.381 OA
ATOM     16  H   UNK A   0      11.189  -0.476  23.851  0.00  0.00    +0.210 HD
ENDBRANCH   1  15
BRANCH   1  17
ATOM     17  C   UNK A   0       9.282  -0.500  22.302  0.00  0.00    +0.093 C 
BRANCH  17  18
ATOM     18  N   UNK A   0       9.828  -1.574  21.440  0.00  0.00    -0.324 NA
ATOM     19  H   UNK A   0       9.356  -1.530  20.534  0.00  0.00    +0.119 HD
ATOM     20  H   UNK A   0      10.820  -1.425  21.275  0.00  0.00    +0.119 HD
ENDBRANCH  17  18
BRANCH  17  21
ATOM     21  C   UNK A   0       9.984   0.859  22.048  0.00  0.00    +0.056 C 
BRANCH  21  22
ATOM     22  C   UNK A   0       9.171   2.094  22.363  0.00  0.00    -0.046 A 
ATOM     23  C   UNK A   0       7.926   2.323  21.763  0.00  0.00    +0.004 A 
ATOM     24  C   UNK A   0       7.152   3.427  22.124  0.00  0.00    +0.000 A 
ATOM     25  C   UNK A   0       7.624   4.328  23.075  0.00  0.00    +0.000 A 
ATOM     26  C   UNK A   0       8.879   4.138  23.647  0.00  0.00    +0.000 A 
ATOM     27  C   UNK A   0       9.649   3.029  23.291  0.00  0.00    +0.004 A 
ENDBRANCH  21  22
ENDBRANCH  17  21
ENDBRANCH   1  17
TORSDOF 11
ENDMDL
MODEL 2
REMARK VINA RESULT:      -6.2      2.231      3.215
REMARK  Name = 
REMARK  13 active torsions:
REMARK  status: ('A' for Active; 'I' for Inactive)
REMARK    1  A    between atoms: CD1_1  and  CG_2
REMARK    2  A    between atoms: CG_2  and  CD2_3
REMARK    3  A    between atoms: CG_2  and  CB_4
REMARK    4  A    between atoms: CB_4  and  CA_5
REMARK    5  A    between atoms: CA_5  and  N_7
REMARK    6  A    between atoms: CA_5  and  C_23
REMARK    7  A    between atoms: C_8  and  C_10
REMARK    8  A    between atoms: C_10  and  O_12
REMARK    9  A    between atoms: C_10  and  C_13
REMARK   10  A    between atoms: C_13  and  N_15
REMARK   11  A    between atoms: C_13  and  C_16
REMARK   12  A    between atoms: C_16  and  C_17
REMARK   13  A    between atoms: C_23  and  O_24
REMARK                            x       y       z     vdW  Elec       q    Type
REMARK                         _______ _______ _______ _____ _____    ______ ____
ROOT
ATOM      1  C   UNK A   0       7.874  -3.113  22.970  0.00  0.00    +0.217 C 
ENDROOT
BRANCH   1   4
ATOM      2  N   LEU A   1       7.101  -4.298  24.977  0.00  0.00    -0.300 N 
ATOM      3  H   LEU A   1       6.993  -3.348  25.329  0.00  0.00    +0.150 HD
ATOM      4  C   UNK A   0       7.529  -4.431  23.681  0.00  0.00    +0.244 C 
ATOM      5  O   UNK A   0       7.599  -5.534  23.148  0.00  0.00    -0.273 OA
BRANCH   2   6
ATOM      6  CA  LEU A   1       6.707  -5.418  25.836  0.00  0.00    +0.182 C 
BRANCH   6   7
ATOM      7  C   LEU A   1       7.582  -5.527  27.099  0.00  0.00    +0.325 C 
ATOM      8  OXT LEU A   1       7.190  -6.041  28.139  0.00  0.00    -0.249 OA
BRANCH   7   9
ATOM      9  O   LEU A   1       8.818  -4.987  27.000  0.00  0.00    -0.479 OA
ATOM     10  H   LEU A   1       9.490  -5.443  27.566  0.00  0.00    +0.295 HD
ENDBRANCH   7   9
ENDBRANCH   6   7
BRANCH   6  11
ATOM     11  CB  LEU A   1       5.210  -5.445  26.193  0.00  0.00    +0.036 C 
BRANCH  11  13
ATOM     12  CD1 LEU A   1       3.078  -6.829  26.425  0.00  0.00    +0.007 C 
ATOM     13  CG  LEU A   1       4.485  -6.758  25.832  0.00  0.00    -0.015 C 
ATOM     14  CD2 LEU A   1       4.403  -6.930  24.311  0.00  0.00    +0.007 C 
ENDBRANCH  11  13
ENDBRANCH   6  11
ENDBRANCH   2   6
ENDBRANCH   1   4
BRANCH   1  15
ATOM     15  O   UNK A   0       6.779  -2.193  23.194  0.00  0.00    -0.381 OA
ATOM     16  H   UNK A   0       7.095  -1.320  22.893  0.00  0.00    +0.210 HD
ENDBRANCH   1  15
BRANCH   1  17
ATOM     17  C   UNK A   0       9.169  -2.488  23.533  0.00  0.00    +0.093 C 
BRANCH  17  18
ATOM     18  N   UNK A   0       9.953  -3.521  24.248  0.00  0.00    -0.324 NA
ATOM     19  H   UNK A   0      10.440  -4.094  23.555  0.00  0.00    +0.119 HD
ATOM     20  H   UNK A   0      10.660  -3.086  24.835  0.00  0.00    +0.119 HD
ENDBRANCH  17  18
BRANCH  17  21
ATOM     21  C   UNK A   0       8.946  -1.224  24.403  0.00  0.00    +0.056 C 
BRANCH  21  22
ATOM     22  C   UNK A   0       9.376   0.088  23.789  0.00  0.00    -0.046 A 
ATOM     23  C   UNK A   0       9.718   1.191  24.583  0.00  0.00    +0.004 A 
ATOM     24  C   UNK A   0      10.189   2.370  24.003  0.00  0.00    +0.000 A 
ATOM     25  C   UNK A   0      10.304   2.467  22.619  0.00  0.00    +0.000 A 
ATOM     26  C   UNK A   0       9.926   1.396  21.814  0.00  0.00    +0.000 A 
ATOM     27  C   UNK A   0       9.462   0.215  22.396  0.00  0.00    +0.004 A 
ENDBRANCH  21  22
ENDBRANCH  17  21
ENDBRANCH   1  17
TORSDOF 11
ENDMDL
MODEL 3
REMARK VINA RESULT:      -6.2      1.638      2.157
REMARK  Name = 
REMARK  13 active torsions:
REMARK  status: ('A' for Active; 'I' for Inactive)
REMARK    1  A    between atoms: CD1_1  and  CG_2
REMARK    2  A    between atoms: CG_2  and  CD2_3
REMARK    3  A    between atoms: CG_2  and  CB_4
REMARK    4  A    between atoms: CB_4  and  CA_5
REMARK    5  A    between atoms: CA_5  and  N_7
REMARK    6  A    between atoms: CA_5  and  C_23
REMARK    7  A    between atoms: C_8  and  C_10
REMARK    8  A    between atoms: C_10  and  O_12
REMARK    9  A    between atoms: C_10  and  C_13
REMARK   10  A    between atoms: C_13  and  N_15
REMARK   11  A    between atoms: C_13  and  C_16
REMARK   12  A    between atoms: C_16  and  C_17
REMARK   13  A    between atoms: C_23  and  O_24
REMARK                            x       y       z     vdW  Elec       q    Type
REMARK                         _______ _______ _______ _____ _____    ______ ____
ROOT
ATOM      1  C   UNK A   0       9.537   0.115  24.970  0.00  0.00    +0.217 C 
ENDROOT
BRANCH   1   4
ATOM      2  N   LEU A   1       8.678  -2.183  25.066  0.00  0.00    -0.300 N 
ATOM      3  H   LEU A   1       8.066  -1.779  25.774  0.00  0.00    +0.150 HD
ATOM      4  C   UNK A   0       9.548  -1.327  24.441  0.00  0.00    +0.244 C 
ATOM      5  O   UNK A   0      10.256  -1.710  23.515  0.00  0.00    -0.273 OA
BRANCH   2   6
ATOM      6  CA  LEU A   1       8.513  -3.596  24.714  0.00  0.00    +0.182 C 
BRANCH   6   7
ATOM      7  C   LEU A   1       9.287  -4.532  25.662  0.00  0.00    +0.325 C 
ATOM      8  OXT LEU A   1       9.056  -4.605  26.862  0.00  0.00    -0.249 OA
BRANCH   7   9
ATOM      9  O   LEU A   1      10.273  -5.258  25.086  0.00  0.00    -0.479 OA
ATOM     10  H   LEU A   1      10.992  -4.699  24.697  0.00  0.00    +0.295 HD
ENDBRANCH   7   9
ENDBRANCH   6   7
BRANCH   6  11
ATOM     11  CB  LEU A   1       7.048  -4.044  24.564  0.00  0.00    +0.036 C 
BRANCH  11  13
ATOM     12  CD1 LEU A   1       6.820  -3.181  22.173  0.00  0.00    +0.007 C 
ATOM     13  CG  LEU A   1       6.618  -4.366  23.118  0.00  0.00    -0.015 C 
ATOM     14  CD2 LEU A   1       7.388  -5.578  22.582  0.00  0.00    +0.007 C 
ENDBRANCH  11  13
ENDBRANCH   6  11
ENDBRANCH   2   6
ENDBRANCH   1   4
BRANCH   1  15
ATOM     15  O   UNK A   0      10.892   0.454  25.351  0.00  0.00    -0.381 OA
ATOM     16  H   UNK A   0      10.948   1.428  25.308  0.00  0.00    +0.210 HD
ENDBRANCH   1  15
BRANCH   1  17
ATOM     17  C   UNK A   0       9.062   1.112  23.891  0.00  0.00    +0.093 C 
BRANCH  17  18
ATOM     18  N   UNK A   0       8.133   0.432  22.958  0.00  0.00    -0.324 NA
ATOM     19  H   UNK A   0       7.256   0.958  22.938  0.00  0.00    +0.119 HD
ATOM     20  H   UNK A   0       8.513   0.436  22.015  0.00  0.00    +0.119 HD
ENDBRANCH  17  18
BRANCH  17  21
ATOM     21  C   UNK A   0      10.207   1.839  23.140  0.00  0.00    +0.056 C 
BRANCH  21  22
ATOM     22  C   UNK A   0      10.364   3.313  23.437  0.00  0.00    -0.046 A 
ATOM     23  C   UNK A   0       9.298   4.077  23.930  0.00  0.00    +0.004 A 
ATOM     24  C   UNK A   0       9.481   5.417  24.275  0.00  0.00    +0.000 A 
ATOM     25  C   UNK A   0      10.727   6.015  24.111  0.00  0.00    +0.000 A 
ATOM     26  C   UNK A   0      11.784   5.281  23.580  0.00  0.00    +0.000 A 
ATOM     27  C   UNK A   0      11.603   3.939  23.243  0.00  0.00    +0.004 A 
ENDBRANCH  21  22
ENDBRANCH  17  21
ENDBRANCH   1  17
TORSDOF 11
ENDMDL
MODEL 4
REMARK VINA RESULT:      -6.0      2.464      3.235
REMARK  Name = 
REMARK  13 active torsions:
REMARK  status: ('A' for Active; 'I' for Inactive)
REMARK    1  A    between atoms: CD1_1  and  CG_2
REMARK    2  A    between atoms: CG_2  and  CD2_3
REMARK    3  A    between atoms: CG_2  and  CB_4
REMARK    4  A    between atoms: CB_4  and  CA_5
REMARK    5  A    between atoms: CA_5  and  N_7
REMARK    6  A    between atoms: CA_5  and  C_23
REMARK    7  A    between atoms: C_8  and  C_10
REMARK    8  A    between atoms: C_10  and  O_12
REMARK    9  A    between atoms: C_10  and  C_13
REMARK   10  A    between atoms: C_13  and  N_15
REMARK   11  A    between atoms: C_13  and  C_16
REMARK   12  A    between atoms: C_16  and  C_17
REMARK   13  A    between atoms: C_23  and  O_24
REMARK                            x       y       z     vdW  Elec       q    Type
REMARK                         _______ _______ _______ _____ _____    ______ ____
ROOT
ATOM      1  C   UNK A   0      10.358  -0.247  23.210  0.00  0.00    +0.217 C 
ENDROOT
BRANCH   1   4
ATOM      2  N   LEU A   1       8.142  -1.303  23.268  0.00  0.00    -0.300 N 
ATOM      3  H   LEU A   1       7.867  -0.432  22.818  0.00  0.00    +0.150 HD
ATOM      4  C   UNK A   0       9.477  -1.460  23.542  0.00  0.00    +0.244 C 
ATOM      5  O   UNK A   0       9.909  -2.514  23.999  0.00  0.00    -0.273 OA
BRANCH   2   6
ATOM      6  CA  LEU A   1       7.126  -2.334  23.493  0.00  0.00    +0.182 C 
BRANCH   6   7
ATOM      7  C   LEU A   1       5.863  -1.777  24.178  0.00  0.00    +0.325 C 
ATOM      8  OXT LEU A   1       5.724  -0.592  24.455  0.00  0.00    -0.249 OA
BRANCH   7   9
ATOM      9  O   LEU A   1       4.917  -2.692  24.489  0.00  0.00    -0.479 OA
ATOM     10  H   LEU A   1       5.256  -3.424  25.062  0.00  0.00    +0.295 HD
ENDBRANCH   7   9
ENDBRANCH   6   7
BRANCH   6  11
ATOM     11  CB  LEU A   1       6.763  -3.149  22.238  0.00  0.00    +0.036 C 
BRANCH  11  13
ATOM     12  CD1 LEU A   1       7.552  -5.141  23.626  0.00  0.00    +0.007 C 
ATOM     13  CG  LEU A   1       7.325  -4.586  22.219  0.00  0.00    -0.015 C 
ATOM     14  CD2 LEU A   1       6.388  -5.524  21.450  0.00  0.00    +0.007 C 
ENDBRANCH  11  13
ENDBRANCH   6  11
ENDBRANCH   2   6
ENDBRANCH   1   4
BRANCH   1  15
ATOM     15  O   UNK A   0       9.899   0.298  21.949  0.00  0.00    -0.381 OA
ATOM     16  H   UNK A   0       8.941   0.115  21.909  0.00  0.00    +0.210 HD
ENDBRANCH   1  15
BRANCH   1  17
ATOM     17  C   UNK A   0      10.246   0.850  24.292  0.00  0.00    +0.093 C 
BRANCH  17  18
ATOM     18  N   UNK A   0       9.833   0.241  25.578  0.00  0.00    -0.324 NA
ATOM     19  H   UNK A   0       9.275   0.925  26.094  0.00  0.00    +0.119 HD
ATOM     20  H   UNK A   0       9.243  -0.571  25.412  0.00  0.00    +0.119 HD
ENDBRANCH  17  18
BRANCH  17  21
ATOM     21  C   UNK A   0       9.340   2.047  23.902  0.00  0.00    +0.056 C 
BRANCH  21  22
ATOM     22  C   UNK A   0      10.028   3.388  23.788  0.00  0.00    -0.046 A 
ATOM     23  C   UNK A   0       9.372   4.578  24.130  0.00  0.00    +0.004 A 
ATOM     24  C   UNK A   0      10.046   5.800  24.096  0.00  0.00    +0.000 A 
ATOM     25  C   UNK A   0      11.380   5.849  23.698  0.00  0.00    +0.000 A 
ATOM     26  C   UNK A   0      12.032   4.681  23.312  0.00  0.00    +0.000 A 
ATOM     27  C   UNK A   0      11.359   3.459  23.355  0.00  0.00    +0.004 A 
ENDBRANCH  21  22
ENDBRANCH  17  21
ENDBRANCH   1  17
TORSDOF 11
ENDMDL
MODEL 5
REMARK VINA RESULT:      -5.9      2.209      3.049
REMARK  Name = 
REMARK  13 active torsions:
REMARK  status: ('A' for Active; 'I' for Inactive)
REMARK    1  A    between atoms: CD1_1  and  CG_2
REMARK    2  A    between atoms: CG_2  and  CD2_3
REMARK    3  A    between atoms: CG_2  and  CB_4
REMARK    4  A    between atoms: CB_4  and  CA_5
REMARK    5  A    between atoms: CA_5  and  N_7
REMARK    6  A    between atoms: CA_5  and  C_23
REMARK    7  A    between atoms: C_8  and  C_10
REMARK    8  A    between atoms: C_10  and  O_12
REMARK    9  A    between atoms: C_10  and  C_13
REMARK   10  A    between atoms: C_13  and  N_15
REMARK   11  A    between atoms: C_13  and  C_16
REMARK   12  A    between atoms: C_16  and  C_17
REMARK   13  A    between atoms: C_23  and  O_24
REMARK                            x       y       z     vdW  Elec       q    Type
REMARK                         _______ _______ _______ _____ _____    ______ ____
ROOT
ATOM      1  C   UNK A   0       9.939  -2.120  23.293  0.00  0.00    +0.217 C 
ENDROOT
BRANCH   1   4
ATOM      2  N   LEU A   1       8.084  -3.702  23.580  0.00  0.00    -0.300 N 
ATOM      3  H   LEU A   1       8.736  -4.136  24.231  0.00  0.00    +0.150 HD
ATOM      4  C   UNK A   0       8.499  -2.546  22.970  0.00  0.00    +0.244 C 
ATOM      5  O   UNK A   0       7.745  -1.909  22.243  0.00  0.00    -0.273 OA
BRANCH   2   6
ATOM      6  CA  LEU A   1       6.748  -4.283  23.425  0.00  0.00    +0.182 C 
BRANCH   6   7
ATOM      7  C   LEU A   1       6.538  -4.913  22.035  0.00  0.00    +0.325 C 
ATOM      8  OXT LEU A   1       7.014  -5.995  21.715  0.00  0.00    -0.249 OA
BRANCH   7   9
ATOM      9  O   LEU A   1       5.811  -4.176  21.165  0.00  0.00    -0.479 OA
ATOM     10  H   LEU A   1       4.986  -4.632  20.861  0.00  0.00    +0.295 HD
ENDBRANCH   7   9
ENDBRANCH   6   7
BRANCH   6  11
ATOM     11  CB  LEU A   1       6.350  -5.263  24.545  0.00  0.00    +0.036 C 
BRANCH  11  13
ATOM     12  CD1 LEU A   1       5.023  -4.784  26.671  0.00  0.00    +0.007 C 
ATOM     13  CG  LEU A   1       6.373  -4.660  25.964  0.00  0.00    -0.015 C 
ATOM     14  CD2 LEU A   1       7.455  -5.330  26.819  0.00  0.00    +0.007 C 
ENDBRANCH  11  13
ENDBRANCH   6  11
ENDBRANCH   2   6
ENDBRANCH   1   4
BRANCH   1  15
ATOM     15  O   UNK A   0      10.564  -1.706  22.055  0.00  0.00    -0.381 OA
ATOM     16  H   UNK A   0       9.893  -1.184  21.576  0.00  0.00    +0.210 HD
ENDBRANCH   1  15
BRANCH   1  17
ATOM     17  C   UNK A   0       9.972  -0.935  24.284  0.00  0.00    +0.093 C 
BRANCH  17  18
ATOM     18  N   UNK A   0       8.606  -0.675  24.795  0.00  0.00    -0.324 NA
ATOM     19  H   UNK A   0       8.033  -0.330  24.021  0.00  0.00    +0.119 HD
ATOM     20  H   UNK A   0       8.182  -1.537  25.128  0.00  0.00    +0.119 HD
ENDBRANCH  17  18
BRANCH  17  21
ATOM     21  C   UNK A   0      10.636   0.350  23.726  0.00  0.00    +0.056 C 
BRANCH  21  22
ATOM     22  C   UNK A   0       9.693   1.452  23.302  0.00  0.00    -0.046 A 
ATOM     23  C   UNK A   0       8.986   1.387  22.094  0.00  0.00    +0.004 A 
ATOM     24  C   UNK A   0       8.060   2.374  21.755  0.00  0.00    +0.000 A 
ATOM     25  C   UNK A   0       7.845   3.451  22.611  0.00  0.00    +0.000 A 
ATOM     26  C   UNK A   0       8.572   3.554  23.793  0.00  0.00    +0.000 A 
ATOM     27  C   UNK A   0       9.493   2.562  24.135  0.00  0.00    +0.004 A 
ENDBRANCH  21  22
ENDBRANCH  17  21
ENDBRANCH   1  17
TORSDOF 11
ENDMDL
MODEL 6
REMARK VINA RESULT:      -5.9      1.971      2.681
REMARK  Name = 
REMARK  13 active torsions:
REMARK  status: ('A' for Active; 'I' for Inactive)
REMARK    1  A    between atoms: CD1_1  and  CG_2
REMARK    2  A    between atoms: CG_2  and  CD2_3
REMARK    3  A    between atoms: CG_2  and  CB_4
REMARK    4  A    between atoms: CB_4  and  CA_5
REMARK    5  A    between atoms: CA_5  and  N_7
REMARK    6  A    between atoms: CA_5  and  C_23
REMARK    7  A    between atoms: C_8  and  C_10
REMARK    8  A    between atoms: C_10  and  O_12
REMARK    9  A    between atoms: C_10  and  C_13
REMARK   10  A    between atoms: C_13  and  N_15
REMARK   11  A    between atoms: C_13  and  C_16
REMARK   12  A    between atoms: C_16  and  C_17
REMARK   13  A    between atoms: C_23  and  O_24
REMARK                            x       y       z     vdW  Elec       q    Type
REMARK                         _______ _______ _______ _____ _____    ______ ____
ROOT
ATOM      1  C   UNK A   0      10.105  -1.309  22.498  0.00  0.00    +0.217 C 
ENDROOT
BRANCH   1   4
ATOM      2  N   LEU A   1       9.472  -2.814  24.331  0.00  0.00    -0.300 N 
ATOM      3  H   LEU A   1      10.428  -2.628  24.630  0.00  0.00    +0.150 HD
ATOM      4  C   UNK A   0       9.041  -2.163  23.204  0.00  0.00    +0.244 C 
ATOM      5  O   UNK A   0       7.878  -2.257  22.825  0.00  0.00    -0.273 OA
BRANCH   2   6
ATOM      6  CA  LEU A   1       8.624  -3.669  25.166  0.00  0.00    +0.182 C 
BRANCH   6   7
ATOM      7  C   LEU A   1       9.324  -4.982  25.565  0.00  0.00    +0.325 C 
ATOM      8  OXT LEU A   1      10.441  -5.289  25.168  0.00  0.00    -0.249 OA
BRANCH   7   9
ATOM      9  O   LEU A   1       8.609  -5.803  26.367  0.00  0.00    -0.479 OA
ATOM     10  H   LEU A   1       9.148  -6.539  26.752  0.00  0.00    +0.295 HD
ENDBRANCH   7   9
ENDBRANCH   6   7
BRANCH   6  11
ATOM     11  CB  LEU A   1       8.029  -2.961  26.397  0.00  0.00    +0.036 C 
BRANCH  11  13
ATOM     12  CD1 LEU A   1       6.224  -1.244  25.841  0.00  0.00    +0.007 C 
ATOM     13  CG  LEU A   1       6.517  -2.672  26.304  0.00  0.00    -0.015 C 
ATOM     14  CD2 LEU A   1       5.834  -3.662  25.354  0.00  0.00    +0.007 C 
ENDBRANCH  11  13
ENDBRANCH   6  11
ENDBRANCH   2   6
ENDBRANCH   1   4
BRANCH   1  15
ATOM     15  O   UNK A   0       9.682  -1.126  21.125  0.00  0.00    -0.381 OA
ATOM     16  H   UNK A   0       8.716  -0.992  21.156  0.00  0.00    +0.210 HD
ENDBRANCH   1  15
BRANCH   1  17
ATOM     17  C   UNK A   0      10.250   0.079  23.160  0.00  0.00    +0.093 C 
BRANCH  17  18
ATOM     18  N   UNK A   0       9.299   0.195  24.290  0.00  0.00    -0.324 NA
ATOM     19  H   UNK A   0       9.649   0.908  24.933  0.00  0.00    +0.119 HD
ATOM     20  H   UNK A   0       8.390   0.504  23.956  0.00  0.00    +0.119 HD
ENDBRANCH  17  18
BRANCH  17  21
ATOM     21  C   UNK A   0      10.132   1.274  22.179  0.00  0.00    +0.056 C 
BRANCH  21  22
ATOM     22  C   UNK A   0       9.004   2.243  22.448  0.00  0.00    -0.046 A 
ATOM     23  C   UNK A   0       9.165   3.332  23.314  0.00  0.00    +0.004 A 
ATOM     24  C   UNK A   0       8.139   4.262  23.490  0.00  0.00    +0.000 A 
ATOM     25  C   UNK A   0       6.931   4.102  22.817  0.00  0.00    +0.000 A 
ATOM     26  C   UNK A   0       6.739   3.000  21.988  0.00  0.00    +0.000 A 
ATOM     27  C   UNK A   0       7.768   2.075  21.807  0.00  0.00    +0.004 A 
ENDBRANCH  21  22
ENDBRANCH  17  21
ENDBRANCH   1  17
TORSDOF 11
ENDMDL
MODEL 7
REMARK VINA RESULT:      -5.8      2.460      3.878
REMARK  Name = 
REMARK  13 active torsions:
REMARK  status: ('A' for Active; 'I' for Inactive)
REMARK    1  A    between atoms: CD1_1  and  CG_2
REMARK    2  A    between atoms: CG_2  and  CD2_3
REMARK    3  A    between atoms: CG_2  and  CB_4
REMARK    4  A    between atoms: CB_4  and  CA_5
REMARK    5  A    between atoms: CA_5  and  N_7
REMARK    6  A    between atoms: CA_5  and  C_23
REMARK    7  A    between atoms: C_8  and  C_10
REMARK    8  A    between atoms: C_10  and  O_12
REMARK    9  A    between atoms: C_10  and  C_13
REMARK   10  A    between atoms: C_13  and  N_15
REMARK   11  A    between atoms: C_13  and  C_16
REMARK   12  A    between atoms: C_16  and  C_17
REMARK   13  A    between atoms: C_23  and  O_24
REMARK                            x       y       z     vdW  Elec       q    Type
REMARK                         _______ _______ _______ _____ _____    ______ ____
ROOT
ATOM      1  C   UNK A   0       7.960  -3.545  26.349  0.00  0.00    +0.217 C 
ENDROOT
BRANCH   1   4
ATOM      2  N   LEU A   1       6.207  -4.861  25.244  0.00  0.00    -0.300 N 
ATOM      3  H   LEU A   1       5.619  -4.409  25.943  0.00  0.00    +0.150 HD
ATOM      4  C   UNK A   0       7.533  -4.511  25.234  0.00  0.00    +0.244 C 
ATOM      5  O   UNK A   0       8.292  -4.937  24.370  0.00  0.00    -0.273 OA
BRANCH   2   6
ATOM      6  CA  LEU A   1       5.581  -5.756  24.267  0.00  0.00    +0.182 C 
BRANCH   6   7
ATOM      7  C   LEU A   1       4.715  -6.842  24.934  0.00  0.00    +0.325 C 
ATOM      8  OXT LEU A   1       4.616  -6.963  26.149  0.00  0.00    -0.249 OA
BRANCH   7   9
ATOM      9  O   LEU A   1       4.084  -7.686  24.086  0.00  0.00    -0.479 OA
ATOM     10  H   LEU A   1       4.436  -8.610  24.123  0.00  0.00    +0.295 HD
ENDBRANCH   7   9
ENDBRANCH   6   7
BRANCH   6  11
ATOM     11  CB  LEU A   1       4.805  -5.033  23.152  0.00  0.00    +0.036 C 
BRANCH  11  13
ATOM     12  CD1 LEU A   1       6.326  -3.522  21.768  0.00  0.00    +0.007 C 
ATOM     13  CG  LEU A   1       5.585  -4.858  21.833  0.00  0.00    -0.015 C 
ATOM     14  CD2 LEU A   1       6.587  -6.002  21.642  0.00  0.00    +0.007 C 
ENDBRANCH  11  13
ENDBRANCH   6  11
ENDBRANCH   2   6
ENDBRANCH   1   4
BRANCH   1  15
ATOM     15  O   UNK A   0       9.059  -4.159  27.066  0.00  0.00    -0.381 OA
ATOM     16  H   UNK A   0       8.898  -3.978  28.011  0.00  0.00    +0.210 HD
ENDBRANCH   1  15
BRANCH   1  17
ATOM     17  C   UNK A   0       8.437  -2.192  25.777  0.00  0.00    +0.093 C 
BRANCH  17  18
ATOM     18  N   UNK A   0       8.786  -1.276  26.887  0.00  0.00    -0.324 NA
ATOM     19  H   UNK A   0       7.923  -0.998  27.359  0.00  0.00    +0.119 HD
ATOM     20  H   UNK A   0       9.368  -1.754  27.571  0.00  0.00    +0.119 HD
ENDBRANCH  17  18
BRANCH  17  21
ATOM     21  C   UNK A   0       7.453  -1.537  24.774  0.00  0.00    +0.056 C 
BRANCH  21  22
ATOM     22  C   UNK A   0       8.080  -0.849  23.583  0.00  0.00    -0.046 A 
ATOM     23  C   UNK A   0       7.592   0.374  23.103  0.00  0.00    +0.004 A 
ATOM     24  C   UNK A   0       8.231   1.035  22.054  0.00  0.00    +0.000 A 
ATOM     25  C   UNK A   0       9.356   0.472  21.457  0.00  0.00    +0.000 A 
ATOM     26  C   UNK A   0       9.827  -0.764  21.893  0.00  0.00    +0.000 A 
ATOM     27  C   UNK A   0       9.191  -1.421  22.948  0.00  0.00    +0.004 A 
ENDBRANCH  21  22
ENDBRANCH  17  21
ENDBRANCH   1  17
TORSDOF 11
ENDMDL
MODEL 8
REMARK VINA RESULT:      -5.8      2.233      3.082
REMARK  Name = 
REMARK  13 active torsions:
REMARK  status: ('A' for Active; 'I' for Inactive)
REMARK    1  A    between atoms: CD1_1  and  CG_2
REMARK    2  A    between atoms: CG_2  and  CD2_3
REMARK    3  A    between atoms: CG_2  and  CB_4
REMARK    4  A    between atoms: CB_4  and  CA_5
REMARK    5  A    between atoms: CA_5  and  N_7
REMARK    6  A    between atoms: CA_5  and  C_23
REMARK    7  A    between atoms: C_8  and  C_10
REMARK    8  A    between atoms: C_10  and  O_12
REMARK    9  A    between atoms: C_10  and  C_13
REMARK   10  A    between atoms: C_13  and  N_15
REMARK   11  A    between atoms: C_13  and  C_16
REMARK   12  A    between atoms: C_16  and  C_17
REMARK   13  A    between atoms: C_23  and  O_24
REMARK                            x       y       z     vdW  Elec       q    Type
REMARK                         _______ _______ _______ _____ _____    ______ ____
ROOT
ATOM      1  C   UNK A   0       9.820  -0.426  22.525  0.00  0.00    +0.217 C 
ENDROOT
BRANCH   1   4
ATOM      2  N   LEU A   1       9.114  -2.355  23.868  0.00  0.00    -0.300 N 
ATOM      3  H   LEU A   1      10.120  -2.487  23.957  0.00  0.00    +0.150 HD
ATOM      4  C   UNK A   0       8.696  -1.256  23.162  0.00  0.00    +0.244 C 
ATOM      5  O   UNK A   0       7.506  -0.971  23.083  0.00  0.00    -0.273 OA
BRANCH   2   6
ATOM      6  CA  LEU A   1       8.216  -3.278  24.568  0.00  0.00    +0.182 C 
BRANCH   6   7
ATOM      7  C   LEU A   1       8.414  -4.741  24.125  0.00  0.00    +0.325 C 
ATOM      8  OXT LEU A   1       9.359  -5.426  24.493  0.00  0.00    -0.249 OA
BRANCH   7   9
ATOM      9  O   LEU A   1       7.483  -5.221  23.269  0.00  0.00    -0.479 OA
ATOM     10  H   LEU A   1       7.782  -5.212  22.325  0.00  0.00    +0.295 HD
ENDBRANCH   7   9
ENDBRANCH   6   7
BRANCH   6  11
ATOM     11  CB  LEU A   1       8.249  -3.152  26.102  0.00  0.00    +0.036 C 
BRANCH  11  13
ATOM     12  CD1 LEU A   1       5.719  -2.927  25.853  0.00  0.00    +0.007 C 
ATOM     13  CG  LEU A   1       6.874  -3.286  26.788  0.00  0.00    -0.015 C 
ATOM     14  CD2 LEU A   1       6.671  -4.710  27.319  0.00  0.00    +0.007 C 
ENDBRANCH  11  13
ENDBRANCH   6  11
ENDBRANCH   2   6
ENDBRANCH   1   4
BRANCH   1  15
ATOM     15  O   UNK A   0       9.847  -0.733  21.110  0.00  0.00    -0.381 OA
ATOM     16  H   UNK A   0      10.669  -0.337  20.764  0.00  0.00    +0.210 HD
ENDBRANCH   1  15
BRANCH   1  17
ATOM     17  C   UNK A   0       9.573   1.090  22.697  0.00  0.00    +0.093 C 
BRANCH  17  18
ATOM     18  N   UNK A   0       9.588   1.751  21.371  0.00  0.00    -0.324 NA
ATOM     19  H   UNK A   0      10.359   2.423  21.356  0.00  0.00    +0.119 HD
ATOM     20  H   UNK A   0       9.763   1.069  20.637  0.00  0.00    +0.119 HD
ENDBRANCH  17  18
BRANCH  17  21
ATOM     21  C   UNK A   0      10.528   1.785  23.701  0.00  0.00    +0.056 C 
BRANCH  21  22
ATOM     22  C   UNK A   0      10.480   3.296  23.724  0.00  0.00    -0.046 A 
ATOM     23  C   UNK A   0       9.320   3.985  24.103  0.00  0.00    +0.004 A 
ATOM     24  C   UNK A   0       9.316   5.378  24.196  0.00  0.00    +0.000 A 
ATOM     25  C   UNK A   0      10.467   6.100  23.890  0.00  0.00    +0.000 A 
ATOM     26  C   UNK A   0      11.613   5.432  23.468  0.00  0.00    +0.000 A 
ATOM     27  C   UNK A   0      11.619   4.038  23.384  0.00  0.00    +0.004 A 
ENDBRANCH  21  22
ENDBRANCH  17  21
ENDBRANCH   1  17
TORSDOF 11
ENDMDL
MODEL 9
REMARK VINA RESULT:      -5.6      2.120      6.947
REMARK  Name = 
REMARK  13 active torsions:
REMARK  status: ('A' for Active; 'I' for Inactive)
REMARK    1  A    between atoms: CD1_1  and  CG_2
REMARK    2  A    between atoms: CG_2  and  CD2_3
REMARK    3  A    between atoms: CG_2  and  CB_4
REMARK    4  A    between atoms: CB_4  and  CA_5
REMARK    5  A    between atoms: CA_5  and  N_7
REMARK    6  A    between atoms: CA_5  and  C_23
REMARK    7  A    between atoms: C_8  and  C_10
REMARK    8  A    between atoms: C_10  and  O_12
REMARK    9  A    between atoms: C_10  and  C_13
REMARK   10  A    between atoms: C_13  and  N_15
REMARK   11  A    between atoms: C_13  and  C_16
REMARK   12  A    between atoms: C_16  and  C_17
REMARK   13  A    between atoms: C_23  and  O_24
REMARK                            x       y       z     vdW  Elec       q    Type
REMARK                         _______ _______ _______ _____ _____    ______ ____
ROOT
ATOM      1  C   UNK A   0       9.438  -1.517  24.315  0.00  0.00    +0.217 C 
ENDROOT
BRANCH   1   4
ATOM      2  N   LEU A   1       9.107   0.904  24.077  0.00  0.00    -0.300 N 
ATOM      3  H   LEU A   1       8.158   0.614  23.851  0.00  0.00    +0.150 HD
ATOM      4  C   UNK A   0       9.992  -0.087  24.415  0.00  0.00    +0.244 C 
ATOM      5  O   UNK A   0      11.129   0.180  24.789  0.00  0.00    -0.273 OA
BRANCH   2   6
ATOM      6  CA  LEU A   1       9.418   2.336  24.113  0.00  0.00    +0.182 C 
BRANCH   6   7
ATOM      7  C   LEU A   1      10.409   2.752  23.009  0.00  0.00    +0.325 C 
ATOM      8  OXT LEU A   1      11.318   3.551  23.196  0.00  0.00    -0.249 OA
BRANCH   7   9
ATOM      9  O   LEU A   1      10.195   2.197  21.795  0.00  0.00    -0.479 OA
ATOM     10  H   LEU A   1       9.938   1.242  21.843  0.00  0.00    +0.295 HD
ENDBRANCH   7   9
ENDBRANCH   6   7
BRANCH   6  11
ATOM     11  CB  LEU A   1       8.180   3.252  24.122  0.00  0.00    +0.036 C 
BRANCH  11  13
ATOM     12  CD1 LEU A   1       5.661   2.877  24.285  0.00  0.00    +0.007 C 
ATOM     13  CG  LEU A   1       6.927   2.645  23.459  0.00  0.00    -0.015 C 
ATOM     14  CD2 LEU A   1       6.725   3.222  22.053  0.00  0.00    +0.007 C 
ENDBRANCH  11  13
ENDBRANCH   6  11
ENDBRANCH   2   6
ENDBRANCH   1   4
BRANCH   1  15
ATOM     15  O   UNK A   0       8.202  -1.563  25.067  0.00  0.00    -0.381 OA
ATOM     16  H   UNK A   0       7.583  -2.098  24.534  0.00  0.00    +0.210 HD
ENDBRANCH   1  15
BRANCH   1  17
ATOM     17  C   UNK A   0       9.142  -1.909  22.851  0.00  0.00    +0.093 C 
BRANCH  17  18
ATOM     18  N   UNK A   0       9.990  -1.107  21.938  0.00  0.00    -0.324 NA
ATOM     19  H   UNK A   0      10.512  -1.749  21.337  0.00  0.00    +0.119 HD
ATOM     20  H   UNK A   0       9.412  -0.527  21.336  0.00  0.00    +0.119 HD
ENDBRANCH  17  18
BRANCH  17  21
ATOM     21  C   UNK A   0       7.644  -1.840  22.458  0.00  0.00    +0.056 C 
BRANCH  21  22
ATOM     22  C   UNK A   0       6.885  -3.147  22.508  0.00  0.00    -0.046 A 
ATOM     23  C   UNK A   0       7.529  -4.375  22.309  0.00  0.00    +0.004 A 
ATOM     24  C   UNK A   0       6.830  -5.576  22.437  0.00  0.00    +0.000 A 
ATOM     25  C   UNK A   0       5.473  -5.563  22.746  0.00  0.00    +0.000 A 
ATOM     26  C   UNK A   0       4.809  -4.350  22.903  0.00  0.00    +0.000 A 
ATOM     27  C   UNK A   0       5.510  -3.149  22.782  0.00  0.00    +0.004 A 
ENDBRANCH  21  22
ENDBRANCH  17  21
ENDBRANCH   1  17
TORSDOF 11
ENDMDL
