MODEL 1
REMARK VINA RESULT:      -5.7      0.000      0.000
REMARK  Name = 
REMARK  3 active torsions:
REMARK  status: ('A' for Active; 'I' for Inactive)
REMARK    1  A    between atoms: N_1  and  S_2
REMARK    2  A    between atoms: S_2  and  C_5
REMARK    3  A    between atoms: C_5  and  C_6
REMARK                            x       y       z     vdW  Elec       q    Type
REMARK                         _______ _______ _______ _____ _____    ______ ____
ROOT
ATOM      1  C   UNL     1       9.211  -2.344  24.063  0.00  0.00    +0.114 A 
ATOM      2  C   UNL     1       8.737  -1.171  23.416  0.00  0.00    +0.046 A 
ATOM      3  C   UNL     1       9.690  -0.924  22.443  0.00  0.00    +0.168 A 
ATOM      4  C   UNL     1       9.644   0.142  21.549  0.00  0.00    +0.049 A 
ATOM      5  C   UNL     1       8.554   1.009  21.674  0.00  0.00    +0.004 A 
ATOM      6  C   UNL     1       7.570   0.796  22.647  0.00  0.00    +0.001 A 
ATOM      7  O   UNL     1      10.660  -1.873  22.512  0.00  0.00    -0.354 OA
ATOM      8  C   UNL     1       7.643  -0.296  23.526  0.00  0.00    +0.013 A 
ATOM      9  N   UNL     1      10.375  -2.755  23.540  0.00  0.00    -0.080 NA
ENDROOT
BRANCH   1  10
ATOM     10  C   UNL     1       8.622  -3.067  25.212  0.00  0.00    +0.244 C 
BRANCH  10  11
ATOM     11  S   UNL     1       8.607  -4.838  24.929  0.00  0.00    +0.033 S 
ATOM     12  O   UNL     1       7.978  -5.514  26.041  0.00  0.00    -0.158 OA
ATOM     13  O   UNL     1       8.291  -5.154  23.557  0.00  0.00    -0.158 OA
BRANCH  11  14
ATOM     14  N   UNL     1      10.242  -5.225  25.089  0.00  0.00    -0.208 NA
ATOM     15  H   UNL     1      10.643  -5.431  24.172  0.00  0.00    +0.144 HD
ATOM     16  H   UNL     1      10.719  -4.457  25.565  0.00  0.00    +0.144 HD
ENDBRANCH  11  14
ENDBRANCH  10  11
ENDBRANCH   1  10
TORSDOF 3
ENDMDL
MODEL 2
REMARK VINA RESULT:      -5.5      1.940      2.413
REMARK  Name = 
REMARK  3 active torsions:
REMARK  status: ('A' for Active; 'I' for Inactive)
REMARK    1  A    between atoms: N_1  and  S_2
REMARK    2  A    between atoms: S_2  and  C_5
REMARK    3  A    between atoms: C_5  and  C_6
REMARK                            x       y       z     vdW  Elec       q    Type
REMARK                         _______ _______ _______ _____ _____    ______ ____
ROOT
ATOM      1  C   UNL     1       9.788  -1.736  23.120  0.00  0.00    +0.114 A 
ATOM      2  C   UNL     1      10.044  -0.357  23.341  0.00  0.00    +0.046 A 
ATOM      3  C   UNL     1       9.779   0.228  22.114  0.00  0.00    +0.168 A 
ATOM      4  C   UNL     1       9.895   1.589  21.849  0.00  0.00    +0.049 A 
ATOM      5  C   UNL     1      10.320   2.393  22.911  0.00  0.00    +0.004 A 
ATOM      6  C   UNL     1      10.602   1.841  24.167  0.00  0.00    +0.001 A 
ATOM      7  O   UNL     1       9.401  -0.733  21.230  0.00  0.00    -0.354 OA
ATOM      8  C   UNL     1      10.463   0.464  24.402  0.00  0.00    +0.013 A 
ATOM      9  N   UNL     1       9.424  -1.970  21.850  0.00  0.00    -0.080 NA
ENDROOT
BRANCH   1  10
ATOM     10  C   UNL     1       9.931  -2.865  24.066  0.00  0.00    +0.244 C 
BRANCH  10  11
ATOM     11  S   UNL     1       8.367  -3.709  24.315  0.00  0.00    +0.033 S 
ATOM     12  O   UNL     1       8.261  -4.835  23.414  0.00  0.00    -0.158 OA
ATOM     13  O   UNL     1       8.035  -3.808  25.716  0.00  0.00    -0.158 OA
BRANCH  11  14
ATOM     14  N   UNL     1       7.269  -2.587  23.696  0.00  0.00    -0.208 NA
ATOM     15  H   UNL     1       6.737  -2.162  24.458  0.00  0.00    +0.144 HD
ATOM     16  H   UNL     1       7.779  -1.898  23.140  0.00  0.00    +0.144 HD
ENDBRANCH  11  14
ENDBRANCH  10  11
ENDBRANCH   1  10
TORSDOF 3
ENDMDL
MODEL 3
REMARK VINA RESULT:      -5.5      2.696      3.088
REMARK  Name = 
REMARK  3 active torsions:
REMARK  status: ('A' for Active; 'I' for Inactive)
REMARK    1  A    between atoms: N_1  and  S_2
REMARK    2  A    between atoms: S_2  and  C_5
REMARK    3  A    between atoms: C_5  and  C_6
REMARK                            x       y       z     vdW  Elec       q    Type
REMARK                         _______ _______ _______ _____ _____    ______ ____
ROOT
ATOM      1  C   UNL     1       7.895  -3.825  23.688  0.00  0.00    +0.114 A 
ATOM      2  C   UNL     1       8.208  -2.487  23.329  0.00  0.00    +0.046 A 
ATOM      3  C   UNL     1       9.549  -2.365  23.649  0.00  0.00    +0.168 A 
ATOM      4  C   UNL     1      10.300  -1.208  23.467  0.00  0.00    +0.049 A 
ATOM      5  C   UNL     1       9.623  -0.108  22.932  0.00  0.00    +0.004 A 
ATOM      6  C   UNL     1       8.266  -0.187  22.599  0.00  0.00    +0.001 A 
ATOM      7  O   UNL     1       9.997  -3.540  24.165  0.00  0.00    -0.354 OA
ATOM      8  C   UNL     1       7.541  -1.375  22.786  0.00  0.00    +0.013 A 
ATOM      9  N   UNL     1       8.958  -4.454  24.211  0.00  0.00    -0.080 NA
ENDROOT
BRANCH   1  10
ATOM     10  C   UNL     1       6.592  -4.523  23.605  0.00  0.00    +0.244 C 
BRANCH  10  11
ATOM     11  S   UNL     1       6.207  -4.983  21.914  0.00  0.00    +0.033 S 
ATOM     12  O   UNL     1       5.626  -3.860  21.214  0.00  0.00    -0.158 OA
ATOM     13  O   UNL     1       7.248  -5.798  21.336  0.00  0.00    -0.158 OA
BRANCH  11  14
ATOM     14  N   UNL     1       4.911  -6.042  22.134  0.00  0.00    -0.208 NA
ATOM     15  H   UNL     1       4.605  -6.021  23.108  0.00  0.00    +0.144 HD
ATOM     16  H   UNL     1       4.166  -5.791  21.481  0.00  0.00    +0.144 HD
ENDBRANCH  11  14
ENDBRANCH  10  11
ENDBRANCH   1  10
TORSDOF 3
ENDMDL
MODEL 4
REMARK VINA RESULT:      -5.4      3.143      5.012
REMARK  Name = 
REMARK  3 active torsions:
REMARK  status: ('A' for Active; 'I' for Inactive)
REMARK    1  A    between atoms: N_1  and  S_2
REMARK    2  A    between atoms: S_2  and  C_5
REMARK    3  A    between atoms: C_5  and  C_6
REMARK                            x       y       z     vdW  Elec       q    Type
REMARK                         _______ _______ _______ _____ _____    ______ ____
ROOT
ATOM      1  C   UNL     1       9.351  -1.432  22.330  0.00  0.00    +0.114 A 
ATOM      2  C   UNL     1       8.228  -2.136  22.840  0.00  0.00    +0.046 A 
ATOM      3  C   UNL     1       8.788  -3.088  23.675  0.00  0.00    +0.168 A 
ATOM      4  C   UNL     1       8.058  -4.021  24.405  0.00  0.00    +0.049 A 
ATOM      5  C   UNL     1       6.669  -3.975  24.256  0.00  0.00    +0.004 A 
ATOM      6  C   UNL     1       6.063  -3.030  23.420  0.00  0.00    +0.001 A 
ATOM      7  O   UNL     1      10.141  -2.964  23.656  0.00  0.00    -0.354 OA
ATOM      8  C   UNL     1       6.830  -2.096  22.705  0.00  0.00    +0.013 A 
ATOM      9  N   UNL     1      10.501  -1.939  22.797  0.00  0.00    -0.080 NA
ENDROOT
BRANCH   1  10
ATOM     10  C   UNL     1       9.378  -0.317  21.357  0.00  0.00    +0.244 C 
BRANCH  10  11
ATOM     11  S   UNL     1       8.911   1.233  22.130  0.00  0.00    +0.033 S 
ATOM     12  O   UNL     1       7.751   1.788  21.469  0.00  0.00    -0.158 OA
ATOM     13  O   UNL     1       9.020   1.163  23.567  0.00  0.00    -0.158 OA
BRANCH  11  14
ATOM     14  N   UNL     1      10.174   2.247  21.657  0.00  0.00    -0.208 NA
ATOM     15  H   UNL     1       9.855   2.883  20.923  0.00  0.00    +0.144 HD
ATOM     16  H   UNL     1      10.529   2.740  22.479  0.00  0.00    +0.144 HD
ENDBRANCH  11  14
ENDBRANCH  10  11
ENDBRANCH   1  10
TORSDOF 3
ENDMDL
MODEL 5
REMARK VINA RESULT:      -5.4      1.868      2.434
REMARK  Name = 
REMARK  3 active torsions:
REMARK  status: ('A' for Active; 'I' for Inactive)
REMARK    1  A    between atoms: N_1  and  S_2
REMARK    2  A    between atoms: S_2  and  C_5
REMARK    3  A    between atoms: C_5  and  C_6
REMARK                            x       y       z     vdW  Elec       q    Type
REMARK                         _______ _______ _______ _____ _____    ______ ____
ROOT
ATOM      1  C   UNL     1       8.168  -4.265  24.371  0.00  0.00    +0.114 A 
ATOM      2  C   UNL     1       8.030  -2.942  23.873  0.00  0.00    +0.046 A 
ATOM      3  C   UNL     1       9.335  -2.494  23.761  0.00  0.00    +0.168 A 
ATOM      4  C   UNL     1       9.698  -1.230  23.306  0.00  0.00    +0.049 A 
ATOM      5  C   UNL     1       8.650  -0.375  22.954  0.00  0.00    +0.004 A 
ATOM      6  C   UNL     1       7.316  -0.787  23.056  0.00  0.00    +0.001 A 
ATOM      7  O   UNL     1      10.184  -3.475  24.169  0.00  0.00    -0.354 OA
ATOM      8  C   UNL     1       6.987  -2.074  23.509  0.00  0.00    +0.013 A 
ATOM      9  N   UNL     1       9.456  -4.581  24.572  0.00  0.00    -0.080 NA
ENDROOT
BRANCH   1  10
ATOM     10  C   UNL     1       7.107  -5.235  24.722  0.00  0.00    +0.244 C 
BRANCH  10  11
ATOM     11  S   UNL     1       6.802  -5.257  26.490  0.00  0.00    +0.033 S 
ATOM     12  O   UNL     1       6.582  -3.912  26.972  0.00  0.00    -0.158 OA
ATOM     13  O   UNL     1       5.953  -6.360  26.868  0.00  0.00    -0.158 OA
BRANCH  11  14
ATOM     14  N   UNL     1       8.323  -5.664  27.095  0.00  0.00    -0.208 NA
ATOM     15  H   UNL     1       8.227  -6.115  28.007  0.00  0.00    +0.144 HD
ATOM     16  H   UNL     1       8.804  -6.253  26.413  0.00  0.00    +0.144 HD
ENDBRANCH  11  14
ENDBRANCH  10  11
ENDBRANCH   1  10
TORSDOF 3
ENDMDL
MODEL 6
REMARK VINA RESULT:      -5.3      2.890      4.495
REMARK  Name = 
REMARK  3 active torsions:
REMARK  status: ('A' for Active; 'I' for Inactive)
REMARK    1  A    between atoms: N_1  and  S_2
REMARK    2  A    between atoms: S_2  and  C_5
REMARK    3  A    between atoms: C_5  and  C_6
REMARK                            x       y       z     vdW  Elec       q    Type
REMARK                         _______ _______ _______ _____ _____    ______ ____
ROOT
ATOM      1  C   UNL     1       8.682  -2.962  24.190  0.00  0.00    +0.114 A 
ATOM      2  C   UNL     1       7.654  -3.421  23.324  0.00  0.00    +0.046 A 
ATOM      3  C   UNL     1       7.872  -4.786  23.250  0.00  0.00    +0.168 A 
ATOM      4  C   UNL     1       7.096  -5.668  22.502  0.00  0.00    +0.049 A 
ATOM      5  C   UNL     1       6.040  -5.104  21.781  0.00  0.00    +0.004 A 
ATOM      6  C   UNL     1       5.788  -3.728  21.825  0.00  0.00    +0.001 A 
ATOM      7  O   UNL     1       8.951  -5.112  24.009  0.00  0.00    -0.354 OA
ATOM      8  C   UNL     1       6.584  -2.869  22.599  0.00  0.00    +0.013 A 
ATOM      9  N   UNL     1       9.476  -3.968  24.586  0.00  0.00    -0.080 NA
ENDROOT
BRANCH   1  10
ATOM     10  C   UNL     1       8.977  -1.577  24.619  0.00  0.00    +0.244 C 
BRANCH  10  11
ATOM     11  S   UNL     1       9.802  -0.654  23.320  0.00  0.00    +0.033 S 
ATOM     12  O   UNL     1       8.832  -0.168  22.364  0.00  0.00    -0.158 OA
ATOM     13  O   UNL     1      10.851   0.184  23.848  0.00  0.00    -0.158 OA
BRANCH  11  14
ATOM     14  N   UNL     1      10.613  -1.879  22.491  0.00  0.00    -0.208 NA
ATOM     15  H   UNL     1      10.260  -2.792  22.784  0.00  0.00    +0.144 HD
ATOM     16  H   UNL     1      10.513  -1.722  21.487  0.00  0.00    +0.144 HD
ENDBRANCH  11  14
ENDBRANCH  10  11
ENDBRANCH   1  10
TORSDOF 3
ENDMDL
MODEL 7
REMARK VINA RESULT:      -5.3      3.994      6.095
REMARK  Name = 
REMARK  3 active torsions:
REMARK  status: ('A' for Active; 'I' for Inactive)
REMARK    1  A    between atoms: N_1  and  S_2
REMARK    2  A    between atoms: S_2  and  C_5
REMARK    3  A    between atoms: C_5  and  C_6
REMARK                            x       y       z     vdW  Elec       q    Type
REMARK                         _______ _______ _______ _____ _____    ______ ____
ROOT
ATOM      1  C   UNL     1       6.601  -5.120  25.824  0.00  0.00    +0.114 A 
ATOM      2  C   UNL     1       5.496  -5.502  25.018  0.00  0.00    +0.046 A 
ATOM      3  C   UNL     1       4.938  -6.565  25.707  0.00  0.00    +0.168 A 
ATOM      4  C   UNL     1       3.814  -7.272  25.288  0.00  0.00    +0.049 A 
ATOM      5  C   UNL     1       3.240  -6.863  24.081  0.00  0.00    +0.004 A 
ATOM      6  C   UNL     1       3.775  -5.795  23.351  0.00  0.00    +0.001 A 
ATOM      7  O   UNL     1       5.660  -6.800  26.833  0.00  0.00    -0.354 OA
ATOM      8  C   UNL     1       4.904  -5.097  23.809  0.00  0.00    +0.013 A 
ATOM      9  N   UNL     1       6.717  -5.909  26.902  0.00  0.00    -0.080 NA
ENDROOT
BRANCH   1  10
ATOM     10  C   UNL     1       7.598  -4.053  25.579  0.00  0.00    +0.244 C 
BRANCH  10  11
ATOM     11  S   UNL     1       8.994  -4.671  24.636  0.00  0.00    +0.033 S 
ATOM     12  O   UNL     1       8.539  -5.602  23.628  0.00  0.00    -0.158 OA
ATOM     13  O   UNL     1       9.943  -3.624  24.346  0.00  0.00    -0.158 OA
BRANCH  11  14
ATOM     14  N   UNL     1       9.770  -5.647  25.772  0.00  0.00    -0.208 NA
ATOM     15  H   UNL     1       9.551  -6.629  25.596  0.00  0.00    +0.144 HD
ATOM     16  H   UNL     1      10.774  -5.456  25.742  0.00  0.00    +0.144 HD
ENDBRANCH  11  14
ENDBRANCH  10  11
ENDBRANCH   1  10
TORSDOF 3
ENDMDL
MODEL 8
REMARK VINA RESULT:      -5.3      1.812      2.104
REMARK  Name = 
REMARK  3 active torsions:
REMARK  status: ('A' for Active; 'I' for Inactive)
REMARK    1  A    between atoms: N_1  and  S_2
REMARK    2  A    between atoms: S_2  and  C_5
REMARK    3  A    between atoms: C_5  and  C_6
REMARK                            x       y       z     vdW  Elec       q    Type
REMARK                         _______ _______ _______ _____ _____    ______ ____
ROOT
ATOM      1  C   UNL     1       7.927  -2.796  24.078  0.00  0.00    +0.114 A 
ATOM      2  C   UNL     1       8.787  -1.683  24.276  0.00  0.00    +0.046 A 
ATOM      3  C   UNL     1       9.289  -1.426  23.012  0.00  0.00    +0.168 A 
ATOM      4  C   UNL     1      10.188  -0.406  22.714  0.00  0.00    +0.049 A 
ATOM      5  C   UNL     1      10.601   0.388  23.788  0.00  0.00    +0.004 A 
ATOM      6  C   UNL     1      10.121   0.159  25.083  0.00  0.00    +0.001 A 
ATOM      7  O   UNL     1       8.771  -2.321  22.131  0.00  0.00    -0.354 OA
ATOM      8  C   UNL     1       9.206  -0.873  25.346  0.00  0.00    +0.013 A 
ATOM      9  N   UNL     1       7.930  -3.197  22.798  0.00  0.00    -0.080 NA
ENDROOT
BRANCH   1  10
ATOM     10  C   UNL     1       7.132  -3.539  25.082  0.00  0.00    +0.244 C 
BRANCH  10  11
ATOM     11  S   UNL     1       8.136  -4.755  25.937  0.00  0.00    +0.033 S 
ATOM     12  O   UNL     1       9.031  -4.098  26.863  0.00  0.00    -0.158 OA
ATOM     13  O   UNL     1       7.363  -5.917  26.305  0.00  0.00    -0.158 OA
BRANCH  11  14
ATOM     14  N   UNL     1       9.151  -5.293  24.701  0.00  0.00    -0.208 NA
ATOM     15  H   UNL     1      10.033  -5.627  25.094  0.00  0.00    +0.144 HD
ATOM     16  H   UNL     1       8.663  -6.011  24.161  0.00  0.00    +0.144 HD
ENDBRANCH  11  14
ENDBRANCH  10  11
ENDBRANCH   1  10
TORSDOF 3
ENDMDL
MODEL 9
REMARK VINA RESULT:      -5.3      2.555      3.151
REMARK  Name = 
REMARK  3 active torsions:
REMARK  status: ('A' for Active; 'I' for Inactive)
REMARK    1  A    between atoms: N_1  and  S_2
REMARK    2  A    between atoms: S_2  and  C_5
REMARK    3  A    between atoms: C_5  and  C_6
REMARK                            x       y       z     vdW  Elec       q    Type
REMARK                         _______ _______ _______ _____ _____    ______ ____
ROOT
ATOM      1  C   UNL     1       8.808  -1.717  23.163  0.00  0.00    +0.114 A 
ATOM      2  C   UNL     1       9.280  -0.412  22.861  0.00  0.00    +0.046 A 
ATOM      3  C   UNL     1       9.824   0.026  24.056  0.00  0.00    +0.168 A 
ATOM      4  C   UNL     1      10.416   1.272  24.242  0.00  0.00    +0.049 A 
ATOM      5  C   UNL     1      10.436   2.120  23.130  0.00  0.00    +0.004 A 
ATOM      6  C   UNL     1       9.893   1.718  21.904  0.00  0.00    +0.001 A 
ATOM      7  O   UNL     1       9.681  -0.943  24.997  0.00  0.00    -0.354 OA
ATOM      8  C   UNL     1       9.313   0.449  21.750  0.00  0.00    +0.013 A 
ATOM      9  N   UNL     1       9.026  -2.032  24.448  0.00  0.00    -0.080 NA
ENDROOT
BRANCH   1  10
ATOM     10  C   UNL     1       8.099  -2.670  22.280  0.00  0.00    +0.244 C 
BRANCH  10  11
ATOM     11  S   UNL     1       6.417  -2.948  22.839  0.00  0.00    +0.033 S 
ATOM     12  O   UNL     1       5.527  -3.052  21.705  0.00  0.00    -0.158 OA
ATOM     13  O   UNL     1       6.372  -3.878  23.942  0.00  0.00    -0.158 OA
BRANCH  11  14
ATOM     14  N   UNL     1       6.032  -1.456  23.525  0.00  0.00    -0.208 NA
ATOM     15  H   UNL     1       5.022  -1.304  23.487  0.00  0.00    +0.144 HD
ATOM     16  H   UNL     1       6.399  -1.425  24.478  0.00  0.00    +0.144 HD
ENDBRANCH  11  14
ENDBRANCH  10  11
ENDBRANCH   1  10
TORSDOF 3
ENDMDL
