MODEL 1
REMARK VINA RESULT:      -5.6      0.000      0.000
REMARK  Name = 
REMARK  11 active torsions:
REMARK  status: ('A' for Active; 'I' for Inactive)
REMARK    1  A    between atoms: O_1  and  C_2
REMARK    2  A    between atoms: C_2  and  C_3
REMARK    3  A    between atoms: C_3  and  O_5
REMARK    4  A    between atoms: C_3  and  C_6
REMARK    5  A    between atoms: C_6  and  O_8
REMARK    6  A    between atoms: C_6  and  C_9
REMARK    7  A    between atoms: C_9  and  O_11
REMARK    8  A    between atoms: C_9  and  C_12
REMARK    9  A    between atoms: C_12  and  N_13
REMARK   10  A    between atoms: N_13  and  C_14
REMARK   11  A    between atoms: C_15  and  N_22
REMARK                            x       y       z     vdW  Elec       q    Type
REMARK                         _______ _______ _______ _____ _____    ______ ____
ROOT
ATOM      1  N   UNL     1       6.227  -2.532  25.197  0.00  0.00    -0.322 N 
ATOM      2  H   UNL     1       5.879  -2.654  24.243  0.00  0.00    +0.148 HD
ENDROOT
BRANCH   1   3
ATOM      3  C   UNL     1       7.150  -3.521  25.546  0.00  0.00    +0.185 A 
ATOM      4  N   UNL     1       6.785  -4.296  26.627  0.00  0.00    -0.291 N 
ATOM      5  H   UNL     1       5.913  -4.096  27.102  0.00  0.00    +0.172 HD
ATOM      6  C   UNL     1       7.504  -5.333  27.154  0.00  0.00    +0.328 A 
ATOM      7  O   UNL     1       7.103  -5.978  28.116  0.00  0.00    -0.247 OA
ATOM      8  N   UNL     1       8.687  -5.613  26.540  0.00  0.00    -0.269 N 
ATOM      9  H   UNL     1       9.227  -6.388  26.900  0.00  0.00    +0.174 HD
ATOM     10  C   UNL     1       9.173  -4.951  25.444  0.00  0.00    +0.333 A 
ATOM     11  O   UNL     1      10.227  -5.288  24.916  0.00  0.00    -0.260 OA
ATOM     12  C   UNL     1       8.337  -3.839  24.975  0.00  0.00    +0.374 A 
BRANCH  12  13
ATOM     13  N   UNL     1       8.849  -3.108  23.864  0.00  0.00    +0.089 N 
ATOM     14  O   UNL     1       9.871  -2.434  24.050  0.00  0.00    +0.042 OA
ATOM     15  O   UNL     1       8.214  -3.168  22.800  0.00  0.00    -0.576 OA
ENDBRANCH  12  13
ENDBRANCH   1   3
BRANCH   1  16
ATOM     16  C   UNL     1       6.404  -1.102  25.475  0.00  0.00    +0.137 C 
BRANCH  16  17
ATOM     17  C   UNL     1       6.368  -0.208  24.221  0.00  0.00    +0.162 C 
BRANCH  17  18
ATOM     18  O   UNL     1       6.232  -1.055  23.070  0.00  0.00    -0.388 OA
ATOM     19  H   UNL     1       5.579  -0.615  22.478  0.00  0.00    +0.210 HD
ENDBRANCH  17  18
BRANCH  17  20
ATOM     20  C   UNL     1       7.664   0.653  24.179  0.00  0.00    +0.175 C 
BRANCH  20  21
ATOM     21  O   UNL     1       8.729   0.054  24.934  0.00  0.00    -0.387 OA
ATOM     22  H   UNL     1       8.487  -0.005  25.874  0.00  0.00    +0.210 HD
ENDBRANCH  20  21
BRANCH  20  23
ATOM     23  C   UNL     1       8.186   0.892  22.749  0.00  0.00    +0.171 C 
BRANCH  23  24
ATOM     24  O   UNL     1       8.822  -0.294  22.242  0.00  0.00    -0.387 OA
ATOM     25  H   UNL     1       8.859  -0.903  23.008  0.00  0.00    +0.210 HD
ENDBRANCH  23  24
BRANCH  23  26
ATOM     26  C   UNL     1       9.188   2.058  22.726  0.00  0.00    +0.189 C 
BRANCH  26  27
ATOM     27  O   UNL     1       9.801   2.110  21.437  0.00  0.00    -0.392 OA
ATOM     28  H   UNL     1       9.673   1.231  21.035  0.00  0.00    +0.210 HD
ENDBRANCH  26  27
ENDBRANCH  23  26
ENDBRANCH  20  23
ENDBRANCH  17  20
ENDBRANCH  16  17
ENDBRANCH   1  16
TORSDOF 11
ENDMDL
MODEL 2
REMARK VINA RESULT:      -5.6      2.206      3.010
REMARK  Name = 
REMARK  11 active torsions:
REMARK  status: ('A' for Active; 'I' for Inactive)
REMARK    1  A    between atoms: O_1  and  C_2
REMARK    2  A    between atoms: C_2  and  C_3
REMARK    3  A    between atoms: C_3  and  O_5
REMARK    4  A    between atoms: C_3  and  C_6
REMARK    5  A    between atoms: C_6  and  O_8
REMARK    6  A    between atoms: C_6  and  C_9
REMARK    7  A    between atoms: C_9  and  O_11
REMARK    8  A    between atoms: C_9  and  C_12
REMARK    9  A    between atoms: C_12  and  N_13
REMARK   10  A    between atoms: N_13  and  C_14
REMARK   11  A    between atoms: C_15  and  N_22
REMARK                            x       y       z     vdW  Elec       q    Type
REMARK                         _______ _______ _______ _____ _____    ______ ____
ROOT
ATOM      1  N   UNL     1       8.524  -2.913  23.060  0.00  0.00    -0.322 N 
ATOM      2  H   UNL     1       8.492  -3.077  22.052  0.00  0.00    +0.148 HD
ENDROOT
BRANCH   1   3
ATOM      3  C   UNL     1       7.750  -3.838  23.765  0.00  0.00    +0.185 A 
ATOM      4  N   UNL     1       8.028  -3.917  25.114  0.00  0.00    -0.291 N 
ATOM      5  H   UNL     1       8.766  -3.339  25.496  0.00  0.00    +0.172 HD
ATOM      6  C   UNL     1       7.404  -4.729  26.019  0.00  0.00    +0.328 A 
ATOM      7  O   UNL     1       7.708  -4.732  27.206  0.00  0.00    -0.247 OA
ATOM      8  N   UNL     1       6.415  -5.525  25.526  0.00  0.00    -0.269 N 
ATOM      9  H   UNL     1       5.926  -6.120  26.180  0.00  0.00    +0.174 HD
ATOM     10  C   UNL     1       6.007  -5.543  24.219  0.00  0.00    +0.333 A 
ATOM     11  O   UNL     1       5.079  -6.255  23.853  0.00  0.00    -0.260 OA
ATOM     12  C   UNL     1       6.762  -4.654  23.326  0.00  0.00    +0.374 A 
BRANCH  12  13
ATOM     13  N   UNL     1       6.382  -4.693  21.952  0.00  0.00    +0.089 N 
ATOM     14  O   UNL     1       6.824  -5.626  21.268  0.00  0.00    +0.042 OA
ATOM     15  O   UNL     1       5.670  -3.770  21.531  0.00  0.00    -0.576 OA
ENDBRANCH  12  13
ENDBRANCH   1   3
BRANCH   1  16
ATOM     16  C   UNL     1       9.880  -2.507  23.448  0.00  0.00    +0.137 C 
BRANCH  16  17
ATOM     17  C   UNL     1       9.980  -1.060  23.966  0.00  0.00    +0.162 C 
BRANCH  17  18
ATOM     18  O   UNL     1       8.975  -0.874  24.974  0.00  0.00    -0.388 OA
ATOM     19  H   UNL     1       8.236  -0.389  24.542  0.00  0.00    +0.210 HD
ENDBRANCH  17  18
BRANCH  17  20
ATOM     20  C   UNL     1       9.812  -0.082  22.767  0.00  0.00    +0.175 C 
BRANCH  20  21
ATOM     21  O   UNL     1       9.829  -0.773  21.507  0.00  0.00    -0.387 OA
ATOM     22  H   UNL     1       9.032  -0.561  20.993  0.00  0.00    +0.210 HD
ENDBRANCH  20  21
BRANCH  20  23
ATOM     23  C   UNL     1       8.507   0.735  22.831  0.00  0.00    +0.171 C 
BRANCH  23  24
ATOM     24  O   UNL     1       7.369  -0.117  22.606  0.00  0.00    -0.387 OA
ATOM     25  H   UNL     1       7.573  -0.938  23.101  0.00  0.00    +0.210 HD
ENDBRANCH  23  24
BRANCH  23  26
ATOM     26  C   UNL     1       8.518   1.857  21.780  0.00  0.00    +0.189 C 
BRANCH  26  27
ATOM     27  O   UNL     1       9.873   2.141  21.427  0.00  0.00    -0.392 OA
ATOM     28  H   UNL     1      10.427   1.521  21.937  0.00  0.00    +0.210 HD
ENDBRANCH  26  27
ENDBRANCH  23  26
ENDBRANCH  20  23
ENDBRANCH  17  20
ENDBRANCH  16  17
ENDBRANCH   1  16
TORSDOF 11
ENDMDL
MODEL 3
REMARK VINA RESULT:      -5.4      2.167      3.552
REMARK  Name = 
REMARK  11 active torsions:
REMARK  status: ('A' for Active; 'I' for Inactive)
REMARK    1  A    between atoms: O_1  and  C_2
REMARK    2  A    between atoms: C_2  and  C_3
REMARK    3  A    between atoms: C_3  and  O_5
REMARK    4  A    between atoms: C_3  and  C_6
REMARK    5  A    between atoms: C_6  and  O_8
REMARK    6  A    between atoms: C_6  and  C_9
REMARK    7  A    between atoms: C_9  and  O_11
REMARK    8  A    between atoms: C_9  and  C_12
REMARK    9  A    between atoms: C_12  and  N_13
REMARK   10  A    between atoms: N_13  and  C_14
REMARK   11  A    between atoms: C_15  and  N_22
REMARK                            x       y       z     vdW  Elec       q    Type
REMARK                         _______ _______ _______ _____ _____    ______ ____
ROOT
ATOM      1  N   UNL     1       9.603  -2.331  23.277  0.00  0.00    -0.322 N 
ATOM      2  H   UNL     1      10.431  -2.912  23.135  0.00  0.00    +0.148 HD
ENDROOT
BRANCH   1   3
ATOM      3  C   UNL     1       8.454  -3.100  23.477  0.00  0.00    +0.185 A 
ATOM      4  N   UNL     1       7.444  -2.880  22.564  0.00  0.00    -0.291 N 
ATOM      5  H   UNL     1       7.579  -2.182  21.843  0.00  0.00    +0.172 HD
ATOM      6  C   UNL     1       6.232  -3.513  22.534  0.00  0.00    +0.328 A 
ATOM      7  O   UNL     1       5.390  -3.262  21.680  0.00  0.00    -0.247 OA
ATOM      8  N   UNL     1       6.022  -4.448  23.502  0.00  0.00    -0.269 N 
ATOM      9  H   UNL     1       5.141  -4.942  23.489  0.00  0.00    +0.174 HD
ATOM     10  C   UNL     1       6.935  -4.795  24.462  0.00  0.00    +0.333 A 
ATOM     11  O   UNL     1       6.693  -5.679  25.277  0.00  0.00    -0.260 OA
ATOM     12  C   UNL     1       8.192  -4.036  24.421  0.00  0.00    +0.374 A 
BRANCH  12  13
ATOM     13  N   UNL     1       9.136  -4.352  25.441  0.00  0.00    +0.089 N 
ATOM     14  O   UNL     1       8.889  -3.951  26.586  0.00  0.00    +0.042 OA
ATOM     15  O   UNL     1      10.156  -4.970  25.102  0.00  0.00    -0.576 OA
ENDBRANCH  12  13
ENDBRANCH   1   3
BRANCH   1  16
ATOM     16  C   UNL     1       9.959  -1.155  24.080  0.00  0.00    +0.137 C 
BRANCH  16  17
ATOM     17  C   UNL     1      10.150   0.133  23.258  0.00  0.00    +0.162 C 
BRANCH  17  18
ATOM     18  O   UNL     1      10.277   1.233  24.172  0.00  0.00    -0.388 OA
ATOM     19  H   UNL     1       9.481   1.207  24.750  0.00  0.00    +0.210 HD
ENDBRANCH  17  18
BRANCH  17  20
ATOM     20  C   UNL     1       8.942   0.297  22.290  0.00  0.00    +0.175 C 
BRANCH  20  21
ATOM     21  O   UNL     1       7.686   0.236  22.987  0.00  0.00    -0.387 OA
ATOM     22  H   UNL     1       7.011  -0.187  22.430  0.00  0.00    +0.210 HD
ENDBRANCH  20  21
BRANCH  20  23
ATOM     23  C   UNL     1       8.972   1.622  21.503  0.00  0.00    +0.171 C 
BRANCH  23  24
ATOM     24  O   UNL     1      10.254   2.260  21.644  0.00  0.00    -0.387 OA
ATOM     25  H   UNL     1      10.529   2.067  22.564  0.00  0.00    +0.210 HD
ENDBRANCH  23  24
BRANCH  23  26
ATOM     26  C   UNL     1       7.872   2.573  22.000  0.00  0.00    +0.189 C 
BRANCH  26  27
ATOM     27  O   UNL     1       8.304   3.176  23.220  0.00  0.00    -0.392 OA
ATOM     28  H   UNL     1       7.604   3.803  23.481  0.00  0.00    +0.210 HD
ENDBRANCH  26  27
ENDBRANCH  23  26
ENDBRANCH  20  23
ENDBRANCH  17  20
ENDBRANCH  16  17
ENDBRANCH   1  16
TORSDOF 11
ENDMDL
MODEL 4
REMARK VINA RESULT:      -5.4      2.060      2.619
REMARK  Name = 
REMARK  11 active torsions:
REMARK  status: ('A' for Active; 'I' for Inactive)
REMARK    1  A    between atoms: O_1  and  C_2
REMARK    2  A    between atoms: C_2  and  C_3
REMARK    3  A    between atoms: C_3  and  O_5
REMARK    4  A    between atoms: C_3  and  C_6
REMARK    5  A    between atoms: C_6  and  O_8
REMARK    6  A    between atoms: C_6  and  C_9
REMARK    7  A    between atoms: C_9  and  O_11
REMARK    8  A    between atoms: C_9  and  C_12
REMARK    9  A    between atoms: C_12  and  N_13
REMARK   10  A    between atoms: N_13  and  C_14
REMARK   11  A    between atoms: C_15  and  N_22
REMARK                            x       y       z     vdW  Elec       q    Type
REMARK                         _______ _______ _______ _____ _____    ______ ____
ROOT
ATOM      1  N   UNL     1       7.605  -4.291  22.830  0.00  0.00    -0.322 N 
ATOM      2  H   UNL     1       8.617  -4.388  22.722  0.00  0.00    +0.148 HD
ENDROOT
BRANCH   1   3
ATOM      3  C   UNL     1       7.151  -4.855  24.024  0.00  0.00    +0.185 A 
ATOM      4  N   UNL     1       5.932  -5.494  23.935  0.00  0.00    -0.291 N 
ATOM      5  H   UNL     1       5.444  -5.497  23.047  0.00  0.00    +0.172 HD
ATOM      6  C   UNL     1       5.281  -6.135  24.952  0.00  0.00    +0.328 A 
ATOM      7  O   UNL     1       4.200  -6.687  24.786  0.00  0.00    -0.247 OA
ATOM      8  N   UNL     1       5.912  -6.134  26.160  0.00  0.00    -0.269 N 
ATOM      9  H   UNL     1       5.460  -6.618  26.922  0.00  0.00    +0.174 HD
ATOM     10  C   UNL     1       7.134  -5.565  26.400  0.00  0.00    +0.333 A 
ATOM     11  O   UNL     1       7.663  -5.640  27.504  0.00  0.00    -0.260 OA
ATOM     12  C   UNL     1       7.733  -4.879  25.248  0.00  0.00    +0.374 A 
BRANCH  12  13
ATOM     13  N   UNL     1       8.983  -4.240  25.491  0.00  0.00    +0.089 N 
ATOM     14  O   UNL     1       9.991  -4.755  24.988  0.00  0.00    +0.042 OA
ATOM     15  O   UNL     1       8.978  -3.238  26.221  0.00  0.00    -0.576 OA
ENDBRANCH  12  13
ENDBRANCH   1   3
BRANCH   1  16
ATOM     16  C   UNL     1       7.181  -2.981  22.322  0.00  0.00    +0.137 C 
BRANCH  16  17
ATOM     17  C   UNL     1       7.268  -1.846  23.359  0.00  0.00    +0.162 C 
BRANCH  17  18
ATOM     18  O   UNL     1       6.231  -0.896  23.073  0.00  0.00    -0.388 OA
ATOM     19  H   UNL     1       6.665  -0.013  23.041  0.00  0.00    +0.210 HD
ENDBRANCH  17  18
BRANCH  17  20
ATOM     20  C   UNL     1       8.689  -1.215  23.299  0.00  0.00    +0.175 C 
BRANCH  20  21
ATOM     21  O   UNL     1       9.717  -2.217  23.236  0.00  0.00    -0.387 OA
ATOM     22  H   UNL     1      10.411  -1.953  22.609  0.00  0.00    +0.210 HD
ENDBRANCH  20  21
BRANCH  20  23
ATOM     23  C   UNL     1       8.884  -0.275  22.093  0.00  0.00    +0.171 C 
BRANCH  23  24
ATOM     24  O   UNL     1       9.849  -0.824  21.179  0.00  0.00    -0.387 OA
ATOM     25  H   UNL     1       9.823  -0.228  20.402  0.00  0.00    +0.210 HD
ENDBRANCH  23  24
BRANCH  23  26
ATOM     26  C   UNL     1       9.354   1.113  22.558  0.00  0.00    +0.189 C 
BRANCH  26  27
ATOM     27  O   UNL     1       9.792   1.854  21.418  0.00  0.00    -0.392 OA
ATOM     28  H   UNL     1      10.268   2.632  21.761  0.00  0.00    +0.210 HD
ENDBRANCH  26  27
ENDBRANCH  23  26
ENDBRANCH  20  23
ENDBRANCH  17  20
ENDBRANCH  16  17
ENDBRANCH   1  16
TORSDOF 11
ENDMDL
MODEL 5
REMARK VINA RESULT:      -5.4      2.511      3.103
REMARK  Name = 
REMARK  11 active torsions:
REMARK  status: ('A' for Active; 'I' for Inactive)
REMARK    1  A    between atoms: O_1  and  C_2
REMARK    2  A    between atoms: C_2  and  C_3
REMARK    3  A    between atoms: C_3  and  O_5
REMARK    4  A    between atoms: C_3  and  C_6
REMARK    5  A    between atoms: C_6  and  O_8
REMARK    6  A    between atoms: C_6  and  C_9
REMARK    7  A    between atoms: C_9  and  O_11
REMARK    8  A    between atoms: C_9  and  C_12
REMARK    9  A    between atoms: C_12  and  N_13
REMARK   10  A    between atoms: N_13  and  C_14
REMARK   11  A    between atoms: C_15  and  N_22
REMARK                            x       y       z     vdW  Elec       q    Type
REMARK                         _______ _______ _______ _____ _____    ______ ____
ROOT
ATOM      1  N   UNL     1       7.572  -3.718  22.977  0.00  0.00    -0.322 N 
ATOM      2  H   UNL     1       8.572  -3.573  23.131  0.00  0.00    +0.148 HD
ENDROOT
BRANCH   1   3
ATOM      3  C   UNL     1       7.008  -4.540  23.957  0.00  0.00    +0.185 A 
ATOM      4  N   UNL     1       7.678  -4.546  25.162  0.00  0.00    -0.291 N 
ATOM      5  H   UNL     1       8.522  -3.993  25.257  0.00  0.00    +0.172 HD
ATOM      6  C   UNL     1       7.323  -5.250  26.279  0.00  0.00    +0.328 A 
ATOM      7  O   UNL     1       7.972  -5.194  27.316  0.00  0.00    -0.247 OA
ATOM      8  N   UNL     1       6.197  -6.011  26.172  0.00  0.00    -0.269 N 
ATOM      9  H   UNL     1       5.905  -6.526  26.990  0.00  0.00    +0.174 HD
ATOM     10  C   UNL     1       5.413  -6.090  25.053  0.00  0.00    +0.333 A 
ATOM     11  O   UNL     1       4.387  -6.762  25.043  0.00  0.00    -0.260 OA
ATOM     12  C   UNL     1       5.899  -5.316  23.903  0.00  0.00    +0.374 A 
BRANCH  12  13
ATOM     13  N   UNL     1       5.120  -5.423  22.714  0.00  0.00    +0.089 N 
ATOM     14  O   UNL     1       5.607  -6.064  21.773  0.00  0.00    +0.042 OA
ATOM     15  O   UNL     1       4.029  -4.834  22.693  0.00  0.00    -0.576 OA
ENDBRANCH  12  13
ENDBRANCH   1   3
BRANCH   1  16
ATOM     16  C   UNL     1       6.963  -2.474  22.493  0.00  0.00    +0.137 C 
BRANCH  16  17
ATOM     17  C   UNL     1       7.235  -1.251  23.388  0.00  0.00    +0.162 C 
BRANCH  17  18
ATOM     18  O   UNL     1       6.469  -0.146  22.884  0.00  0.00    -0.388 OA
ATOM     19  H   UNL     1       5.704  -0.536  22.403  0.00  0.00    +0.210 HD
ENDBRANCH  17  18
BRANCH  17  20
ATOM     20  C   UNL     1       8.764  -0.963  23.398  0.00  0.00    +0.175 C 
BRANCH  20  21
ATOM     21  O   UNL     1       9.500  -2.001  24.066  0.00  0.00    -0.387 OA
ATOM     22  H   UNL     1       9.673  -2.739  23.457  0.00  0.00    +0.210 HD
ENDBRANCH  20  21
BRANCH  20  23
ATOM     23  C   UNL     1       9.360  -0.807  21.986  0.00  0.00    +0.171 C 
BRANCH  23  24
ATOM     24  O   UNL     1      10.518  -1.647  21.833  0.00  0.00    -0.387 OA
ATOM     25  H   UNL     1      11.025  -1.242  21.100  0.00  0.00    +0.210 HD
ENDBRANCH  23  24
BRANCH  23  26
ATOM     26  C   UNL     1       9.754   0.656  21.723  0.00  0.00    +0.189 C 
BRANCH  26  27
ATOM     27  O   UNL     1       8.673   1.309  21.057  0.00  0.00    -0.392 OA
ATOM     28  H   UNL     1       8.603   0.899  20.175  0.00  0.00    +0.210 HD
ENDBRANCH  26  27
ENDBRANCH  23  26
ENDBRANCH  20  23
ENDBRANCH  17  20
ENDBRANCH  16  17
ENDBRANCH   1  16
TORSDOF 11
ENDMDL
MODEL 6
REMARK VINA RESULT:      -5.4      2.428      6.116
REMARK  Name = 
REMARK  11 active torsions:
REMARK  status: ('A' for Active; 'I' for Inactive)
REMARK    1  A    between atoms: O_1  and  C_2
REMARK    2  A    between atoms: C_2  and  C_3
REMARK    3  A    between atoms: C_3  and  O_5
REMARK    4  A    between atoms: C_3  and  C_6
REMARK    5  A    between atoms: C_6  and  O_8
REMARK    6  A    between atoms: C_6  and  C_9
REMARK    7  A    between atoms: C_9  and  O_11
REMARK    8  A    between atoms: C_9  and  C_12
REMARK    9  A    between atoms: C_12  and  N_13
REMARK   10  A    between atoms: N_13  and  C_14
REMARK   11  A    between atoms: C_15  and  N_22
REMARK                            x       y       z     vdW  Elec       q    Type
REMARK                         _______ _______ _______ _____ _____    ______ ____
ROOT
ATOM      1  N   UNL     1       6.633  -0.963  23.175  0.00  0.00    -0.322 N 
ATOM      2  H   UNL     1       5.643  -0.964  22.918  0.00  0.00    +0.148 HD
ENDROOT
BRANCH   1   3
ATOM      3  C   UNL     1       7.281   0.198  22.746  0.00  0.00    +0.185 A 
ATOM      4  N   UNL     1       6.457   1.293  22.581  0.00  0.00    -0.291 N 
ATOM      5  H   UNL     1       5.465   1.189  22.752  0.00  0.00    +0.172 HD
ATOM      6  C   UNL     1       6.847   2.542  22.186  0.00  0.00    +0.328 A 
ATOM      7  O   UNL     1       6.049   3.465  22.072  0.00  0.00    -0.247 OA
ATOM      8  N   UNL     1       8.177   2.704  21.939  0.00  0.00    -0.269 N 
ATOM      9  H   UNL     1       8.491   3.623  21.664  0.00  0.00    +0.174 HD
ATOM     10  C   UNL     1       9.121   1.722  22.080  0.00  0.00    +0.333 A 
ATOM     11  O   UNL     1      10.309   1.951  21.882  0.00  0.00    -0.260 OA
ATOM     12  C   UNL     1       8.592   0.412  22.482  0.00  0.00    +0.374 A 
BRANCH  12  13
ATOM     13  N   UNL     1       9.555  -0.635  22.590  0.00  0.00    +0.089 N 
ATOM     14  O   UNL     1       9.512  -1.534  21.739  0.00  0.00    +0.042 OA
ATOM     15  O   UNL     1      10.339  -0.591  23.549  0.00  0.00    -0.576 OA
ENDBRANCH  12  13
ENDBRANCH   1   3
BRANCH   1  16
ATOM     16  C   UNL     1       6.795  -1.554  24.508  0.00  0.00    +0.137 C 
BRANCH  16  17
ATOM     17  C   UNL     1       6.399  -3.040  24.590  0.00  0.00    +0.162 C 
BRANCH  17  18
ATOM     18  O   UNL     1       6.003  -3.325  25.940  0.00  0.00    -0.388 OA
ATOM     19  H   UNL     1       5.032  -3.483  25.916  0.00  0.00    +0.210 HD
ENDBRANCH  17  18
BRANCH  17  20
ATOM     20  C   UNL     1       7.603  -3.909  24.124  0.00  0.00    +0.175 C 
BRANCH  20  21
ATOM     21  O   UNL     1       7.937  -3.665  22.747  0.00  0.00    -0.387 OA
ATOM     22  H   UNL     1       8.044  -2.712  22.588  0.00  0.00    +0.210 HD
ENDBRANCH  20  21
BRANCH  20  23
ATOM     23  C   UNL     1       8.877  -3.676  24.959  0.00  0.00    +0.171 C 
BRANCH  23  24
ATOM     24  O   UNL     1      10.006  -3.443  24.098  0.00  0.00    -0.387 OA
ATOM     25  H   UNL     1      10.472  -4.304  24.060  0.00  0.00    +0.210 HD
ENDBRANCH  23  24
BRANCH  23  26
ATOM     26  C   UNL     1       9.164  -4.889  25.858  0.00  0.00    +0.189 C 
BRANCH  26  27
ATOM     27  O   UNL     1      10.293  -5.590  25.336  0.00  0.00    -0.392 OA
ATOM     28  H   UNL     1      10.792  -4.949  24.797  0.00  0.00    +0.210 HD
ENDBRANCH  26  27
ENDBRANCH  23  26
ENDBRANCH  20  23
ENDBRANCH  17  20
ENDBRANCH  16  17
ENDBRANCH   1  16
TORSDOF 11
ENDMDL
MODEL 7
REMARK VINA RESULT:      -5.4      2.643      4.021
REMARK  Name = 
REMARK  11 active torsions:
REMARK  status: ('A' for Active; 'I' for Inactive)
REMARK    1  A    between atoms: O_1  and  C_2
REMARK    2  A    between atoms: C_2  and  C_3
REMARK    3  A    between atoms: C_3  and  O_5
REMARK    4  A    between atoms: C_3  and  C_6
REMARK    5  A    between atoms: C_6  and  O_8
REMARK    6  A    between atoms: C_6  and  C_9
REMARK    7  A    between atoms: C_9  and  O_11
REMARK    8  A    between atoms: C_9  and  C_12
REMARK    9  A    between atoms: C_12  and  N_13
REMARK   10  A    between atoms: N_13  and  C_14
REMARK   11  A    between atoms: C_15  and  N_22
REMARK                            x       y       z     vdW  Elec       q    Type
REMARK                         _______ _______ _______ _____ _____    ______ ____
ROOT
ATOM      1  N   UNL     1       7.211   0.807  23.136  0.00  0.00    -0.322 N 
ATOM      2  H   UNL     1       6.316   1.053  23.563  0.00  0.00    +0.148 HD
ENDROOT
BRANCH   1   3
ATOM      3  C   UNL     1       7.479  -0.561  23.238  0.00  0.00    +0.185 A 
ATOM      4  N   UNL     1       6.429  -1.383  22.886  0.00  0.00    -0.291 N 
ATOM      5  H   UNL     1       5.550  -0.964  22.607  0.00  0.00    +0.172 HD
ATOM      6  C   UNL     1       6.441  -2.750  22.885  0.00  0.00    +0.328 A 
ATOM      7  O   UNL     1       5.463  -3.408  22.549  0.00  0.00    -0.247 OA
ATOM      8  N   UNL     1       7.608  -3.338  23.269  0.00  0.00    -0.269 N 
ATOM      9  H   UNL     1       7.647  -4.347  23.258  0.00  0.00    +0.174 HD
ATOM     10  C   UNL     1       8.743  -2.659  23.623  0.00  0.00    +0.333 A 
ATOM     11  O   UNL     1       9.774  -3.255  23.916  0.00  0.00    -0.260 OA
ATOM     12  C   UNL     1       8.614  -1.196  23.616  0.00  0.00    +0.374 A 
BRANCH  12  13
ATOM     13  N   UNL     1       9.772  -0.473  24.027  0.00  0.00    +0.089 N 
ATOM     14  O   UNL     1       9.929  -0.297  25.243  0.00  0.00    +0.042 OA
ATOM     15  O   UNL     1      10.518  -0.038  23.137  0.00  0.00    -0.576 OA
ENDBRANCH  12  13
ENDBRANCH   1   3
BRANCH   1  16
ATOM     16  C   UNL     1       7.407   1.597  21.915  0.00  0.00    +0.137 C 
BRANCH  16  17
ATOM     17  C   UNL     1       8.424   2.743  22.064  0.00  0.00    +0.162 C 
BRANCH  17  18
ATOM     18  O   UNL     1       9.713   2.255  21.663  0.00  0.00    -0.388 OA
ATOM     19  H   UNL     1       9.571   1.754  20.827  0.00  0.00    +0.210 HD
ENDBRANCH  17  18
BRANCH  17  20
ATOM     20  C   UNL     1       8.407   3.244  23.538  0.00  0.00    +0.175 C 
BRANCH  20  21
ATOM     21  O   UNL     1       9.453   2.642  24.319  0.00  0.00    -0.387 OA
ATOM     22  H   UNL     1      10.317   2.793  23.901  0.00  0.00    +0.210 HD
ENDBRANCH  20  21
BRANCH  20  23
ATOM     23  C   UNL     1       8.558   4.772  23.660  0.00  0.00    +0.171 C 
BRANCH  23  24
ATOM     24  O   UNL     1       8.277   5.407  22.400  0.00  0.00    -0.387 OA
ATOM     25  H   UNL     1       7.350   5.714  22.478  0.00  0.00    +0.210 HD
ENDBRANCH  23  24
BRANCH  23  26
ATOM     26  C   UNL     1       9.980   5.143  24.111  0.00  0.00    +0.189 C 
BRANCH  26  27
ATOM     27  O   UNL     1      10.893   4.815  23.062  0.00  0.00    -0.392 OA
ATOM     28  H   UNL     1      11.167   3.892  23.212  0.00  0.00    +0.210 HD
ENDBRANCH  26  27
ENDBRANCH  23  26
ENDBRANCH  20  23
ENDBRANCH  17  20
ENDBRANCH  16  17
ENDBRANCH   1  16
TORSDOF 11
ENDMDL
MODEL 8
REMARK VINA RESULT:      -5.3      2.428      5.291
REMARK  Name = 
REMARK  11 active torsions:
REMARK  status: ('A' for Active; 'I' for Inactive)
REMARK    1  A    between atoms: O_1  and  C_2
REMARK    2  A    between atoms: C_2  and  C_3
REMARK    3  A    between atoms: C_3  and  O_5
REMARK    4  A    between atoms: C_3  and  C_6
REMARK    5  A    between atoms: C_6  and  O_8
REMARK    6  A    between atoms: C_6  and  C_9
REMARK    7  A    between atoms: C_9  and  O_11
REMARK    8  A    between atoms: C_9  and  C_12
REMARK    9  A    between atoms: C_12  and  N_13
REMARK   10  A    between atoms: N_13  and  C_14
REMARK   11  A    between atoms: C_15  and  N_22
REMARK                            x       y       z     vdW  Elec       q    Type
REMARK                         _______ _______ _______ _____ _____    ______ ____
ROOT
ATOM      1  N   UNL     1       7.359  -1.781  23.008  0.00  0.00    -0.322 N 
ATOM      2  H   UNL     1       6.504  -2.051  23.499  0.00  0.00    +0.148 HD
ENDROOT
BRANCH   1   3
ATOM      3  C   UNL     1       8.141  -0.907  23.767  0.00  0.00    +0.185 A 
ATOM      4  N   UNL     1       8.275  -1.256  25.095  0.00  0.00    -0.291 N 
ATOM      5  H   UNL     1       7.796  -2.081  25.435  0.00  0.00    +0.172 HD
ATOM      6  C   UNL     1       8.996  -0.579  26.038  0.00  0.00    +0.328 A 
ATOM      7  O   UNL     1       9.069  -0.962  27.200  0.00  0.00    -0.247 OA
ATOM      8  N   UNL     1       9.639   0.542  25.607  0.00  0.00    -0.269 N 
ATOM      9  H   UNL     1      10.195   1.049  26.282  0.00  0.00    +0.174 HD
ATOM     10  C   UNL     1       9.623   1.003  24.318  0.00  0.00    +0.333 A 
ATOM     11  O   UNL     1      10.263   1.997  23.992  0.00  0.00    -0.260 OA
ATOM     12  C   UNL     1       8.797   0.218  23.393  0.00  0.00    +0.374 A 
BRANCH  12  13
ATOM     13  N   UNL     1       8.731   0.709  22.056  0.00  0.00    +0.089 N 
ATOM     14  O   UNL     1       9.419   0.130  21.204  0.00  0.00    +0.042 OA
ATOM     15  O   UNL     1       8.020   1.704  21.849  0.00  0.00    -0.576 OA
ENDBRANCH  12  13
ENDBRANCH   1   3
BRANCH   1  16
ATOM     16  C   UNL     1       7.888  -2.934  22.271  0.00  0.00    +0.137 C 
BRANCH  16  17
ATOM     17  C   UNL     1       7.290  -4.285  22.703  0.00  0.00    +0.162 C 
BRANCH  17  18
ATOM     18  O   UNL     1       5.892  -4.094  22.966  0.00  0.00    -0.388 OA
ATOM     19  H   UNL     1       5.531  -4.978  23.206  0.00  0.00    +0.210 HD
ENDBRANCH  17  18
BRANCH  17  20
ATOM     20  C   UNL     1       8.066  -4.806  23.948  0.00  0.00    +0.175 C 
BRANCH  20  21
ATOM     21  O   UNL     1       9.250  -4.031  24.202  0.00  0.00    -0.387 OA
ATOM     22  H   UNL     1       9.023  -3.092  24.312  0.00  0.00    +0.210 HD
ENDBRANCH  20  21
BRANCH  20  23
ATOM     23  C   UNL     1       7.221  -4.798  25.236  0.00  0.00    +0.171 C 
BRANCH  23  24
ATOM     24  O   UNL     1       6.633  -3.502  25.443  0.00  0.00    -0.387 OA
ATOM     25  H   UNL     1       6.862  -2.993  24.638  0.00  0.00    +0.210 HD
ENDBRANCH  23  24
BRANCH  23  26
ATOM     26  C   UNL     1       8.084  -5.167  26.453  0.00  0.00    +0.189 C 
BRANCH  26  27
ATOM     27  O   UNL     1       8.693  -3.979  26.960  0.00  0.00    -0.392 OA
ATOM     28  H   UNL     1       8.086  -3.622  27.634  0.00  0.00    +0.210 HD
ENDBRANCH  26  27
ENDBRANCH  23  26
ENDBRANCH  20  23
ENDBRANCH  17  20
ENDBRANCH  16  17
ENDBRANCH   1  16
TORSDOF 11
ENDMDL
MODEL 9
REMARK VINA RESULT:      -5.3      2.336      5.728
REMARK  Name = 
REMARK  11 active torsions:
REMARK  status: ('A' for Active; 'I' for Inactive)
REMARK    1  A    between atoms: O_1  and  C_2
REMARK    2  A    between atoms: C_2  and  C_3
REMARK    3  A    between atoms: C_3  and  O_5
REMARK    4  A    between atoms: C_3  and  C_6
REMARK    5  A    between atoms: C_6  and  O_8
REMARK    6  A    between atoms: C_6  and  C_9
REMARK    7  A    between atoms: C_9  and  O_11
REMARK    8  A    between atoms: C_9  and  C_12
REMARK    9  A    between atoms: C_12  and  N_13
REMARK   10  A    between atoms: N_13  and  C_14
REMARK   11  A    between atoms: C_15  and  N_22
REMARK                            x       y       z     vdW  Elec       q    Type
REMARK                         _______ _______ _______ _____ _____    ______ ____
ROOT
ATOM      1  N   UNL     1       8.977  -1.106  26.111  0.00  0.00    -0.322 N 
ATOM      2  H   UNL     1       9.692  -1.831  26.199  0.00  0.00    +0.148 HD
ENDROOT
BRANCH   1   3
ATOM      3  C   UNL     1       9.173  -0.316  24.975  0.00  0.00    +0.185 A 
ATOM      4  N   UNL     1       9.164   1.044  25.208  0.00  0.00    -0.291 N 
ATOM      5  H   UNL     1       8.998   1.378  26.149  0.00  0.00    +0.172 HD
ATOM      6  C   UNL     1       9.348   2.023  24.272  0.00  0.00    +0.328 A 
ATOM      7  O   UNL     1       9.332   3.212  24.565  0.00  0.00    -0.247 OA
ATOM      8  N   UNL     1       9.561   1.597  22.995  0.00  0.00    -0.269 N 
ATOM      9  H   UNL     1       9.718   2.302  22.289  0.00  0.00    +0.174 HD
ATOM     10  C   UNL     1       9.621   0.284  22.611  0.00  0.00    +0.333 A 
ATOM     11  O   UNL     1       9.861  -0.027  21.449  0.00  0.00    -0.260 OA
ATOM     12  C   UNL     1       9.384  -0.685  23.689  0.00  0.00    +0.374 A 
BRANCH  12  13
ATOM     13  N   UNL     1       9.398  -2.056  23.299  0.00  0.00    +0.089 N 
ATOM     14  O   UNL     1       8.475  -2.448  22.571  0.00  0.00    +0.042 OA
ATOM     15  O   UNL     1      10.309  -2.767  23.747  0.00  0.00    -0.576 OA
ENDBRANCH  12  13
ENDBRANCH   1   3
BRANCH   1  16
ATOM     16  C   UNL     1       7.677  -1.644  26.527  0.00  0.00    +0.137 C 
BRANCH  16  17
ATOM     17  C   UNL     1       7.605  -3.183  26.530  0.00  0.00    +0.162 C 
BRANCH  17  18
ATOM     18  O   UNL     1       8.876  -3.692  26.102  0.00  0.00    -0.388 OA
ATOM     19  H   UNL     1       8.825  -3.779  25.122  0.00  0.00    +0.210 HD
ENDBRANCH  17  18
BRANCH  17  20
ATOM     20  C   UNL     1       6.437  -3.635  25.606  0.00  0.00    +0.175 C 
BRANCH  20  21
ATOM     21  O   UNL     1       6.430  -2.915  24.362  0.00  0.00    -0.387 OA
ATOM     22  H   UNL     1       5.519  -2.703  24.099  0.00  0.00    +0.210 HD
ENDBRANCH  20  21
BRANCH  20  23
ATOM     23  C   UNL     1       6.478  -5.139  25.271  0.00  0.00    +0.171 C 
BRANCH  23  24
ATOM     24  O   UNL     1       7.319  -5.838  26.205  0.00  0.00    -0.387 OA
ATOM     25  H   UNL     1       7.712  -6.570  25.685  0.00  0.00    +0.210 HD
ENDBRANCH  23  24
BRANCH  23  26
ATOM     26  C   UNL     1       7.003  -5.363  23.844  0.00  0.00    +0.189 C 
BRANCH  26  27
ATOM     27  O   UNL     1       8.425  -5.223  23.852  0.00  0.00    -0.392 OA
ATOM     28  H   UNL     1       8.675  -4.898  22.968  0.00  0.00    +0.210 HD
ENDBRANCH  26  27
ENDBRANCH  23  26
ENDBRANCH  20  23
ENDBRANCH  17  20
ENDBRANCH  16  17
ENDBRANCH   1  16
TORSDOF 11
ENDMDL
