MODEL 1
REMARK VINA RESULT:      -6.7      0.000      0.000
REMARK  Name = 
REMARK  6 active torsions:
REMARK  status: ('A' for Active; 'I' for Inactive)
REMARK    1  A    between atoms: C_2  and  C_3
REMARK    2  A    between atoms: C_2  and  C_4
REMARK    3  A    between atoms: C_2  and  C_11
REMARK    4  A    between atoms: C_13  and  N_21
REMARK    5  A    between atoms: C_15  and  N_18
REMARK    6  A    between atoms: C_16  and  O_17
REMARK                            x       y       z     vdW  Elec       q    Type
REMARK                         _______ _______ _______ _____ _____    ______ ____
ROOT
ATOM      1  C   UNL     1       5.843  -5.402  23.842  0.00  0.00    +0.014 A 
ATOM      2  C   UNL     1       4.683  -6.196  23.983  0.00  0.00    +0.199 A 
ATOM      3  C   UNL     1       4.350  -6.763  25.232  0.00  0.00    +0.321 A 
ATOM      4  C   UNL     1       5.160  -6.543  26.355  0.00  0.00    +0.172 A 
ATOM      5  C   UNL     1       6.304  -5.752  26.219  0.00  0.00    +0.280 A 
ATOM      6  C   UNL     1       6.642  -5.182  24.983  0.00  0.00    +0.092 A 
ENDROOT
BRANCH   3   7
ATOM      7  N   UNL     1       3.151  -7.594  25.394  0.00  0.00    +0.084 N 
ATOM      8  O   UNL     1       2.951  -8.479  24.548  0.00  0.00    +0.042 OA
ATOM      9  O   UNL     1       2.414  -7.370  26.361  0.00  0.00    -0.576 OA
ENDBRANCH   3   7
BRANCH   5  10
ATOM     10  N   UNL     1       7.167  -5.509  27.389  0.00  0.00    +0.080 N 
ATOM     11  O   UNL     1       8.088  -4.690  27.264  0.00  0.00    +0.041 OA
ATOM     12  O   UNL     1       6.923  -6.141  28.423  0.00  0.00    -0.576 OA
ENDBRANCH   5  10
BRANCH   1  13
ATOM     13  C   UNL     1       6.198  -4.772  22.490  0.00  0.00    +0.050 C 
ATOM     14  C   UNL     1       7.082  -5.641  21.580  0.00  0.00    +0.017 C 
BRANCH  13  15
ATOM     15  C   UNL     1       6.799  -3.376  22.630  0.00  0.00    -0.040 A 
ATOM     16  C   UNL     1       6.032  -2.275  23.043  0.00  0.00    +0.005 A 
ATOM     17  C   UNL     1       6.622  -1.019  23.206  0.00  0.00    +0.020 A 
ATOM     18  C   UNL     1       7.981  -0.850  22.953  0.00  0.00    +0.041 A 
ATOM     19 CL   UNL     1       8.708   0.694  23.171  0.00  0.00    -0.084 Cl
ATOM     20  C   UNL     1       8.756  -1.926  22.531  0.00  0.00    +0.020 A 
ATOM     21  C   UNL     1       8.167  -3.182  22.367  0.00  0.00    +0.005 A 
ENDBRANCH  13  15
ENDBRANCH   1  13
BRANCH   2  22
ATOM     22  O   UNL     1       3.933  -6.379  22.849  0.00  0.00    -0.501 OA
ATOM     23  H   UNL     1       4.260  -5.812  22.118  0.00  0.00    +0.292 HD
ENDBRANCH   2  22
TORSDOF 5
ENDMDL
MODEL 2
REMARK VINA RESULT:      -6.4      2.083      2.801
REMARK  Name = 
REMARK  6 active torsions:
REMARK  status: ('A' for Active; 'I' for Inactive)
REMARK    1  A    between atoms: C_2  and  C_3
REMARK    2  A    between atoms: C_2  and  C_4
REMARK    3  A    between atoms: C_2  and  C_11
REMARK    4  A    between atoms: C_13  and  N_21
REMARK    5  A    between atoms: C_15  and  N_18
REMARK    6  A    between atoms: C_16  and  O_17
REMARK                            x       y       z     vdW  Elec       q    Type
REMARK                         _______ _______ _______ _____ _____    ______ ____
ROOT
ATOM      1  C   UNL     1       7.618  -5.022  25.162  0.00  0.00    +0.014 A 
ATOM      2  C   UNL     1       6.553  -5.085  24.236  0.00  0.00    +0.199 A 
ATOM      3  C   UNL     1       5.274  -5.522  24.644  0.00  0.00    +0.321 A 
ATOM      4  C   UNL     1       5.037  -5.893  25.975  0.00  0.00    +0.172 A 
ATOM      5  C   UNL     1       6.087  -5.823  26.894  0.00  0.00    +0.280 A 
ATOM      6  C   UNL     1       7.361  -5.389  26.498  0.00  0.00    +0.092 A 
ENDROOT
BRANCH   3   7
ATOM      7  N   UNL     1       4.159  -5.598  23.693  0.00  0.00    +0.084 N 
ATOM      8  O   UNL     1       3.443  -6.611  23.732  0.00  0.00    +0.042 OA
ATOM      9  O   UNL     1       3.992  -4.652  22.914  0.00  0.00    -0.576 OA
ENDBRANCH   3   7
BRANCH   5  10
ATOM     10  N   UNL     1       5.856  -6.208  28.297  0.00  0.00    +0.080 N 
ATOM     11  O   UNL     1       5.534  -7.382  28.526  0.00  0.00    +0.041 OA
ATOM     12  O   UNL     1       5.992  -5.335  29.162  0.00  0.00    -0.576 OA
ENDBRANCH   5  10
BRANCH   1  13
ATOM     13  C   UNL     1       9.004  -4.533  24.725  0.00  0.00    +0.050 C 
ATOM     14  C   UNL     1      10.184  -5.146  25.500  0.00  0.00    +0.017 C 
BRANCH  13  15
ATOM     15  C   UNL     1       9.116  -3.011  24.715  0.00  0.00    -0.040 A 
ATOM     16  C   UNL     1       8.547  -2.218  25.724  0.00  0.00    +0.005 A 
ATOM     17  C   UNL     1       8.706  -0.830  25.711  0.00  0.00    +0.020 A 
ATOM     18  C   UNL     1       9.429  -0.221  24.689  0.00  0.00    +0.041 A 
ATOM     19 CL   UNL     1       9.637   1.486  24.685  0.00  0.00    -0.084 Cl
ATOM     20  C   UNL     1       9.989  -0.989  23.672  0.00  0.00    +0.020 A 
ATOM     21  C   UNL     1       9.831  -2.377  23.683  0.00  0.00    +0.005 A 
ENDBRANCH  13  15
ENDBRANCH   1  13
BRANCH   2  22
ATOM     22  O   UNL     1       6.847  -4.715  22.948  0.00  0.00    -0.501 OA
ATOM     23  H   UNL     1       6.789  -3.741  22.843  0.00  0.00    +0.292 HD
ENDBRANCH   2  22
TORSDOF 5
ENDMDL
MODEL 3
REMARK VINA RESULT:      -6.2      2.765      5.135
REMARK  Name = 
REMARK  6 active torsions:
REMARK  status: ('A' for Active; 'I' for Inactive)
REMARK    1  A    between atoms: C_2  and  C_3
REMARK    2  A    between atoms: C_2  and  C_4
REMARK    3  A    between atoms: C_2  and  C_11
REMARK    4  A    between atoms: C_13  and  N_21
REMARK    5  A    between atoms: C_15  and  N_18
REMARK    6  A    between atoms: C_16  and  O_17
REMARK                            x       y       z     vdW  Elec       q    Type
REMARK                         _______ _______ _______ _____ _____    ______ ____
ROOT
ATOM      1  C   UNL     1       8.113  -2.572  22.748  0.00  0.00    +0.014 A 
ATOM      2  C   UNL     1       8.763  -3.215  23.825  0.00  0.00    +0.199 A 
ATOM      3  C   UNL     1       8.414  -4.532  24.190  0.00  0.00    +0.321 A 
ATOM      4  C   UNL     1       7.421  -5.229  23.487  0.00  0.00    +0.172 A 
ATOM      5  C   UNL     1       6.782  -4.598  22.416  0.00  0.00    +0.280 A 
ATOM      6  C   UNL     1       7.124  -3.289  22.045  0.00  0.00    +0.092 A 
ENDROOT
BRANCH   3   7
ATOM      7  N   UNL     1       9.077  -5.212  25.310  0.00  0.00    +0.084 N 
ATOM      8  O   UNL     1       8.352  -5.754  26.158  0.00  0.00    +0.042 OA
ATOM      9  O   UNL     1      10.313  -5.210  25.342  0.00  0.00    -0.576 OA
ENDBRANCH   3   7
BRANCH   5  10
ATOM     10  N   UNL     1       5.738  -5.315  21.664  0.00  0.00    +0.080 N 
ATOM     11  O   UNL     1       5.948  -5.546  20.465  0.00  0.00    +0.041 OA
ATOM     12  O   UNL     1       4.711  -5.638  22.273  0.00  0.00    -0.576 OA
ENDBRANCH   5  10
BRANCH   1  13
ATOM     13  C   UNL     1       8.501  -1.146  22.341  0.00  0.00    +0.050 C 
ATOM     14  C   UNL     1       9.967  -0.971  21.904  0.00  0.00    +0.017 C 
BRANCH  13  15
ATOM     15  C   UNL     1       8.142  -0.110  23.402  0.00  0.00    -0.040 A 
ATOM     16  C   UNL     1       6.881  -0.089  24.021  0.00  0.00    +0.005 A 
ATOM     17  C   UNL     1       6.597   0.844  25.023  0.00  0.00    +0.020 A 
ATOM     18  C   UNL     1       7.567   1.764  25.411  0.00  0.00    +0.041 A 
ATOM     19 CL   UNL     1       7.220   2.899  26.657  0.00  0.00    -0.084 Cl
ATOM     20  C   UNL     1       8.818   1.767  24.801  0.00  0.00    +0.020 A 
ATOM     21  C   UNL     1       9.102   0.837  23.799  0.00  0.00    +0.005 A 
ENDBRANCH  13  15
ENDBRANCH   1  13
BRANCH   2  22
ATOM     22  O   UNL     1       9.721  -2.481  24.479  0.00  0.00    -0.501 OA
ATOM     23  H   UNL     1      10.453  -3.057  24.787  0.00  0.00    +0.292 HD
ENDBRANCH   2  22
TORSDOF 5
ENDMDL
MODEL 4
REMARK VINA RESULT:      -6.2      2.569      3.941
REMARK  Name = 
REMARK  6 active torsions:
REMARK  status: ('A' for Active; 'I' for Inactive)
REMARK    1  A    between atoms: C_2  and  C_3
REMARK    2  A    between atoms: C_2  and  C_4
REMARK    3  A    between atoms: C_2  and  C_11
REMARK    4  A    between atoms: C_13  and  N_21
REMARK    5  A    between atoms: C_15  and  N_18
REMARK    6  A    between atoms: C_16  and  O_17
REMARK                            x       y       z     vdW  Elec       q    Type
REMARK                         _______ _______ _______ _____ _____    ______ ____
ROOT
ATOM      1  C   UNL     1       7.790  -2.269  23.225  0.00  0.00    +0.014 A 
ATOM      2  C   UNL     1       6.504  -2.839  23.083  0.00  0.00    +0.199 A 
ATOM      3  C   UNL     1       6.152  -4.002  23.801  0.00  0.00    +0.321 A 
ATOM      4  C   UNL     1       7.069  -4.608  24.672  0.00  0.00    +0.172 A 
ATOM      5  C   UNL     1       8.338  -4.041  24.820  0.00  0.00    +0.280 A 
ATOM      6  C   UNL     1       8.696  -2.884  24.112  0.00  0.00    +0.092 A 
ENDROOT
BRANCH   3   7
ATOM      7  N   UNL     1       4.824  -4.609  23.660  0.00  0.00    +0.084 N 
ATOM      8  O   UNL     1       4.383  -4.760  22.510  0.00  0.00    +0.042 OA
ATOM      9  O   UNL     1       4.223  -4.937  24.690  0.00  0.00    -0.576 OA
ENDBRANCH   3   7
BRANCH   5  10
ATOM     10  N   UNL     1       9.313  -4.663  25.733  0.00  0.00    +0.080 N 
ATOM     11  O   UNL     1      10.331  -5.163  25.233  0.00  0.00    +0.041 OA
ATOM     12  O   UNL     1       9.055  -4.654  26.942  0.00  0.00    -0.576 OA
ENDBRANCH   5  10
BRANCH   1  13
ATOM     13  C   UNL     1       8.168  -0.996  22.458  0.00  0.00    +0.050 C 
ATOM     14  C   UNL     1       9.498  -1.073  21.689  0.00  0.00    +0.017 C 
BRANCH  13  15
ATOM     15  C   UNL     1       8.140   0.251  23.336  0.00  0.00    -0.040 A 
ATOM     16  C   UNL     1       9.317   0.854  23.808  0.00  0.00    +0.005 A 
ATOM     17  C   UNL     1       9.261   2.023  24.572  0.00  0.00    +0.020 A 
ATOM     18  C   UNL     1       8.029   2.596  24.876  0.00  0.00    +0.041 A 
ATOM     19 CL   UNL     1       7.963   4.044  25.803  0.00  0.00    -0.084 Cl
ATOM     20  C   UNL     1       6.850   2.007  24.429  0.00  0.00    +0.020 A 
ATOM     21  C   UNL     1       6.905   0.838  23.666  0.00  0.00    +0.005 A 
ENDBRANCH  13  15
ENDBRANCH   1  13
BRANCH   2  22
ATOM     22  O   UNL     1       5.654  -2.204  22.212  0.00  0.00    -0.501 OA
ATOM     23  H   UNL     1       5.289  -1.387  22.614  0.00  0.00    +0.292 HD
ENDBRANCH   2  22
TORSDOF 5
ENDMDL
MODEL 5
REMARK VINA RESULT:      -6.1      3.443      5.694
REMARK  Name = 
REMARK  6 active torsions:
REMARK  status: ('A' for Active; 'I' for Inactive)
REMARK    1  A    between atoms: C_2  and  C_3
REMARK    2  A    between atoms: C_2  and  C_4
REMARK    3  A    between atoms: C_2  and  C_11
REMARK    4  A    between atoms: C_13  and  N_21
REMARK    5  A    between atoms: C_15  and  N_18
REMARK    6  A    between atoms: C_16  and  O_17
REMARK                            x       y       z     vdW  Elec       q    Type
REMARK                         _______ _______ _______ _____ _____    ______ ____
ROOT
ATOM      1  C   UNL     1       7.341  -1.563  24.706  0.00  0.00    +0.014 A 
ATOM      2  C   UNL     1       8.177  -2.410  25.468  0.00  0.00    +0.199 A 
ATOM      3  C   UNL     1       8.410  -3.742  25.062  0.00  0.00    +0.321 A 
ATOM      4  C   UNL     1       7.823  -4.245  23.893  0.00  0.00    +0.172 A 
ATOM      5  C   UNL     1       7.003  -3.406  23.133  0.00  0.00    +0.280 A 
ATOM      6  C   UNL     1       6.767  -2.081  23.528  0.00  0.00    +0.092 A 
ENDROOT
BRANCH   3   7
ATOM      7  N   UNL     1       9.271  -4.636  25.845  0.00  0.00    +0.084 N 
ATOM      8  O   UNL     1       8.975  -4.815  27.037  0.00  0.00    +0.042 OA
ATOM      9  O   UNL     1      10.235  -5.161  25.276  0.00  0.00    -0.576 OA
ENDBRANCH   3   7
BRANCH   5  10
ATOM     10  N   UNL     1       6.378  -3.917  21.900  0.00  0.00    +0.080 N 
ATOM     11  O   UNL     1       6.805  -4.984  21.438  0.00  0.00    +0.041 OA
ATOM     12  O   UNL     1       5.469  -3.246  21.396  0.00  0.00    -0.576 OA
ENDBRANCH   5  10
BRANCH   1  13
ATOM     13  C   UNL     1       7.099  -0.112  25.137  0.00  0.00    +0.050 C 
ATOM     14  C   UNL     1       5.730   0.465  24.737  0.00  0.00    +0.017 C 
BRANCH  13  15
ATOM     15  C   UNL     1       8.216   0.829  24.693  0.00  0.00    -0.040 A 
ATOM     16  C   UNL     1       9.370   0.358  24.046  0.00  0.00    +0.005 A 
ATOM     17  C   UNL     1      10.354   1.249  23.611  0.00  0.00    +0.020 A 
ATOM     18  C   UNL     1      10.198   2.616  23.823  0.00  0.00    +0.041 A 
ATOM     19 CL   UNL     1      11.403   3.712  23.271  0.00  0.00    -0.084 Cl
ATOM     20  C   UNL     1       9.068   3.101  24.474  0.00  0.00    +0.020 A 
ATOM     21  C   UNL     1       8.083   2.212  24.910  0.00  0.00    +0.005 A 
ENDBRANCH  13  15
ENDBRANCH   1  13
BRANCH   2  22
ATOM     22  O   UNL     1       8.718  -1.864  26.605  0.00  0.00    -0.501 OA
ATOM     23  H   UNL     1       8.312  -0.992  26.801  0.00  0.00    +0.292 HD
ENDBRANCH   2  22
TORSDOF 5
ENDMDL
MODEL 6
REMARK VINA RESULT:      -6.1      3.702      5.594
REMARK  Name = 
REMARK  6 active torsions:
REMARK  status: ('A' for Active; 'I' for Inactive)
REMARK    1  A    between atoms: C_2  and  C_3
REMARK    2  A    between atoms: C_2  and  C_4
REMARK    3  A    between atoms: C_2  and  C_11
REMARK    4  A    between atoms: C_13  and  N_21
REMARK    5  A    between atoms: C_15  and  N_18
REMARK    6  A    between atoms: C_16  and  O_17
REMARK                            x       y       z     vdW  Elec       q    Type
REMARK                         _______ _______ _______ _____ _____    ______ ____
ROOT
ATOM      1  C   UNL     1       8.766  -1.034  24.196  0.00  0.00    +0.014 A 
ATOM      2  C   UNL     1       9.061  -2.395  23.953  0.00  0.00    +0.199 A 
ATOM      3  C   UNL     1       8.116  -3.399  24.255  0.00  0.00    +0.321 A 
ATOM      4  C   UNL     1       6.866  -3.063  24.794  0.00  0.00    +0.172 A 
ATOM      5  C   UNL     1       6.569  -1.718  25.028  0.00  0.00    +0.280 A 
ATOM      6  C   UNL     1       7.502  -0.713  24.730  0.00  0.00    +0.092 A 
ENDROOT
BRANCH   3   7
ATOM      7  N   UNL     1       8.409  -4.816  24.013  0.00  0.00    +0.084 N 
ATOM      8  O   UNL     1       7.641  -5.439  23.263  0.00  0.00    +0.042 OA
ATOM      9  O   UNL     1       9.402  -5.307  24.563  0.00  0.00    -0.576 OA
ENDBRANCH   3   7
BRANCH   5  10
ATOM     10  N   UNL     1       5.260  -1.346  25.593  0.00  0.00    +0.080 N 
ATOM     11  O   UNL     1       4.860  -0.189  25.406  0.00  0.00    +0.041 OA
ATOM     12  O   UNL     1       4.641  -2.210  26.225  0.00  0.00    -0.576 OA
ENDBRANCH   5  10
BRANCH   1  13
ATOM     13  C   UNL     1       9.786   0.059  23.855  0.00  0.00    +0.050 C 
ATOM     14  C   UNL     1      10.812   0.359  24.961  0.00  0.00    +0.017 C 
BRANCH  13  15
ATOM     15  C   UNL     1       9.127   1.352  23.383  0.00  0.00    -0.040 A 
ATOM     16  C   UNL     1       8.436   1.431  22.163  0.00  0.00    +0.005 A 
ATOM     17  C   UNL     1       7.804   2.617  21.780  0.00  0.00    +0.020 A 
ATOM     18  C   UNL     1       7.862   3.735  22.608  0.00  0.00    +0.041 A 
ATOM     19 CL   UNL     1       7.069   5.188  22.142  0.00  0.00    -0.084 Cl
ATOM     20  C   UNL     1       8.553   3.681  23.815  0.00  0.00    +0.020 A 
ATOM     21  C   UNL     1       9.185   2.496  24.199  0.00  0.00    +0.005 A 
ENDBRANCH  13  15
ENDBRANCH   1  13
BRANCH   2  22
ATOM     22  O   UNL     1      10.302  -2.661  23.430  0.00  0.00    -0.501 OA
ATOM     23  H   UNL     1      10.520  -2.030  22.711  0.00  0.00    +0.292 HD
ENDBRANCH   2  22
TORSDOF 5
ENDMDL
MODEL 7
REMARK VINA RESULT:      -6.0      4.521      6.926
REMARK  Name = 
REMARK  6 active torsions:
REMARK  status: ('A' for Active; 'I' for Inactive)
REMARK    1  A    between atoms: C_2  and  C_3
REMARK    2  A    between atoms: C_2  and  C_4
REMARK    3  A    between atoms: C_2  and  C_11
REMARK    4  A    between atoms: C_13  and  N_21
REMARK    5  A    between atoms: C_15  and  N_18
REMARK    6  A    between atoms: C_16  and  O_17
REMARK                            x       y       z     vdW  Elec       q    Type
REMARK                         _______ _______ _______ _____ _____    ______ ____
ROOT
ATOM      1  C   UNL     1       7.741  -3.159  24.569  0.00  0.00    +0.014 A 
ATOM      2  C   UNL     1       8.953  -2.469  24.343  0.00  0.00    +0.199 A 
ATOM      3  C   UNL     1       8.990  -1.058  24.372  0.00  0.00    +0.321 A 
ATOM      4  C   UNL     1       7.828  -0.318  24.632  0.00  0.00    +0.172 A 
ATOM      5  C   UNL     1       6.630  -0.999  24.864  0.00  0.00    +0.280 A 
ATOM      6  C   UNL     1       6.583  -2.401  24.839  0.00  0.00    +0.092 A 
ENDROOT
BRANCH   3   7
ATOM      7  N   UNL     1      10.240  -0.326  24.134  0.00  0.00    +0.084 N 
ATOM      8  O   UNL     1      10.743  -0.407  23.003  0.00  0.00    +0.042 OA
ATOM      9  O   UNL     1      10.717   0.330  25.068  0.00  0.00    -0.576 OA
ENDBRANCH   3   7
BRANCH   5  10
ATOM     10  N   UNL     1       5.399  -0.238  25.141  0.00  0.00    +0.080 N 
ATOM     11  O   UNL     1       4.531  -0.781  25.837  0.00  0.00    +0.041 OA
ATOM     12  O   UNL     1       5.304   0.896  24.656  0.00  0.00    -0.576 OA
ENDBRANCH   5  10
BRANCH   1  13
ATOM     13  C   UNL     1       7.701  -4.692  24.554  0.00  0.00    +0.050 C 
ATOM     14  C   UNL     1       7.342  -5.319  23.196  0.00  0.00    +0.017 C 
BRANCH  13  15
ATOM     15  C   UNL     1       6.811  -5.269  25.651  0.00  0.00    -0.040 A 
ATOM     16  C   UNL     1       5.597  -5.913  25.361  0.00  0.00    +0.005 A 
ATOM     17  C   UNL     1       4.826  -6.471  26.384  0.00  0.00    +0.020 A 
ATOM     18  C   UNL     1       5.258  -6.388  27.705  0.00  0.00    +0.041 A 
ATOM     19 CL   UNL     1       4.316  -7.092  28.960  0.00  0.00    -0.084 Cl
ATOM     20  C   UNL     1       6.452  -5.742  28.015  0.00  0.00    +0.020 A 
ATOM     21  C   UNL     1       7.222  -5.183  26.993  0.00  0.00    +0.005 A 
ENDBRANCH  13  15
ENDBRANCH   1  13
BRANCH   2  22
ATOM     22  O   UNL     1      10.054  -3.247  24.089  0.00  0.00    -0.501 OA
ATOM     23  H   UNL     1      10.629  -2.828  23.413  0.00  0.00    +0.292 HD
ENDBRANCH   2  22
TORSDOF 5
ENDMDL
MODEL 8
REMARK VINA RESULT:      -5.9      2.101      3.944
REMARK  Name = 
REMARK  6 active torsions:
REMARK  status: ('A' for Active; 'I' for Inactive)
REMARK    1  A    between atoms: C_2  and  C_3
REMARK    2  A    between atoms: C_2  and  C_4
REMARK    3  A    between atoms: C_2  and  C_11
REMARK    4  A    between atoms: C_13  and  N_21
REMARK    5  A    between atoms: C_15  and  N_18
REMARK    6  A    between atoms: C_16  and  O_17
REMARK                            x       y       z     vdW  Elec       q    Type
REMARK                         _______ _______ _______ _____ _____    ______ ____
ROOT
ATOM      1  C   UNL     1       7.530  -5.099  25.098  0.00  0.00    +0.014 A 
ATOM      2  C   UNL     1       7.066  -5.572  26.347  0.00  0.00    +0.199 A 
ATOM      3  C   UNL     1       5.731  -6.003  26.499  0.00  0.00    +0.321 A 
ATOM      4  C   UNL     1       4.844  -5.977  25.414  0.00  0.00    +0.172 A 
ATOM      5  C   UNL     1       5.303  -5.518  24.176  0.00  0.00    +0.280 A 
ATOM      6  C   UNL     1       6.629  -5.089  24.015  0.00  0.00    +0.092 A 
ENDROOT
BRANCH   3   7
ATOM      7  N   UNL     1       5.233  -6.491  27.790  0.00  0.00    +0.084 N 
ATOM      8  O   UNL     1       4.240  -5.923  28.271  0.00  0.00    +0.042 OA
ATOM      9  O   UNL     1       5.824  -7.439  28.321  0.00  0.00    -0.576 OA
ENDBRANCH   3   7
BRANCH   5  10
ATOM     10  N   UNL     1       4.385  -5.484  23.023  0.00  0.00    +0.080 N 
ATOM     11  O   UNL     1       3.193  -5.750  23.229  0.00  0.00    +0.041 OA
ATOM     12  O   UNL     1       4.861  -5.199  21.918  0.00  0.00    -0.576 OA
ENDBRANCH   5  10
BRANCH   1  13
ATOM     13  C   UNL     1       8.984  -4.645  24.927  0.00  0.00    +0.050 C 
ATOM     14  C   UNL     1       9.977  -5.251  25.934  0.00  0.00    +0.017 C 
BRANCH  13  15
ATOM     15  C   UNL     1       9.127  -3.126  24.896  0.00  0.00    -0.040 A 
ATOM     16  C   UNL     1       9.797  -2.464  23.855  0.00  0.00    +0.005 A 
ATOM     17  C   UNL     1       9.872  -1.069  23.831  0.00  0.00    +0.020 A 
ATOM     18  C   UNL     1       9.284  -0.323  24.849  0.00  0.00    +0.041 A 
ATOM     19 CL   UNL     1       9.363   1.395  24.809  0.00  0.00    -0.084 Cl
ATOM     20  C   UNL     1       8.627  -0.961  25.898  0.00  0.00    +0.020 A 
ATOM     21  C   UNL     1       8.552  -2.356  25.922  0.00  0.00    +0.005 A 
ENDBRANCH  13  15
ENDBRANCH   1  13
BRANCH   2  22
ATOM     22  O   UNL     1       7.978  -5.568  27.372  0.00  0.00    -0.501 OA
ATOM     23  H   UNL     1       8.333  -4.665  27.521  0.00  0.00    +0.292 HD
ENDBRANCH   2  22
TORSDOF 5
ENDMDL
MODEL 9
REMARK VINA RESULT:      -5.9      2.969      4.237
REMARK  Name = 
REMARK  6 active torsions:
REMARK  status: ('A' for Active; 'I' for Inactive)
REMARK    1  A    between atoms: C_2  and  C_3
REMARK    2  A    between atoms: C_2  and  C_4
REMARK    3  A    between atoms: C_2  and  C_11
REMARK    4  A    between atoms: C_13  and  N_21
REMARK    5  A    between atoms: C_15  and  N_18
REMARK    6  A    between atoms: C_16  and  O_17
REMARK                            x       y       z     vdW  Elec       q    Type
REMARK                         _______ _______ _______ _____ _____    ______ ____
ROOT
ATOM      1  C   UNL     1       7.386  -4.505  24.649  0.00  0.00    +0.014 A 
ATOM      2  C   UNL     1       7.170  -4.301  23.267  0.00  0.00    +0.199 A 
ATOM      3  C   UNL     1       6.130  -4.978  22.596  0.00  0.00    +0.321 A 
ATOM      4  C   UNL     1       5.288  -5.859  23.289  0.00  0.00    +0.172 A 
ATOM      5  C   UNL     1       5.494  -6.056  24.658  0.00  0.00    +0.280 A 
ATOM      6  C   UNL     1       6.525  -5.386  25.334  0.00  0.00    +0.092 A 
ENDROOT
BRANCH   3   7
ATOM      7  N   UNL     1       5.897  -4.781  21.161  0.00  0.00    +0.084 N 
ATOM      8  O   UNL     1       5.620  -3.633  20.779  0.00  0.00    +0.042 OA
ATOM      9  O   UNL     1       5.992  -5.763  20.416  0.00  0.00    -0.576 OA
ENDBRANCH   3   7
BRANCH   5  10
ATOM     10  N   UNL     1       4.618  -6.977  25.403  0.00  0.00    +0.080 N 
ATOM     11  O   UNL     1       4.721  -6.997  26.637  0.00  0.00    +0.041 OA
ATOM     12  O   UNL     1       3.836  -7.680  24.752  0.00  0.00    -0.576 OA
ENDBRANCH   5  10
BRANCH   1  13
ATOM     13  C   UNL     1       8.506  -3.758  25.383  0.00  0.00    +0.050 C 
ATOM     14  C   UNL     1       9.083  -4.492  26.606  0.00  0.00    +0.017 C 
BRANCH  13  15
ATOM     15  C   UNL     1       8.114  -2.333  25.762  0.00  0.00    -0.040 A 
ATOM     16  C   UNL     1       7.013  -2.061  26.591  0.00  0.00    +0.005 A 
ATOM     17  C   UNL     1       6.706  -0.748  26.957  0.00  0.00    +0.020 A 
ATOM     18  C   UNL     1       7.492   0.305  26.497  0.00  0.00    +0.041 A 
ATOM     19 CL   UNL     1       7.123   1.918  26.964  0.00  0.00    -0.084 Cl
ATOM     20  C   UNL     1       8.580   0.057  25.664  0.00  0.00    +0.020 A 
ATOM     21  C   UNL     1       8.887  -1.255  25.296  0.00  0.00    +0.005 A 
ENDBRANCH  13  15
ENDBRANCH   1  13
BRANCH   2  22
ATOM     22  O   UNL     1       8.030  -3.432  22.643  0.00  0.00    -0.501 OA
ATOM     23  H   UNL     1       8.314  -2.721  23.256  0.00  0.00    +0.292 HD
ENDBRANCH   2  22
TORSDOF 5
ENDMDL
