MODEL 1
REMARK VINA RESULT:      -6.5      0.000      0.000
REMARK  Name = 
REMARK  10 active torsions:
REMARK  status: ('A' for Active; 'I' for Inactive)
REMARK    1  A    between atoms: C_1  and  C_2
REMARK    2  A    between atoms: C_2  and  N_3
REMARK    3  A    between atoms: N_3  and  C_4
REMARK    4  A    between atoms: N_3  and  S_6
REMARK    5  A    between atoms: C_4  and  C_5
REMARK    6  A    between atoms: S_6  and  C_9
REMARK    7  A    between atoms: C_11  and  C_16
REMARK    8  A    between atoms: N_18  and  C_19
REMARK    9  A    between atoms: C_24  and  C_25
REMARK   10  A    between atoms: C_25  and  O_26
REMARK                            x       y       z     vdW  Elec       q    Type
REMARK                         _______ _______ _______ _____ _____    ______ ____
ROOT
ATOM      1  C   UNL     1       8.986   2.495  24.668  0.00  0.00    +0.120 A 
ATOM      2  C   UNL     1      10.268   2.328  24.132  0.00  0.00    +0.044 A 
ATOM      3 BR   UNL     1      11.354   3.675  23.353  0.00  0.00    -0.048 Br
ATOM      4  C   UNL     1      10.856   1.059  24.164  0.00  0.00    +0.018 A 
ATOM      5  C   UNL     1      10.175  -0.024  24.715  0.00  0.00    +0.014 A 
ATOM      6  C   UNL     1       8.890   0.128  25.247  0.00  0.00    +0.039 A 
ATOM      7  C   UNL     1       8.291   1.390  25.221  0.00  0.00    +0.042 A 
ENDROOT
BRANCH   6   8
ATOM      8  C   UNL     1       8.237  -1.102  25.764  0.00  0.00    +0.248 C 
ATOM      9  N   UNL     1       7.833  -2.070  24.859  0.00  0.00    -0.281 N 
ATOM     10  H   UNL     1       8.125  -2.001  23.882  0.00  0.00    +0.155 HD
ATOM     11  O   UNL     1       8.101  -1.176  26.983  0.00  0.00    -0.270 OA
BRANCH   9  12
ATOM     12  C   UNL     1       7.068  -3.227  25.185  0.00  0.00    +0.048 A 
ATOM     13  C   UNL     1       7.700  -4.443  25.526  0.00  0.00    +0.080 A 
ATOM     14  C   UNL     1       6.928  -5.583  25.825  0.00  0.00    +0.017 A 
ATOM     15  C   UNL     1       5.535  -5.514  25.827  0.00  0.00    +0.001 A 
ATOM     16  C   UNL     1       4.906  -4.325  25.485  0.00  0.00    +0.002 A 
ATOM     17  C   UNL     1       5.666  -3.203  25.150  0.00  0.00    +0.024 A 
BRANCH  13  18
ATOM     18  C   UNL     1       9.185  -4.522  25.565  0.00  0.00    +0.339 C 
ATOM     19  O   UNL     1       9.881  -4.236  24.601  0.00  0.00    -0.245 OA
BRANCH  18  20
ATOM     20  O   UNL     1       9.704  -4.886  26.757  0.00  0.00    -0.477 OA
ATOM     21  H   UNL     1       9.335  -5.699  27.150  0.00  0.00    +0.295 HD
ENDBRANCH  18  20
ENDBRANCH  13  18
ENDBRANCH   9  12
ENDBRANCH   6   8
BRANCH   1  22
ATOM     22  S   UNL     1       8.109   4.043  24.717  0.00  0.00    +0.062 S 
ATOM     23  O   UNL     1       6.743   3.860  25.151  0.00  0.00    -0.153 OA
ATOM     24  O   UNL     1       8.974   4.984  25.395  0.00  0.00    -0.153 OA
BRANCH  22  25
ATOM     25  N   UNL     1       8.052   4.475  23.050  0.00  0.00    -0.177 NA
BRANCH  25  27
ATOM     26  C   UNL     1       7.488   2.502  21.594  0.00  0.00    +0.022 C 
ATOM     27  C   UNL     1       6.990   3.769  22.268  0.00  0.00    +0.106 C 
ENDBRANCH  25  27
BRANCH  25  28
ATOM     28  C   UNL     1       8.146   5.949  22.814  0.00  0.00    +0.106 C 
ATOM     29  C   UNL     1       7.092   6.479  21.856  0.00  0.00    +0.022 C 
ENDBRANCH  25  28
ENDBRANCH  22  25
ENDBRANCH   1  22
TORSDOF 8
ENDMDL
MODEL 2
REMARK VINA RESULT:      -6.5      3.906      8.368
REMARK  Name = 
REMARK  10 active torsions:
REMARK  status: ('A' for Active; 'I' for Inactive)
REMARK    1  A    between atoms: C_1  and  C_2
REMARK    2  A    between atoms: C_2  and  N_3
REMARK    3  A    between atoms: N_3  and  C_4
REMARK    4  A    between atoms: N_3  and  S_6
REMARK    5  A    between atoms: C_4  and  C_5
REMARK    6  A    between atoms: S_6  and  C_9
REMARK    7  A    between atoms: C_11  and  C_16
REMARK    8  A    between atoms: N_18  and  C_19
REMARK    9  A    between atoms: C_24  and  C_25
REMARK   10  A    between atoms: C_25  and  O_26
REMARK                            x       y       z     vdW  Elec       q    Type
REMARK                         _______ _______ _______ _____ _____    ______ ____
ROOT
ATOM      1  C   UNL     1       5.788  -3.539  23.310  0.00  0.00    +0.120 A 
ATOM      2  C   UNL     1       6.869  -4.072  22.599  0.00  0.00    +0.044 A 
ATOM      3 BR   UNL     1       7.104  -5.883  22.086  0.00  0.00    -0.048 Br
ATOM      4  C   UNL     1       7.900  -3.219  22.192  0.00  0.00    +0.018 A 
ATOM      5  C   UNL     1       7.856  -1.860  22.495  0.00  0.00    +0.014 A 
ATOM      6  C   UNL     1       6.784  -1.315  23.211  0.00  0.00    +0.039 A 
ATOM      7  C   UNL     1       5.748  -2.157  23.623  0.00  0.00    +0.042 A 
ENDROOT
BRANCH   6   8
ATOM      8  C   UNL     1       6.863   0.136  23.520  0.00  0.00    +0.248 C 
ATOM      9  N   UNL     1       7.644   0.946  22.711  0.00  0.00    -0.281 N 
ATOM     10  H   UNL     1       8.020   0.573  21.837  0.00  0.00    +0.155 HD
ATOM     11  O   UNL     1       6.215   0.522  24.490  0.00  0.00    -0.270 OA
BRANCH   9  12
ATOM     12  C   UNL     1       7.935   2.318  22.964  0.00  0.00    +0.048 A 
ATOM     13  C   UNL     1       8.981   2.688  23.839  0.00  0.00    +0.080 A 
ATOM     14  C   UNL     1       9.241   4.049  24.093  0.00  0.00    +0.017 A 
ATOM     15  C   UNL     1       8.500   5.043  23.456  0.00  0.00    +0.001 A 
ATOM     16  C   UNL     1       7.466   4.687  22.602  0.00  0.00    +0.002 A 
ATOM     17  C   UNL     1       7.178   3.340  22.375  0.00  0.00    +0.024 A 
BRANCH  13  18
ATOM     18  C   UNL     1       9.805   1.639  24.497  0.00  0.00    +0.339 C 
ATOM     19  O   UNL     1      10.958   1.409  24.165  0.00  0.00    -0.245 OA
BRANCH  18  20
ATOM     20  O   UNL     1       9.198   0.998  25.519  0.00  0.00    -0.477 OA
ATOM     21  H   UNL     1       8.534   0.330  25.265  0.00  0.00    +0.295 HD
ENDBRANCH  18  20
ENDBRANCH  13  18
ENDBRANCH   9  12
ENDBRANCH   6   8
BRANCH   1  22
ATOM     22  S   UNL     1       4.395  -4.486  23.883  0.00  0.00    +0.062 S 
ATOM     23  O   UNL     1       3.590  -3.728  24.813  0.00  0.00    -0.153 OA
ATOM     24  O   UNL     1       3.793  -5.083  22.711  0.00  0.00    -0.153 OA
BRANCH  22  25
ATOM     25  N   UNL     1       5.161  -5.738  24.787  0.00  0.00    -0.177 NA
BRANCH  25  27
ATOM     26  C   UNL     1       7.231  -5.343  26.161  0.00  0.00    +0.022 C 
ATOM     27  C   UNL     1       5.714  -5.294  26.104  0.00  0.00    +0.106 C 
ENDBRANCH  25  27
BRANCH  25  28
ATOM     28  C   UNL     1       4.379  -7.012  24.819  0.00  0.00    +0.106 C 
ATOM     29  C   UNL     1       3.383  -7.085  25.964  0.00  0.00    +0.022 C 
ENDBRANCH  25  28
ENDBRANCH  22  25
ENDBRANCH   1  22
TORSDOF 8
ENDMDL
MODEL 3
REMARK VINA RESULT:      -6.5      3.129      8.376
REMARK  Name = 
REMARK  10 active torsions:
REMARK  status: ('A' for Active; 'I' for Inactive)
REMARK    1  A    between atoms: C_1  and  C_2
REMARK    2  A    between atoms: C_2  and  N_3
REMARK    3  A    between atoms: N_3  and  C_4
REMARK    4  A    between atoms: N_3  and  S_6
REMARK    5  A    between atoms: C_4  and  C_5
REMARK    6  A    between atoms: S_6  and  C_9
REMARK    7  A    between atoms: C_11  and  C_16
REMARK    8  A    between atoms: N_18  and  C_19
REMARK    9  A    between atoms: C_24  and  C_25
REMARK   10  A    between atoms: C_25  and  O_26
REMARK                            x       y       z     vdW  Elec       q    Type
REMARK                         _______ _______ _______ _____ _____    ______ ____
ROOT
ATOM      1  C   UNL     1       7.691  -2.178  24.360  0.00  0.00    +0.120 A 
ATOM      2  C   UNL     1       7.899  -2.705  23.079  0.00  0.00    +0.044 A 
ATOM      3 BR   UNL     1       7.162  -4.306  22.378  0.00  0.00    -0.048 Br
ATOM      4  C   UNL     1       8.717  -2.006  22.185  0.00  0.00    +0.018 A 
ATOM      5  C   UNL     1       9.321  -0.809  22.563  0.00  0.00    +0.014 A 
ATOM      6  C   UNL     1       9.126  -0.276  23.842  0.00  0.00    +0.039 A 
ATOM      7  C   UNL     1       8.311  -0.964  24.745  0.00  0.00    +0.042 A 
ENDROOT
BRANCH   6   8
ATOM      8  C   UNL     1       9.855   0.980  24.155  0.00  0.00    +0.248 C 
ATOM      9  N   UNL     1       9.388   2.170  23.621  0.00  0.00    -0.281 N 
ATOM     10  H   UNL     1       8.476   2.192  23.159  0.00  0.00    +0.155 HD
ATOM     11  O   UNL     1      10.840   0.871  24.882  0.00  0.00    -0.270 OA
BRANCH   9  12
ATOM     12  C   UNL     1      10.058   3.425  23.708  0.00  0.00    +0.048 A 
ATOM     13  C   UNL     1       9.416   4.553  24.266  0.00  0.00    +0.080 A 
ATOM     14  C   UNL     1      10.086   5.790  24.324  0.00  0.00    +0.017 A 
ATOM     15  C   UNL     1      11.400   5.907  23.871  0.00  0.00    +0.001 A 
ATOM     16  C   UNL     1      12.034   4.805  23.314  0.00  0.00    +0.002 A 
ATOM     17  C   UNL     1      11.362   3.585  23.218  0.00  0.00    +0.024 A 
BRANCH  13  18
ATOM     18  C   UNL     1       8.028   4.435  24.787  0.00  0.00    +0.339 C 
ATOM     19  O   UNL     1       7.087   5.030  24.283  0.00  0.00    -0.245 OA
BRANCH  18  20
ATOM     20  O   UNL     1       7.882   3.584  25.825  0.00  0.00    -0.477 OA
ATOM     21  H   UNL     1       8.093   3.948  26.705  0.00  0.00    +0.295 HD
ENDBRANCH  18  20
ENDBRANCH  13  18
ENDBRANCH   9  12
ENDBRANCH   6   8
BRANCH   1  22
ATOM     22  S   UNL     1       6.669  -2.937  25.604  0.00  0.00    +0.062 S 
ATOM     23  O   UNL     1       6.811  -2.270  26.878  0.00  0.00    -0.153 OA
ATOM     24  O   UNL     1       5.362  -3.114  25.011  0.00  0.00    -0.153 OA
BRANCH  22  25
ATOM     25  N   UNL     1       7.397  -4.490  25.768  0.00  0.00    -0.177 NA
BRANCH  25  27
ATOM     26  C   UNL     1       9.850  -4.980  25.502  0.00  0.00    +0.022 C 
ATOM     27  C   UNL     1       8.745  -4.472  26.413  0.00  0.00    +0.106 C 
ENDBRANCH  25  27
BRANCH  25  28
ATOM     28  C   UNL     1       6.458  -5.535  26.279  0.00  0.00    +0.106 C 
ATOM     29  C   UNL     1       6.407  -5.617  27.795  0.00  0.00    +0.022 C 
ENDBRANCH  25  28
ENDBRANCH  22  25
ENDBRANCH   1  22
TORSDOF 8
ENDMDL
MODEL 4
REMARK VINA RESULT:      -6.4      2.542      3.257
REMARK  Name = 
REMARK  10 active torsions:
REMARK  status: ('A' for Active; 'I' for Inactive)
REMARK    1  A    between atoms: C_1  and  C_2
REMARK    2  A    between atoms: C_2  and  N_3
REMARK    3  A    between atoms: N_3  and  C_4
REMARK    4  A    between atoms: N_3  and  S_6
REMARK    5  A    between atoms: C_4  and  C_5
REMARK    6  A    between atoms: S_6  and  C_9
REMARK    7  A    between atoms: C_11  and  C_16
REMARK    8  A    between atoms: N_18  and  C_19
REMARK    9  A    between atoms: C_24  and  C_25
REMARK   10  A    between atoms: C_25  and  O_26
REMARK                            x       y       z     vdW  Elec       q    Type
REMARK                         _______ _______ _______ _____ _____    ______ ____
ROOT
ATOM      1  C   UNL     1       8.177   2.909  22.907  0.00  0.00    +0.120 A 
ATOM      2  C   UNL     1       9.454   3.220  23.389  0.00  0.00    +0.044 A 
ATOM      3 BR   UNL     1      10.080   4.931  23.917  0.00  0.00    -0.048 Br
ATOM      4  C   UNL     1      10.396   2.194  23.524  0.00  0.00    +0.018 A 
ATOM      5  C   UNL     1      10.071   0.884  23.179  0.00  0.00    +0.014 A 
ATOM      6  C   UNL     1       8.800   0.561  22.690  0.00  0.00    +0.039 A 
ATOM      7  C   UNL     1       7.851   1.577  22.550  0.00  0.00    +0.042 A 
ENDROOT
BRANCH   6   8
ATOM      8  C   UNL     1       8.578  -0.857  22.308  0.00  0.00    +0.248 C 
ATOM      9  N   UNL     1       7.534  -1.549  22.902  0.00  0.00    -0.281 N 
ATOM     10  H   UNL     1       6.847  -1.042  23.464  0.00  0.00    +0.155 HD
ATOM     11  O   UNL     1       9.350  -1.324  21.474  0.00  0.00    -0.270 OA
BRANCH   9  12
ATOM     12  C   UNL     1       7.287  -2.944  22.751  0.00  0.00    +0.048 A 
ATOM     13  C   UNL     1       8.006  -3.895  23.510  0.00  0.00    +0.080 A 
ATOM     14  C   UNL     1       7.763  -5.271  23.333  0.00  0.00    +0.017 A 
ATOM     15  C   UNL     1       6.785  -5.708  22.439  0.00  0.00    +0.001 A 
ATOM     16  C   UNL     1       6.081  -4.781  21.685  0.00  0.00    +0.002 A 
ATOM     17  C   UNL     1       6.344  -3.418  21.828  0.00  0.00    +0.024 A 
BRANCH  13  18
ATOM     18  C   UNL     1       9.025  -3.442  24.494  0.00  0.00    +0.339 C 
ATOM     19  O   UNL     1       8.813  -3.431  25.697  0.00  0.00    -0.245 OA
BRANCH  18  20
ATOM     20  O   UNL     1      10.215  -3.093  23.959  0.00  0.00    -0.477 OA
ATOM     21  H   UNL     1      10.467  -2.156  24.061  0.00  0.00    +0.295 HD
ENDBRANCH  18  20
ENDBRANCH  13  18
ENDBRANCH   9  12
ENDBRANCH   6   8
BRANCH   1  22
ATOM     22  S   UNL     1       6.867   4.094  22.692  0.00  0.00    +0.062 S 
ATOM     23  O   UNL     1       7.305   5.223  21.903  0.00  0.00    -0.153 OA
ATOM     24  O   UNL     1       5.692   3.343  22.308  0.00  0.00    -0.153 OA
BRANCH  22  25
ATOM     25  N   UNL     1       6.634   4.667  24.300  0.00  0.00    -0.177 NA
BRANCH  25  27
ATOM     26  C   UNL     1       6.570   7.040  25.133  0.00  0.00    +0.022 C 
ATOM     27  C   UNL     1       5.841   5.931  24.393  0.00  0.00    +0.106 C 
ENDBRANCH  25  27
BRANCH  25  28
ATOM     28  C   UNL     1       6.239   3.593  25.262  0.00  0.00    +0.106 C 
ATOM     29  C   UNL     1       7.225   3.408  26.404  0.00  0.00    +0.022 C 
ENDBRANCH  25  28
ENDBRANCH  22  25
ENDBRANCH   1  22
TORSDOF 8
ENDMDL
MODEL 5
REMARK VINA RESULT:      -6.4      3.620      8.187
REMARK  Name = 
REMARK  10 active torsions:
REMARK  status: ('A' for Active; 'I' for Inactive)
REMARK    1  A    between atoms: C_1  and  C_2
REMARK    2  A    between atoms: C_2  and  N_3
REMARK    3  A    between atoms: N_3  and  C_4
REMARK    4  A    between atoms: N_3  and  S_6
REMARK    5  A    between atoms: C_4  and  C_5
REMARK    6  A    between atoms: S_6  and  C_9
REMARK    7  A    between atoms: C_11  and  C_16
REMARK    8  A    between atoms: N_18  and  C_19
REMARK    9  A    between atoms: C_24  and  C_25
REMARK   10  A    between atoms: C_25  and  O_26
REMARK                            x       y       z     vdW  Elec       q    Type
REMARK                         _______ _______ _______ _____ _____    ______ ____
ROOT
ATOM      1  C   UNL     1       7.703  -3.114  22.987  0.00  0.00    +0.120 A 
ATOM      2  C   UNL     1       8.573  -3.719  23.902  0.00  0.00    +0.044 A 
ATOM      3 BR   UNL     1       8.541  -5.530  24.467  0.00  0.00    -0.048 Br
ATOM      4  C   UNL     1       9.594  -2.954  24.475  0.00  0.00    +0.018 A 
ATOM      5  C   UNL     1       9.741  -1.609  24.145  0.00  0.00    +0.014 A 
ATOM      6  C   UNL     1       8.875  -0.990  23.238  0.00  0.00    +0.039 A 
ATOM      7  C   UNL     1       7.850  -1.743  22.659  0.00  0.00    +0.042 A 
ENDROOT
BRANCH   6   8
ATOM      8  C   UNL     1       9.093   0.460  22.997  0.00  0.00    +0.248 C 
ATOM      9  N   UNL     1       9.799   1.191  23.938  0.00  0.00    -0.281 N 
ATOM     10  H   UNL     1      10.288   0.704  24.693  0.00  0.00    +0.155 HD
ATOM     11  O   UNL     1       8.624   0.916  21.956  0.00  0.00    -0.270 OA
BRANCH   9  12
ATOM     12  C   UNL     1       9.962   2.606  23.922  0.00  0.00    +0.048 A 
ATOM     13  C   UNL     1       8.968   3.458  24.453  0.00  0.00    +0.080 A 
ATOM     14  C   UNL     1       9.136   4.855  24.409  0.00  0.00    +0.017 A 
ATOM     15  C   UNL     1      10.300   5.412  23.880  0.00  0.00    +0.001 A 
ATOM     16  C   UNL     1      11.277   4.583  23.348  0.00  0.00    +0.002 A 
ATOM     17  C   UNL     1      11.099   3.199  23.354  0.00  0.00    +0.024 A 
BRANCH  13  18
ATOM     18  C   UNL     1       7.738   2.877  25.055  0.00  0.00    +0.339 C 
ATOM     19  O   UNL     1       6.627   3.059  24.578  0.00  0.00    -0.245 OA
BRANCH  18  20
ATOM     20  O   UNL     1       7.949   2.095  26.136  0.00  0.00    -0.477 OA
ATOM     21  H   UNL     1       8.806   1.632  26.163  0.00  0.00    +0.295 HD
ENDBRANCH  18  20
ENDBRANCH  13  18
ENDBRANCH   9  12
ENDBRANCH   6   8
BRANCH   1  22
ATOM     22  S   UNL     1       6.367  -3.951  22.163  0.00  0.00    +0.062 S 
ATOM     23  O   UNL     1       5.532  -3.022  21.437  0.00  0.00    -0.153 OA
ATOM     24  O   UNL     1       6.949  -5.093  21.492  0.00  0.00    -0.153 OA
BRANCH  22  25
ATOM     25  N   UNL     1       5.434  -4.530  23.492  0.00  0.00    -0.177 NA
BRANCH  25  27
ATOM     26  C   UNL     1       5.241  -3.324  25.690  0.00  0.00    +0.022 C 
ATOM     27  C   UNL     1       4.734  -3.459  24.264  0.00  0.00    +0.106 C 
ENDBRANCH  25  27
BRANCH  25  28
ATOM     28  C   UNL     1       4.600  -5.725  23.156  0.00  0.00    +0.106 C 
ATOM     29  C   UNL     1       4.617  -6.799  24.230  0.00  0.00    +0.022 C 
ENDBRANCH  25  28
ENDBRANCH  22  25
ENDBRANCH   1  22
TORSDOF 8
ENDMDL
MODEL 6
REMARK VINA RESULT:      -6.4      3.192      8.191
REMARK  Name = 
REMARK  10 active torsions:
REMARK  status: ('A' for Active; 'I' for Inactive)
REMARK    1  A    between atoms: C_1  and  C_2
REMARK    2  A    between atoms: C_2  and  N_3
REMARK    3  A    between atoms: N_3  and  C_4
REMARK    4  A    between atoms: N_3  and  S_6
REMARK    5  A    between atoms: C_4  and  C_5
REMARK    6  A    between atoms: S_6  and  C_9
REMARK    7  A    between atoms: C_11  and  C_16
REMARK    8  A    between atoms: N_18  and  C_19
REMARK    9  A    between atoms: C_24  and  C_25
REMARK   10  A    between atoms: C_25  and  O_26
REMARK                            x       y       z     vdW  Elec       q    Type
REMARK                         _______ _______ _______ _____ _____    ______ ____
ROOT
ATOM      1  C   UNL     1       8.224  -3.264  24.559  0.00  0.00    +0.120 A 
ATOM      2  C   UNL     1       7.918  -3.485  23.210  0.00  0.00    +0.044 A 
ATOM      3 BR   UNL     1       7.191  -5.067  22.458  0.00  0.00    -0.048 Br
ATOM      4  C   UNL     1       8.144  -2.458  22.287  0.00  0.00    +0.018 A 
ATOM      5  C   UNL     1       8.670  -1.237  22.701  0.00  0.00    +0.014 A 
ATOM      6  C   UNL     1       8.986  -1.005  24.045  0.00  0.00    +0.039 A 
ATOM      7  C   UNL     1       8.766  -2.023  24.976  0.00  0.00    +0.042 A 
ENDROOT
BRANCH   6   8
ATOM      8  C   UNL     1       9.586   0.315  24.367  0.00  0.00    +0.248 C 
ATOM      9  N   UNL     1       9.072   1.445  23.752  0.00  0.00    -0.281 N 
ATOM     10  H   UNL     1       8.203   1.379  23.218  0.00  0.00    +0.155 HD
ATOM     11  O   UNL     1      10.513   0.310  25.173  0.00  0.00    -0.270 OA
BRANCH   9  12
ATOM     12  C   UNL     1       9.632   2.753  23.844  0.00  0.00    +0.048 A 
ATOM     13  C   UNL     1       8.965   3.779  24.549  0.00  0.00    +0.080 A 
ATOM     14  C   UNL     1       9.522   5.071  24.612  0.00  0.00    +0.017 A 
ATOM     15  C   UNL     1      10.754   5.341  24.016  0.00  0.00    +0.001 A 
ATOM     16  C   UNL     1      11.411   4.340  23.315  0.00  0.00    +0.002 A 
ATOM     17  C   UNL     1      10.845   3.068  23.216  0.00  0.00    +0.024 A 
BRANCH  13  18
ATOM     18  C   UNL     1       7.668   3.497  25.221  0.00  0.00    +0.339 C 
ATOM     19  O   UNL     1       6.611   3.968  24.828  0.00  0.00    -0.245 OA
BRANCH  18  20
ATOM     20  O   UNL     1       7.744   2.645  26.265  0.00  0.00    -0.477 OA
ATOM     21  H   UNL     1       6.902   2.239  26.543  0.00  0.00    +0.295 HD
ENDBRANCH  18  20
ENDBRANCH  13  18
ENDBRANCH   9  12
ENDBRANCH   6   8
BRANCH   1  22
ATOM     22  S   UNL     1       7.982  -4.460  25.854  0.00  0.00    +0.062 S 
ATOM     23  O   UNL     1       8.638  -5.710  25.544  0.00  0.00    -0.153 OA
ATOM     24  O   UNL     1       8.257  -3.778  27.100  0.00  0.00    -0.153 OA
BRANCH  22  25
ATOM     25  N   UNL     1       6.286  -4.749  25.764  0.00  0.00    -0.177 NA
BRANCH  25  27
ATOM     26  C   UNL     1       4.749  -6.737  25.653  0.00  0.00    +0.022 C 
ATOM     27  C   UNL     1       5.842  -6.015  26.423  0.00  0.00    +0.106 C 
ENDBRANCH  25  27
BRANCH  25  28
ATOM     28  C   UNL     1       5.460  -3.541  26.078  0.00  0.00    +0.106 C 
ATOM     29  C   UNL     1       4.593  -3.081  24.918  0.00  0.00    +0.022 C 
ENDBRANCH  25  28
ENDBRANCH  22  25
ENDBRANCH   1  22
TORSDOF 8
ENDMDL
MODEL 7
REMARK VINA RESULT:      -6.2      4.582      8.586
REMARK  Name = 
REMARK  10 active torsions:
REMARK  status: ('A' for Active; 'I' for Inactive)
REMARK    1  A    between atoms: C_1  and  C_2
REMARK    2  A    between atoms: C_2  and  N_3
REMARK    3  A    between atoms: N_3  and  C_4
REMARK    4  A    between atoms: N_3  and  S_6
REMARK    5  A    between atoms: C_4  and  C_5
REMARK    6  A    between atoms: S_6  and  C_9
REMARK    7  A    between atoms: C_11  and  C_16
REMARK    8  A    between atoms: N_18  and  C_19
REMARK    9  A    between atoms: C_24  and  C_25
REMARK   10  A    between atoms: C_25  and  O_26
REMARK                            x       y       z     vdW  Elec       q    Type
REMARK                         _______ _______ _______ _____ _____    ______ ____
ROOT
ATOM      1  C   UNL     1       5.250  -5.030  25.844  0.00  0.00    +0.120 A 
ATOM      2  C   UNL     1       4.377  -5.560  24.886  0.00  0.00    +0.044 A 
ATOM      3 BR   UNL     1       3.255  -7.076  25.092  0.00  0.00    -0.048 Br
ATOM      4  C   UNL     1       4.278  -4.933  23.640  0.00  0.00    +0.018 A 
ATOM      5  C   UNL     1       5.040  -3.803  23.352  0.00  0.00    +0.014 A 
ATOM      6  C   UNL     1       5.921  -3.268  24.298  0.00  0.00    +0.039 A 
ATOM      7  C   UNL     1       6.030  -3.885  25.547  0.00  0.00    +0.042 A 
ENDROOT
BRANCH   6   8
ATOM      8  C   UNL     1       6.719  -2.091  23.868  0.00  0.00    +0.248 C 
ATOM      9  N   UNL     1       7.784  -1.687  24.657  0.00  0.00    -0.281 N 
ATOM     10  H   UNL     1       8.099  -2.284  25.424  0.00  0.00    +0.155 HD
ATOM     11  O   UNL     1       6.372  -1.550  22.821  0.00  0.00    -0.270 OA
BRANCH   9  12
ATOM     12  C   UNL     1       8.546  -0.499  24.458  0.00  0.00    +0.048 A 
ATOM     13  C   UNL     1       9.713  -0.510  23.664  0.00  0.00    +0.080 A 
ATOM     14  C   UNL     1      10.466   0.669  23.494  0.00  0.00    +0.017 A 
ATOM     15  C   UNL     1      10.046   1.866  24.074  0.00  0.00    +0.001 A 
ATOM     16  C   UNL     1       8.904   1.883  24.862  0.00  0.00    +0.002 A 
ATOM     17  C   UNL     1       8.175   0.710  25.065  0.00  0.00    +0.024 A 
BRANCH  13  18
ATOM     18  C   UNL     1      10.154  -1.771  23.009  0.00  0.00    +0.339 C 
ATOM     19  O   UNL     1      10.331  -2.806  23.634  0.00  0.00    -0.245 OA
BRANCH  18  20
ATOM     20  O   UNL     1      10.293  -1.697  21.668  0.00  0.00    -0.477 OA
ATOM     21  H   UNL     1       9.505  -1.400  21.176  0.00  0.00    +0.295 HD
ENDBRANCH  18  20
ENDBRANCH  13  18
ENDBRANCH   9  12
ENDBRANCH   6   8
BRANCH   1  22
ATOM     22  S   UNL     1       5.480  -5.701  27.476  0.00  0.00    +0.062 S 
ATOM     23  O   UNL     1       5.669  -7.133  27.434  0.00  0.00    -0.153 OA
ATOM     24  O   UNL     1       6.448  -4.853  28.137  0.00  0.00    -0.153 OA
BRANCH  22  25
ATOM     25  N   UNL     1       3.941  -5.420  28.199  0.00  0.00    -0.177 NA
BRANCH  25  27
ATOM     26  C   UNL     1       2.574  -7.276  29.205  0.00  0.00    +0.022 C 
ATOM     27  C   UNL     1       3.672  -6.248  29.414  0.00  0.00    +0.106 C 
ENDBRANCH  25  27
BRANCH  25  28
ATOM     28  C   UNL     1       3.600  -3.969  28.326  0.00  0.00    +0.106 C 
ATOM     29  C   UNL     1       2.355  -3.568  27.553  0.00  0.00    +0.022 C 
ENDBRANCH  25  28
ENDBRANCH  22  25
ENDBRANCH   1  22
TORSDOF 8
ENDMDL
MODEL 8
REMARK VINA RESULT:      -6.2      4.388      8.807
REMARK  Name = 
REMARK  10 active torsions:
REMARK  status: ('A' for Active; 'I' for Inactive)
REMARK    1  A    between atoms: C_1  and  C_2
REMARK    2  A    between atoms: C_2  and  N_3
REMARK    3  A    between atoms: N_3  and  C_4
REMARK    4  A    between atoms: N_3  and  S_6
REMARK    5  A    between atoms: C_4  and  C_5
REMARK    6  A    between atoms: S_6  and  C_9
REMARK    7  A    between atoms: C_11  and  C_16
REMARK    8  A    between atoms: N_18  and  C_19
REMARK    9  A    between atoms: C_24  and  C_25
REMARK   10  A    between atoms: C_25  and  O_26
REMARK                            x       y       z     vdW  Elec       q    Type
REMARK                         _______ _______ _______ _____ _____    ______ ____
ROOT
ATOM      1  C   UNL     1       5.704  -5.689  26.300  0.00  0.00    +0.120 A 
ATOM      2  C   UNL     1       4.906  -6.239  25.289  0.00  0.00    +0.044 A 
ATOM      3 BR   UNL     1       3.515  -7.509  25.510  0.00  0.00    -0.048 Br
ATOM      4  C   UNL     1       5.111  -5.830  23.967  0.00  0.00    +0.018 A 
ATOM      5  C   UNL     1       6.096  -4.896  23.659  0.00  0.00    +0.014 A 
ATOM      6  C   UNL     1       6.905  -4.343  24.658  0.00  0.00    +0.039 A 
ATOM      7  C   UNL     1       6.711  -4.743  25.983  0.00  0.00    +0.042 A 
ENDROOT
BRANCH   6   8
ATOM      8  C   UNL     1       7.955  -3.393  24.211  0.00  0.00    +0.248 C 
ATOM      9  N   UNL     1       7.612  -2.065  24.022  0.00  0.00    -0.281 N 
ATOM     10  H   UNL     1       6.700  -1.729  24.338  0.00  0.00    +0.155 HD
ATOM     11  O   UNL     1       9.078  -3.863  24.039  0.00  0.00    -0.270 OA
BRANCH   9  12
ATOM     12  C   UNL     1       8.465  -1.071  23.459  0.00  0.00    +0.048 A 
ATOM     13  C   UNL     1       9.025  -0.054  24.264  0.00  0.00    +0.080 A 
ATOM     14  C   UNL     1       9.849   0.932  23.686  0.00  0.00    +0.017 A 
ATOM     15  C   UNL     1      10.152   0.893  22.326  0.00  0.00    +0.001 A 
ATOM     16  C   UNL     1       9.599  -0.098  21.527  0.00  0.00    +0.002 A 
ATOM     17  C   UNL     1       8.752  -1.056  22.086  0.00  0.00    +0.024 A 
BRANCH  13  18
ATOM     18  C   UNL     1       8.740  -0.022  25.723  0.00  0.00    +0.339 C 
ATOM     19  O   UNL     1       9.016  -0.953  26.465  0.00  0.00    -0.245 OA
BRANCH  18  20
ATOM     20  O   UNL     1       8.200   1.133  26.171  0.00  0.00    -0.477 OA
ATOM     21  H   UNL     1       8.362   1.919  25.617  0.00  0.00    +0.295 HD
ENDBRANCH  18  20
ENDBRANCH  13  18
ENDBRANCH   9  12
ENDBRANCH   6   8
BRANCH   1  22
ATOM     22  S   UNL     1       5.560  -6.092  28.027  0.00  0.00    +0.062 S 
ATOM     23  O   UNL     1       5.688  -7.515  28.247  0.00  0.00    -0.153 OA
ATOM     24  O   UNL     1       6.408  -5.161  28.739  0.00  0.00    -0.153 OA
BRANCH  22  25
ATOM     25  N   UNL     1       3.919  -5.680  28.356  0.00  0.00    -0.177 NA
BRANCH  25  27
ATOM     26  C   UNL     1       2.252  -7.292  29.329  0.00  0.00    +0.022 C 
ATOM     27  C   UNL     1       3.368  -6.298  29.601  0.00  0.00    +0.106 C 
ENDBRANCH  25  27
BRANCH  25  28
ATOM     28  C   UNL     1       3.626  -4.223  28.181  0.00  0.00    +0.106 C 
ATOM     29  C   UNL     1       2.516  -3.943  27.183  0.00  0.00    +0.022 C 
ENDBRANCH  25  28
ENDBRANCH  22  25
ENDBRANCH   1  22
TORSDOF 8
ENDMDL
MODEL 9
REMARK VINA RESULT:      -6.2      2.577      3.554
REMARK  Name = 
REMARK  10 active torsions:
REMARK  status: ('A' for Active; 'I' for Inactive)
REMARK    1  A    between atoms: C_1  and  C_2
REMARK    2  A    between atoms: C_2  and  N_3
REMARK    3  A    between atoms: N_3  and  C_4
REMARK    4  A    between atoms: N_3  and  S_6
REMARK    5  A    between atoms: C_4  and  C_5
REMARK    6  A    between atoms: S_6  and  C_9
REMARK    7  A    between atoms: C_11  and  C_16
REMARK    8  A    between atoms: N_18  and  C_19
REMARK    9  A    between atoms: C_24  and  C_25
REMARK   10  A    between atoms: C_25  and  O_26
REMARK                            x       y       z     vdW  Elec       q    Type
REMARK                         _______ _______ _______ _____ _____    ______ ____
ROOT
ATOM      1  C   UNL     1       8.345   2.319  24.030  0.00  0.00    +0.120 A 
ATOM      2  C   UNL     1       9.433   2.975  23.441  0.00  0.00    +0.044 A 
ATOM      3 BR   UNL     1       9.965   4.772  23.735  0.00  0.00    -0.048 Br
ATOM      4  C   UNL     1      10.246   2.271  22.548  0.00  0.00    +0.018 A 
ATOM      5  C   UNL     1       9.977   0.938  22.243  0.00  0.00    +0.014 A 
ATOM      6  C   UNL     1       8.889   0.273  22.820  0.00  0.00    +0.039 A 
ATOM      7  C   UNL     1       8.068   0.965  23.713  0.00  0.00    +0.042 A 
ENDROOT
BRANCH   6   8
ATOM      8  C   UNL     1       8.666  -1.131  22.387  0.00  0.00    +0.248 C 
ATOM      9  N   UNL     1       7.587  -1.823  22.910  0.00  0.00    -0.281 N 
ATOM     10  H   UNL     1       6.880  -1.322  23.453  0.00  0.00    +0.155 HD
ATOM     11  O   UNL     1       9.472  -1.586  21.578  0.00  0.00    -0.270 OA
BRANCH   9  12
ATOM     12  C   UNL     1       7.328  -3.210  22.708  0.00  0.00    +0.048 A 
ATOM     13  C   UNL     1       7.942  -4.189  23.521  0.00  0.00    +0.080 A 
ATOM     14  C   UNL     1       7.691  -5.556  23.293  0.00  0.00    +0.017 A 
ATOM     15  C   UNL     1       6.806  -5.957  22.293  0.00  0.00    +0.001 A 
ATOM     16  C   UNL     1       6.205  -5.002  21.485  0.00  0.00    +0.002 A 
ATOM     17  C   UNL     1       6.480  -3.647  21.681  0.00  0.00    +0.024 A 
BRANCH  13  18
ATOM     18  C   UNL     1       8.860  -3.775  24.616  0.00  0.00    +0.339 C 
ATOM     19  O   UNL     1       8.478  -3.130  25.581  0.00  0.00    -0.245 OA
BRANCH  18  20
ATOM     20  O   UNL     1      10.132  -4.209  24.485  0.00  0.00    -0.477 OA
ATOM     21  H   UNL     1      10.818  -3.628  24.862  0.00  0.00    +0.295 HD
ENDBRANCH  18  20
ENDBRANCH  13  18
ENDBRANCH   9  12
ENDBRANCH   6   8
BRANCH   1  22
ATOM     22  S   UNL     1       7.228   3.069  25.194  0.00  0.00    +0.062 S 
ATOM     23  O   UNL     1       7.943   3.682  26.289  0.00  0.00    -0.153 OA
ATOM     24  O   UNL     1       6.280   3.837  24.416  0.00  0.00    -0.153 OA
BRANCH  22  25
ATOM     25  N   UNL     1       6.405   1.698  25.837  0.00  0.00    -0.177 NA
BRANCH  25  27
ATOM     26  C   UNL     1       7.527  -0.009  27.305  0.00  0.00    +0.022 C 
ATOM     27  C   UNL     1       6.816   1.332  27.227  0.00  0.00    +0.106 C 
ENDBRANCH  25  27
BRANCH  25  28
ATOM     28  C   UNL     1       4.930   1.720  25.590  0.00  0.00    +0.106 C 
ATOM     29  C   UNL     1       4.102   1.722  26.864  0.00  0.00    +0.022 C 
ENDBRANCH  25  28
ENDBRANCH  22  25
ENDBRANCH   1  22
TORSDOF 8
ENDMDL
