MODEL 1
REMARK VINA RESULT:      -7.9      0.000      0.000
REMARK  Name = 
REMARK  9 active torsions:
REMARK  status: ('A' for Active; 'I' for Inactive)
REMARK    1  A    between atoms: C_1  and  C_2
REMARK    2  A    between atoms: C_2  and  O_4
REMARK    3  A    between atoms: C_2  and  C_27
REMARK    4  A    between atoms: O_4  and  C_5
REMARK    5  A    between atoms: N_10  and  C_11
REMARK    6  A    between atoms: C_11  and  C_12
REMARK    7  A    between atoms: C_18  and  C_20
REMARK    8  A    between atoms: C_29  and  C_37
REMARK    9  A    between atoms: C_31  and  C_33
REMARK                            x       y       z     vdW  Elec       q    Type
REMARK                         _______ _______ _______ _____ _____    ______ ____
ROOT
ATOM      1  C   UNL     1       6.869   3.222  25.447  0.00  0.00    +0.272 C 
ATOM      2  C   UNL     1       7.697   3.985  24.330  0.00  0.00    +0.144 C 
ATOM      3  N   UNL     1       8.739   4.924  24.887  0.00  0.00    -0.282 NA
ATOM      4  C   UNL     1       8.062   5.773  25.915  0.00  0.00    +0.113 C 
ATOM      5  C   UNL     1       7.252   4.984  26.947  0.00  0.00    +0.178 C 
ATOM      6  O   UNL     1       6.249   4.188  26.311  0.00  0.00    -0.348 OA
ENDROOT
BRANCH   2   7
ATOM      7  C   UNL     1       8.173   3.008  23.250  0.00  0.00    -0.025 A 
ATOM      8  C   UNL     1       7.228   2.423  22.380  0.00  0.00    +0.008 A 
ATOM      9  C   UNL     1       7.610   1.447  21.449  0.00  0.00    +0.038 A 
ATOM     10  C   UNL     1       8.939   1.055  21.380  0.00  0.00    +0.123 A 
ATOM     11  F   UNL     1       9.307   0.109  20.501  0.00  0.00    -0.205 F 
ATOM     12  C   UNL     1       9.890   1.626  22.216  0.00  0.00    +0.038 A 
ATOM     13  C   UNL     1       9.511   2.599  23.149  0.00  0.00    +0.008 A 
ENDBRANCH   2   7
BRANCH   1  14
ATOM     14  O   UNL     1       7.615   2.242  26.206  0.00  0.00    -0.342 OA
BRANCH  14  16
ATOM     15  C   UNL     1       7.202   0.587  27.954  0.00  0.00    +0.043 C 
ATOM     16  C   UNL     1       6.814   1.094  26.571  0.00  0.00    +0.148 C 
BRANCH  16  17
ATOM     17  C   UNL     1       6.885   0.025  25.496  0.00  0.00    -0.018 A 
ATOM     18  C   UNL     1       5.839  -0.884  25.281  0.00  0.00    +0.018 A 
ATOM     19  C   UNL     1       6.060  -2.067  24.555  0.00  0.00    +0.056 A 
ATOM     20  C   UNL     1       7.348  -2.325  24.049  0.00  0.00    +0.024 A 
ATOM     21  C   UNL     1       8.392  -1.403  24.221  0.00  0.00    +0.056 A 
ATOM     22  C   UNL     1       8.131  -0.207  24.896  0.00  0.00    +0.018 A 
BRANCH  19  23
ATOM     23  C   UNL     1       4.945  -3.076  24.405  0.00  0.00    +0.417 C 
ATOM     24  F   UNL     1       3.792  -2.674  25.005  0.00  0.00    -0.166 F 
ATOM     25  F   UNL     1       5.257  -4.282  24.955  0.00  0.00    -0.166 F 
ATOM     26  F   UNL     1       4.622  -3.334  23.107  0.00  0.00    -0.166 F 
ENDBRANCH  19  23
BRANCH  21  27
ATOM     27  C   UNL     1       9.811  -1.745  23.834  0.00  0.00    +0.417 C 
ATOM     28  F   UNL     1      10.222  -2.950  24.322  0.00  0.00    -0.166 F 
ATOM     29  F   UNL     1      10.698  -0.825  24.305  0.00  0.00    -0.166 F 
ATOM     30  F   UNL     1      10.013  -1.799  22.490  0.00  0.00    -0.166 F 
ENDBRANCH  21  27
ENDBRANCH  16  17
ENDBRANCH  14  16
ENDBRANCH   1  14
BRANCH   3  31
ATOM     31  C   UNL     1       9.260   5.821  23.819  0.00  0.00    +0.161 C 
BRANCH  31  32
ATOM     32  C   UNL     1      10.775   5.900  23.843  0.00  0.00    +0.145 A 
ATOM     33  N   UNL     1      11.511   5.330  22.869  0.00  0.00    -0.293 N 
ATOM     34  H   UNL     1      11.193   4.800  22.078  0.00  0.00    +0.172 HD
ATOM     35  C   UNL     1      12.813   5.613  23.161  0.00  0.00    +0.342 A 
ATOM     36  O   UNL     1      13.795   5.312  22.509  0.00  0.00    -0.245 OA
ATOM     37  N   UNL     1      12.773   6.331  24.351  0.00  0.00    -0.227 N 
ATOM     38  H   UNL     1      13.564   6.732  24.831  0.00  0.00    +0.194 HD
ATOM     39  N   UNL     1      11.474   6.511  24.757  0.00  0.00    -0.155 NA
ENDBRANCH  31  32
ENDBRANCH   3  31
TORSDOF 8
ENDMDL
MODEL 2
REMARK VINA RESULT:      -7.9      6.490      8.963
REMARK  Name = 
REMARK  9 active torsions:
REMARK  status: ('A' for Active; 'I' for Inactive)
REMARK    1  A    between atoms: C_1  and  C_2
REMARK    2  A    between atoms: C_2  and  O_4
REMARK    3  A    between atoms: C_2  and  C_27
REMARK    4  A    between atoms: O_4  and  C_5
REMARK    5  A    between atoms: N_10  and  C_11
REMARK    6  A    between atoms: C_11  and  C_12
REMARK    7  A    between atoms: C_18  and  C_20
REMARK    8  A    between atoms: C_29  and  C_37
REMARK    9  A    between atoms: C_31  and  C_33
REMARK                            x       y       z     vdW  Elec       q    Type
REMARK                         _______ _______ _______ _____ _____    ______ ____
ROOT
ATOM      1  C   UNL     1       4.044  -4.526  23.376  0.00  0.00    +0.272 C 
ATOM      2  C   UNL     1       3.849  -4.152  24.905  0.00  0.00    +0.144 C 
ATOM      3  N   UNL     1       3.645  -5.352  25.798  0.00  0.00    -0.282 NA
ATOM      4  C   UNL     1       2.576  -6.190  25.172  0.00  0.00    +0.113 C 
ATOM      5  C   UNL     1       2.802  -6.490  23.688  0.00  0.00    +0.178 C 
ATOM      6  O   UNL     1       2.907  -5.281  22.931  0.00  0.00    -0.348 OA
ENDROOT
BRANCH   2   7
ATOM      7  C   UNL     1       4.914  -3.146  25.354  0.00  0.00    -0.025 A 
ATOM      8  C   UNL     1       5.080  -1.944  24.633  0.00  0.00    +0.008 A 
ATOM      9  C   UNL     1       6.110  -1.048  24.949  0.00  0.00    +0.038 A 
ATOM     10  C   UNL     1       6.977  -1.347  25.991  0.00  0.00    +0.123 A 
ATOM     11  F   UNL     1       7.975  -0.500  26.287  0.00  0.00    -0.205 F 
ATOM     12  C   UNL     1       6.826  -2.517  26.724  0.00  0.00    +0.038 A 
ATOM     13  C   UNL     1       5.799  -3.415  26.409  0.00  0.00    +0.008 A 
ENDBRANCH   2   7
BRANCH   1  14
ATOM     14  O   UNL     1       5.282  -5.205  23.060  0.00  0.00    -0.342 OA
BRANCH  14  16
ATOM     15  C   UNL     1       6.198  -5.257  20.797  0.00  0.00    +0.043 C 
ATOM     16  C   UNL     1       6.086  -4.479  22.101  0.00  0.00    +0.148 C 
BRANCH  16  17
ATOM     17  C   UNL     1       7.431  -4.107  22.699  0.00  0.00    -0.018 A 
ATOM     18  C   UNL     1       7.964  -4.783  23.806  0.00  0.00    +0.018 A 
ATOM     19  C   UNL     1       9.004  -4.210  24.558  0.00  0.00    +0.056 A 
ATOM     20  C   UNL     1       9.500  -2.947  24.183  0.00  0.00    +0.024 A 
ATOM     21  C   UNL     1       9.004  -2.280  23.052  0.00  0.00    +0.056 A 
ATOM     22  C   UNL     1       8.011  -2.898  22.287  0.00  0.00    +0.018 A 
BRANCH  19  23
ATOM     23  C   UNL     1       9.510  -4.910  25.797  0.00  0.00    +0.417 C 
ATOM     24  F   UNL     1      10.789  -5.355  25.662  0.00  0.00    -0.166 F 
ATOM     25  F   UNL     1       8.763  -6.003  26.120  0.00  0.00    -0.166 F 
ATOM     26  F   UNL     1       9.504  -4.118  26.906  0.00  0.00    -0.166 F 
ENDBRANCH  19  23
BRANCH  21  27
ATOM     27  C   UNL     1       9.406  -0.858  22.740  0.00  0.00    +0.417 C 
ATOM     28  F   UNL     1       9.924  -0.713  21.487  0.00  0.00    -0.166 F 
ATOM     29  F   UNL     1      10.361  -0.405  23.598  0.00  0.00    -0.166 F 
ATOM     30  F   UNL     1       8.380   0.031  22.825  0.00  0.00    -0.166 F 
ENDBRANCH  21  27
ENDBRANCH  16  17
ENDBRANCH  14  16
ENDBRANCH   1  14
BRANCH   3  31
ATOM     31  C   UNL     1       3.170  -4.929  27.144  0.00  0.00    +0.161 C 
BRANCH  31  32
ATOM     32  C   UNL     1       4.072  -5.451  28.247  0.00  0.00    +0.145 A 
ATOM     33  N   UNL     1       4.977  -6.417  27.998  0.00  0.00    -0.293 N 
ATOM     34  H   UNL     1       5.149  -6.901  27.136  0.00  0.00    +0.172 HD
ATOM     35  C   UNL     1       5.641  -6.627  29.170  0.00  0.00    +0.342 A 
ATOM     36  O   UNL     1       6.565  -7.394  29.365  0.00  0.00    -0.245 OA
ATOM     37  N   UNL     1       5.048  -5.765  30.086  0.00  0.00    -0.227 N 
ATOM     38  H   UNL     1       5.324  -5.636  31.048  0.00  0.00    +0.194 HD
ATOM     39  N   UNL     1       4.066  -5.023  29.478  0.00  0.00    -0.155 NA
ENDBRANCH  31  32
ENDBRANCH   3  31
TORSDOF 8
ENDMDL
MODEL 3
REMARK VINA RESULT:      -7.7      5.092      8.526
REMARK  Name = 
REMARK  9 active torsions:
REMARK  status: ('A' for Active; 'I' for Inactive)
REMARK    1  A    between atoms: C_1  and  C_2
REMARK    2  A    between atoms: C_2  and  O_4
REMARK    3  A    between atoms: C_2  and  C_27
REMARK    4  A    between atoms: O_4  and  C_5
REMARK    5  A    between atoms: N_10  and  C_11
REMARK    6  A    between atoms: C_11  and  C_12
REMARK    7  A    between atoms: C_18  and  C_20
REMARK    8  A    between atoms: C_29  and  C_37
REMARK    9  A    between atoms: C_31  and  C_33
REMARK                            x       y       z     vdW  Elec       q    Type
REMARK                         _______ _______ _______ _____ _____    ______ ____
ROOT
ATOM      1  C   UNL     1       8.180  -3.053  26.337  0.00  0.00    +0.272 C 
ATOM      2  C   UNL     1       7.892  -3.765  24.950  0.00  0.00    +0.144 C 
ATOM      3  N   UNL     1       6.526  -4.404  24.872  0.00  0.00    -0.282 NA
ATOM      4  C   UNL     1       6.359  -5.239  26.102  0.00  0.00    +0.113 C 
ATOM      5  C   UNL     1       6.684  -4.507  27.406  0.00  0.00    +0.178 C 
ATOM      6  O   UNL     1       8.025  -4.010  27.396  0.00  0.00    -0.348 OA
ENDROOT
BRANCH   2   7
ATOM      7  C   UNL     1       8.280  -2.852  23.783  0.00  0.00    -0.025 A 
ATOM      8  C   UNL     1       9.645  -2.601  23.524  0.00  0.00    +0.008 A 
ATOM      9  C   UNL     1      10.037  -1.691  22.533  0.00  0.00    +0.038 A 
ATOM     10  C   UNL     1       9.067  -1.030  21.793  0.00  0.00    +0.123 A 
ATOM     11  F   UNL     1       9.437  -0.145  20.854  0.00  0.00    -0.205 F 
ATOM     12  C   UNL     1       7.718  -1.270  22.019  0.00  0.00    +0.038 A 
ATOM     13  C   UNL     1       7.323  -2.177  23.010  0.00  0.00    +0.008 A 
ENDBRANCH   2   7
BRANCH   1  14
ATOM     14  O   UNL     1       7.403  -1.859  26.590  0.00  0.00    -0.342 OA
BRANCH  14  16
ATOM     15  C   UNL     1       7.871   0.031  28.064  0.00  0.00    +0.043 C 
ATOM     16  C   UNL     1       8.229  -0.685  26.768  0.00  0.00    +0.148 C 
BRANCH  16  17
ATOM     17  C   UNL     1       8.159   0.212  25.546  0.00  0.00    -0.018 A 
ATOM     18  C   UNL     1       9.309   0.759  24.958  0.00  0.00    +0.018 A 
ATOM     19  C   UNL     1       9.210   1.851  24.079  0.00  0.00    +0.056 A 
ATOM     20  C   UNL     1       7.939   2.388  23.800  0.00  0.00    +0.024 A 
ATOM     21  C   UNL     1       6.777   1.823  24.348  0.00  0.00    +0.056 A 
ATOM     22  C   UNL     1       6.898   0.700  25.172  0.00  0.00    +0.018 A 
BRANCH  19  23
ATOM     23  C   UNL     1      10.464   2.484  23.522  0.00  0.00    +0.417 C 
ATOM     24  F   UNL     1      10.514   3.827  23.739  0.00  0.00    -0.166 F 
ATOM     25  F   UNL     1      10.579   2.315  22.175  0.00  0.00    -0.166 F 
ATOM     26  F   UNL     1      11.609   1.975  24.057  0.00  0.00    -0.166 F 
ENDBRANCH  19  23
BRANCH  21  27
ATOM     27  C   UNL     1       5.432   2.490  24.193  0.00  0.00    +0.417 C 
ATOM     28  F   UNL     1       5.025   2.575  22.894  0.00  0.00    -0.166 F 
ATOM     29  F   UNL     1       5.444   3.766  24.668  0.00  0.00    -0.166 F 
ATOM     30  F   UNL     1       4.428   1.857  24.858  0.00  0.00    -0.166 F 
ENDBRANCH  21  27
ENDBRANCH  16  17
ENDBRANCH  14  16
ENDBRANCH   1  14
BRANCH   3  31
ATOM     31  C   UNL     1       6.434  -5.302  23.688  0.00  0.00    +0.161 C 
BRANCH  31  32
ATOM     32  C   UNL     1       5.047  -5.900  23.544  0.00  0.00    +0.145 A 
ATOM     33  N   UNL     1       4.015  -5.152  23.109  0.00  0.00    -0.293 N 
ATOM     34  H   UNL     1       4.012  -4.178  22.866  0.00  0.00    +0.172 HD
ATOM     35  C   UNL     1       2.937  -5.985  23.056  0.00  0.00    +0.342 A 
ATOM     36  O   UNL     1       1.813  -5.711  22.677  0.00  0.00    -0.245 OA
ATOM     37  N   UNL     1       3.402  -7.214  23.510  0.00  0.00    -0.227 N 
ATOM     38  H   UNL     1       2.870  -8.069  23.563  0.00  0.00    +0.194 HD
ATOM     39  N   UNL     1       4.741  -7.140  23.802  0.00  0.00    -0.155 NA
ENDBRANCH  31  32
ENDBRANCH   3  31
TORSDOF 8
ENDMDL
MODEL 4
REMARK VINA RESULT:      -7.6      3.354      5.765
REMARK  Name = 
REMARK  9 active torsions:
REMARK  status: ('A' for Active; 'I' for Inactive)
REMARK    1  A    between atoms: C_1  and  C_2
REMARK    2  A    between atoms: C_2  and  O_4
REMARK    3  A    between atoms: C_2  and  C_27
REMARK    4  A    between atoms: O_4  and  C_5
REMARK    5  A    between atoms: N_10  and  C_11
REMARK    6  A    between atoms: C_11  and  C_12
REMARK    7  A    between atoms: C_18  and  C_20
REMARK    8  A    between atoms: C_29  and  C_37
REMARK    9  A    between atoms: C_31  and  C_33
REMARK                            x       y       z     vdW  Elec       q    Type
REMARK                         _______ _______ _______ _____ _____    ______ ____
ROOT
ATOM      1  C   UNL     1       8.856   0.388  24.841  0.00  0.00    +0.272 C 
ATOM      2  C   UNL     1       7.583   0.634  25.754  0.00  0.00    +0.144 C 
ATOM      3  N   UNL     1       6.861   1.923  25.448  0.00  0.00    -0.282 NA
ATOM      4  C   UNL     1       7.889   3.010  25.425  0.00  0.00    +0.113 C 
ATOM      5  C   UNL     1       9.108   2.701  24.553  0.00  0.00    +0.178 C 
ATOM      6  O   UNL     1       9.754   1.500  24.981  0.00  0.00    -0.348 OA
ENDROOT
BRANCH   2   7
ATOM      7  C   UNL     1       6.718  -0.628  25.825  0.00  0.00    -0.025 A 
ATOM      8  C   UNL     1       6.954  -1.575  26.844  0.00  0.00    +0.008 A 
ATOM      9  C   UNL     1       6.254  -2.788  26.880  0.00  0.00    +0.038 A 
ATOM     10  C   UNL     1       5.311  -3.060  25.899  0.00  0.00    +0.123 A 
ATOM     11  F   UNL     1       4.649  -4.228  25.920  0.00  0.00    -0.205 F 
ATOM     12  C   UNL     1       5.050  -2.138  24.893  0.00  0.00    +0.038 A 
ATOM     13  C   UNL     1       5.750  -0.926  24.854  0.00  0.00    +0.008 A 
ENDBRANCH   2   7
BRANCH   1  14
ATOM     14  O   UNL     1       8.572   0.114  23.449  0.00  0.00    -0.342 OA
BRANCH  14  16
ATOM     15  C   UNL     1       9.811  -0.441  21.419  0.00  0.00    +0.043 C 
ATOM     16  C   UNL     1       9.508  -0.820  22.863  0.00  0.00    +0.148 C 
BRANCH  16  17
ATOM     17  C   UNL     1       9.014  -2.246  23.020  0.00  0.00    -0.018 A 
ATOM     18  C   UNL     1       7.900  -2.728  22.318  0.00  0.00    +0.018 A 
ATOM     19  C   UNL     1       7.247  -3.901  22.736  0.00  0.00    +0.056 A 
ATOM     20  C   UNL     1       7.728  -4.581  23.870  0.00  0.00    +0.024 A 
ATOM     21  C   UNL     1       8.867  -4.133  24.555  0.00  0.00    +0.056 A 
ATOM     22  C   UNL     1       9.534  -2.998  24.084  0.00  0.00    +0.018 A 
BRANCH  19  23
ATOM     23  C   UNL     1       5.997  -4.360  22.021  0.00  0.00    +0.417 C 
ATOM     24  F   UNL     1       5.241  -3.322  21.570  0.00  0.00    -0.166 F 
ATOM     25  F   UNL     1       5.181  -5.101  22.822  0.00  0.00    -0.166 F 
ATOM     26  F   UNL     1       6.252  -5.140  20.933  0.00  0.00    -0.166 F 
ENDBRANCH  19  23
BRANCH  21  27
ATOM     27  C   UNL     1       9.290  -4.753  25.866  0.00  0.00    +0.417 C 
ATOM     28  F   UNL     1      10.532  -5.315  25.814  0.00  0.00    -0.166 F 
ATOM     29  F   UNL     1       8.442  -5.747  26.250  0.00  0.00    -0.166 F 
ATOM     30  F   UNL     1       9.322  -3.873  26.902  0.00  0.00    -0.166 F 
ENDBRANCH  21  27
ENDBRANCH  16  17
ENDBRANCH  14  16
ENDBRANCH   1  14
BRANCH   3  31
ATOM     31  C   UNL     1       5.878   2.241  26.520  0.00  0.00    +0.161 C 
BRANCH  31  32
ATOM     32  C   UNL     1       4.567   2.747  25.948  0.00  0.00    +0.145 A 
ATOM     33  N   UNL     1       4.228   2.490  24.670  0.00  0.00    -0.293 N 
ATOM     34  H   UNL     1       4.755   1.996  23.974  0.00  0.00    +0.172 HD
ATOM     35  C   UNL     1       2.994   3.040  24.486  0.00  0.00    +0.342 A 
ATOM     36  O   UNL     1       2.312   2.999  23.479  0.00  0.00    -0.245 OA
ATOM     37  N   UNL     1       2.678   3.642  25.700  0.00  0.00    -0.227 N 
ATOM     38  H   UNL     1       1.813   4.112  25.923  0.00  0.00    +0.194 HD
ATOM     39  N   UNL     1       3.681   3.434  26.612  0.00  0.00    -0.155 NA
ENDBRANCH  31  32
ENDBRANCH   3  31
TORSDOF 8
ENDMDL
MODEL 5
REMARK VINA RESULT:      -7.5      3.428      5.650
REMARK  Name = 
REMARK  9 active torsions:
REMARK  status: ('A' for Active; 'I' for Inactive)
REMARK    1  A    between atoms: C_1  and  C_2
REMARK    2  A    between atoms: C_2  and  O_4
REMARK    3  A    between atoms: C_2  and  C_27
REMARK    4  A    between atoms: O_4  and  C_5
REMARK    5  A    between atoms: N_10  and  C_11
REMARK    6  A    between atoms: C_11  and  C_12
REMARK    7  A    between atoms: C_18  and  C_20
REMARK    8  A    between atoms: C_29  and  C_37
REMARK    9  A    between atoms: C_31  and  C_33
REMARK                            x       y       z     vdW  Elec       q    Type
REMARK                         _______ _______ _______ _____ _____    ______ ____
ROOT
ATOM      1  C   UNL     1       8.719   0.349  24.918  0.00  0.00    +0.272 C 
ATOM      2  C   UNL     1       7.422   0.414  25.828  0.00  0.00    +0.144 C 
ATOM      3  N   UNL     1       6.574   1.639  25.583  0.00  0.00    -0.282 NA
ATOM      4  C   UNL     1       7.486   2.824  25.631  0.00  0.00    +0.113 C 
ATOM      5  C   UNL     1       8.736   2.689  24.759  0.00  0.00    +0.178 C 
ATOM      6  O   UNL     1       9.499   1.537  25.129  0.00  0.00    -0.348 OA
ENDROOT
BRANCH   2   7
ATOM      7  C   UNL     1       6.689  -0.931  25.819  0.00  0.00    -0.025 A 
ATOM      8  C   UNL     1       5.749  -1.201  24.802  0.00  0.00    +0.008 A 
ATOM      9  C   UNL     1       4.983  -2.375  24.818  0.00  0.00    +0.038 A 
ATOM     10  C   UNL     1       5.158  -3.288  25.849  0.00  0.00    +0.123 A 
ATOM     11  F   UNL     1       4.416  -4.406  25.878  0.00  0.00    -0.205 F 
ATOM     12  C   UNL     1       6.087  -3.051  26.854  0.00  0.00    +0.038 A 
ATOM     13  C   UNL     1       6.851  -1.878  26.841  0.00  0.00    +0.008 A 
ENDBRANCH   2   7
BRANCH   1  14
ATOM     14  O   UNL     1       8.474   0.126  23.510  0.00  0.00    -0.342 OA
BRANCH  14  16
ATOM     15  C   UNL     1       9.758  -0.312  21.479  0.00  0.00    +0.043 C 
ATOM     16  C   UNL     1       9.456  -0.749  22.906  0.00  0.00    +0.148 C 
BRANCH  16  17
ATOM     17  C   UNL     1       9.020  -2.199  23.012  0.00  0.00    -0.018 A 
ATOM     18  C   UNL     1       7.965  -2.716  22.247  0.00  0.00    +0.018 A 
ATOM     19  C   UNL     1       7.347  -3.925  22.609  0.00  0.00    +0.056 A 
ATOM     20  C   UNL     1       7.803  -4.607  23.753  0.00  0.00    +0.024 A 
ATOM     21  C   UNL     1       8.886  -4.122  24.503  0.00  0.00    +0.056 A 
ATOM     22  C   UNL     1       9.521  -2.949  24.087  0.00  0.00    +0.018 A 
BRANCH  19  23
ATOM     23  C   UNL     1       6.156  -4.425  21.825  0.00  0.00    +0.417 C 
ATOM     24  F   UNL     1       6.476  -5.442  20.979  0.00  0.00    -0.166 F 
ATOM     25  F   UNL     1       5.595  -3.454  21.052  0.00  0.00    -0.166 F 
ATOM     26  F   UNL     1       5.149  -4.897  22.614  0.00  0.00    -0.166 F 
ENDBRANCH  19  23
BRANCH  21  27
ATOM     27  C   UNL     1       9.272  -4.750  25.820  0.00  0.00    +0.417 C 
ATOM     28  F   UNL     1       9.310  -3.854  26.848  0.00  0.00    -0.166 F 
ATOM     29  F   UNL     1      10.509  -5.315  25.767  0.00  0.00    -0.166 F 
ATOM     30  F   UNL     1       8.430  -5.741  26.221  0.00  0.00    -0.166 F 
ENDBRANCH  21  27
ENDBRANCH  16  17
ENDBRANCH  14  16
ENDBRANCH   1  14
BRANCH   3  31
ATOM     31  C   UNL     1       5.557   1.795  26.659  0.00  0.00    +0.161 C 
BRANCH  31  32
ATOM     32  C   UNL     1       6.186   1.751  28.038  0.00  0.00    +0.145 A 
ATOM     33  N   UNL     1       7.080   2.684  28.418  0.00  0.00    -0.293 N 
ATOM     34  H   UNL     1       7.442   3.454  27.884  0.00  0.00    +0.172 HD
ATOM     35  C   UNL     1       7.418   2.386  29.705  0.00  0.00    +0.342 A 
ATOM     36  O   UNL     1       8.172   3.007  30.431  0.00  0.00    -0.245 OA
ATOM     37  N   UNL     1       6.704   1.233  30.012  0.00  0.00    -0.227 N 
ATOM     38  H   UNL     1       6.692   0.760  30.904  0.00  0.00    +0.194 HD
ATOM     39  N   UNL     1       5.923   0.857  28.948  0.00  0.00    -0.155 NA
ENDBRANCH  31  32
ENDBRANCH   3  31
TORSDOF 8
ENDMDL
MODEL 6
REMARK VINA RESULT:      -7.5      2.847      3.718
REMARK  Name = 
REMARK  9 active torsions:
REMARK  status: ('A' for Active; 'I' for Inactive)
REMARK    1  A    between atoms: C_1  and  C_2
REMARK    2  A    between atoms: C_2  and  O_4
REMARK    3  A    between atoms: C_2  and  C_27
REMARK    4  A    between atoms: O_4  and  C_5
REMARK    5  A    between atoms: N_10  and  C_11
REMARK    6  A    between atoms: C_11  and  C_12
REMARK    7  A    between atoms: C_18  and  C_20
REMARK    8  A    between atoms: C_29  and  C_37
REMARK    9  A    between atoms: C_31  and  C_33
REMARK                            x       y       z     vdW  Elec       q    Type
REMARK                         _______ _______ _______ _____ _____    ______ ____
ROOT
ATOM      1  C   UNL     1       5.625   0.676  24.640  0.00  0.00    +0.272 C 
ATOM      2  C   UNL     1       6.966   1.457  24.315  0.00  0.00    +0.144 C 
ATOM      3  N   UNL     1       7.318   2.506  25.342  0.00  0.00    -0.282 NA
ATOM      4  C   UNL     1       6.095   3.338  25.559  0.00  0.00    +0.113 C 
ATOM      5  C   UNL     1       4.826   2.528  25.836  0.00  0.00    +0.178 C 
ATOM      6  O   UNL     1       4.551   1.622  24.764  0.00  0.00    -0.348 OA
ENDROOT
BRANCH   2   7
ATOM      7  C   UNL     1       8.082   0.478  23.935  0.00  0.00    -0.025 A 
ATOM      8  C   UNL     1       8.044  -0.162  22.678  0.00  0.00    +0.008 A 
ATOM      9  C   UNL     1       8.988  -1.140  22.337  0.00  0.00    +0.038 A 
ATOM     10  C   UNL     1       9.977  -1.480  23.249  0.00  0.00    +0.123 A 
ATOM     11  F   UNL     1      10.874  -2.428  22.933  0.00  0.00    -0.205 F 
ATOM     12  C   UNL     1      10.044  -0.854  24.487  0.00  0.00    +0.038 A 
ATOM     13  C   UNL     1       9.101   0.122  24.831  0.00  0.00    +0.008 A 
ENDBRANCH   2   7
BRANCH   1  14
ATOM     14  O   UNL     1       5.686  -0.203  25.788  0.00  0.00    -0.342 OA
BRANCH  14  16
ATOM     15  C   UNL     1       4.559  -2.117  26.803  0.00  0.00    +0.043 C 
ATOM     16  C   UNL     1       5.113  -1.504  25.523  0.00  0.00    +0.148 C 
BRANCH  16  17
ATOM     17  C   UNL     1       6.114  -2.397  24.812  0.00  0.00    -0.018 A 
ATOM     18  C   UNL     1       5.845  -2.965  23.559  0.00  0.00    +0.018 A 
ATOM     19  C   UNL     1       6.601  -4.053  23.091  0.00  0.00    +0.056 A 
ATOM     20  C   UNL     1       7.631  -4.565  23.903  0.00  0.00    +0.024 A 
ATOM     21  C   UNL     1       7.938  -3.979  25.140  0.00  0.00    +0.056 A 
ATOM     22  C   UNL     1       7.210  -2.861  25.555  0.00  0.00    +0.018 A 
BRANCH  19  23
ATOM     23  C   UNL     1       6.243  -4.708  21.777  0.00  0.00    +0.417 C 
ATOM     24  F   UNL     1       5.912  -3.804  20.815  0.00  0.00    -0.166 F 
ATOM     25  F   UNL     1       5.177  -5.549  21.887  0.00  0.00    -0.166 F 
ATOM     26  F   UNL     1       7.254  -5.458  21.255  0.00  0.00    -0.166 F 
ENDBRANCH  19  23
BRANCH  21  27
ATOM     27  C   UNL     1       8.922  -4.621  26.089  0.00  0.00    +0.417 C 
ATOM     28  F   UNL     1       8.418  -5.724  26.714  0.00  0.00    -0.166 F 
ATOM     29  F   UNL     1       9.299  -3.766  27.080  0.00  0.00    -0.166 F 
ATOM     30  F   UNL     1      10.074  -5.025  25.491  0.00  0.00    -0.166 F 
ENDBRANCH  21  27
ENDBRANCH  16  17
ENDBRANCH  14  16
ENDBRANCH   1  14
BRANCH   3  31
ATOM     31  C   UNL     1       8.397   3.396  24.833  0.00  0.00    +0.161 C 
BRANCH  31  32
ATOM     32  C   UNL     1       7.940   4.205  23.634  0.00  0.00    +0.145 A 
ATOM     33  N   UNL     1       7.802   5.542  23.716  0.00  0.00    -0.293 N 
ATOM     34  H   UNL     1       7.945   6.135  24.513  0.00  0.00    +0.172 HD
ATOM     35  C   UNL     1       7.422   5.962  22.475  0.00  0.00    +0.342 A 
ATOM     36  O   UNL     1       7.228   7.108  22.113  0.00  0.00    -0.245 OA
ATOM     37  N   UNL     1       7.320   4.804  21.712  0.00  0.00    -0.227 N 
ATOM     38  H   UNL     1       7.094   4.756  20.730  0.00  0.00    +0.194 HD
ATOM     39  N   UNL     1       7.664   3.706  22.462  0.00  0.00    -0.155 NA
ENDBRANCH  31  32
ENDBRANCH   3  31
TORSDOF 8
ENDMDL
MODEL 7
REMARK VINA RESULT:      -7.5      5.764      8.841
REMARK  Name = 
REMARK  9 active torsions:
REMARK  status: ('A' for Active; 'I' for Inactive)
REMARK    1  A    between atoms: C_1  and  C_2
REMARK    2  A    between atoms: C_2  and  O_4
REMARK    3  A    between atoms: C_2  and  C_27
REMARK    4  A    between atoms: O_4  and  C_5
REMARK    5  A    between atoms: N_10  and  C_11
REMARK    6  A    between atoms: C_11  and  C_12
REMARK    7  A    between atoms: C_18  and  C_20
REMARK    8  A    between atoms: C_29  and  C_37
REMARK    9  A    between atoms: C_31  and  C_33
REMARK                            x       y       z     vdW  Elec       q    Type
REMARK                         _______ _______ _______ _____ _____    ______ ____
ROOT
ATOM      1  C   UNL     1       4.562  -2.129  26.854  0.00  0.00    +0.272 C 
ATOM      2  C   UNL     1       4.875  -3.682  26.911  0.00  0.00    +0.144 C 
ATOM      3  N   UNL     1       3.767  -4.542  26.355  0.00  0.00    -0.282 NA
ATOM      4  C   UNL     1       2.494  -4.092  26.997  0.00  0.00    +0.113 C 
ATOM      5  C   UNL     1       2.263  -2.580  26.939  0.00  0.00    +0.178 C 
ATOM      6  O   UNL     1       3.338  -1.872  27.560  0.00  0.00    -0.348 OA
ENDROOT
BRANCH   2   7
ATOM      7  C   UNL     1       6.285  -3.968  26.384  0.00  0.00    -0.025 A 
ATOM      8  C   UNL     1       7.361  -3.161  26.811  0.00  0.00    +0.008 A 
ATOM      9  C   UNL     1       8.645  -3.324  26.272  0.00  0.00    +0.038 A 
ATOM     10  C   UNL     1       8.861  -4.298  25.308  0.00  0.00    +0.123 A 
ATOM     11  F   UNL     1      10.084  -4.448  24.778  0.00  0.00    -0.205 F 
ATOM     12  C   UNL     1       7.821  -5.115  24.882  0.00  0.00    +0.038 A 
ATOM     13  C   UNL     1       6.537  -4.952  25.416  0.00  0.00    +0.008 A 
ENDBRANCH   2   7
BRANCH   1  14
ATOM     14  O   UNL     1       4.532  -1.554  25.526  0.00  0.00    -0.342 OA
BRANCH  14  16
ATOM     15  C   UNL     1       5.276   0.748  25.193  0.00  0.00    +0.043 C 
ATOM     16  C   UNL     1       5.681  -0.719  25.254  0.00  0.00    +0.148 C 
BRANCH  16  17
ATOM     17  C   UNL     1       6.409  -1.195  24.010  0.00  0.00    -0.018 A 
ATOM     18  C   UNL     1       5.947  -2.276  23.246  0.00  0.00    +0.018 A 
ATOM     19  C   UNL     1       6.801  -2.923  22.336  0.00  0.00    +0.056 A 
ATOM     20  C   UNL     1       8.127  -2.470  22.207  0.00  0.00    +0.024 A 
ATOM     21  C   UNL     1       8.589  -1.362  22.934  0.00  0.00    +0.056 A 
ATOM     22  C   UNL     1       7.702  -0.699  23.787  0.00  0.00    +0.018 A 
BRANCH  19  23
ATOM     23  C   UNL     1       6.314  -4.140  21.584  0.00  0.00    +0.417 C 
ATOM     24  F   UNL     1       5.887  -3.841  20.326  0.00  0.00    -0.166 F 
ATOM     25  F   UNL     1       5.266  -4.751  22.203  0.00  0.00    -0.166 F 
ATOM     26  F   UNL     1       7.268  -5.102  21.437  0.00  0.00    -0.166 F 
ENDBRANCH  19  23
BRANCH  21  27
ATOM     27  C   UNL     1      10.048  -0.975  22.930  0.00  0.00    +0.417 C 
ATOM     28  F   UNL     1      10.511  -0.626  24.165  0.00  0.00    -0.166 F 
ATOM     29  F   UNL     1      10.284   0.096  22.123  0.00  0.00    -0.166 F 
ATOM     30  F   UNL     1      10.874  -1.961  22.488  0.00  0.00    -0.166 F 
ENDBRANCH  21  27
ENDBRANCH  16  17
ENDBRANCH  14  16
ENDBRANCH   1  14
BRANCH   3  31
ATOM     31  C   UNL     1       3.983  -5.971  26.711  0.00  0.00    +0.161 C 
BRANCH  31  32
ATOM     32  C   UNL     1       3.375  -6.905  25.681  0.00  0.00    +0.145 A 
ATOM     33  N   UNL     1       2.574  -7.920  26.059  0.00  0.00    -0.293 N 
ATOM     34  H   UNL     1       2.312  -8.193  26.988  0.00  0.00    +0.172 HD
ATOM     35  C   UNL     1       2.169  -8.533  24.909  0.00  0.00    +0.342 A 
ATOM     36  O   UNL     1       1.405  -9.474  24.807  0.00  0.00    -0.245 OA
ATOM     37  N   UNL     1       2.804  -7.840  23.883  0.00  0.00    -0.227 N 
ATOM     38  H   UNL     1       2.694  -8.009  22.895  0.00  0.00    +0.194 HD
ATOM     39  N   UNL     1       3.551  -6.808  24.394  0.00  0.00    -0.155 NA
ENDBRANCH  31  32
ENDBRANCH   3  31
TORSDOF 8
ENDMDL
MODEL 8
REMARK VINA RESULT:      -7.4      3.130      5.916
REMARK  Name = 
REMARK  9 active torsions:
REMARK  status: ('A' for Active; 'I' for Inactive)
REMARK    1  A    between atoms: C_1  and  C_2
REMARK    2  A    between atoms: C_2  and  O_4
REMARK    3  A    between atoms: C_2  and  C_27
REMARK    4  A    between atoms: O_4  and  C_5
REMARK    5  A    between atoms: N_10  and  C_11
REMARK    6  A    between atoms: C_11  and  C_12
REMARK    7  A    between atoms: C_18  and  C_20
REMARK    8  A    between atoms: C_29  and  C_37
REMARK    9  A    between atoms: C_31  and  C_33
REMARK                            x       y       z     vdW  Elec       q    Type
REMARK                         _______ _______ _______ _____ _____    ______ ____
ROOT
ATOM      1  C   UNL     1       9.299   0.718  24.419  0.00  0.00    +0.272 C 
ATOM      2  C   UNL     1       8.095   1.126  25.366  0.00  0.00    +0.144 C 
ATOM      3  N   UNL     1       7.417   2.411  24.960  0.00  0.00    -0.282 NA
ATOM      4  C   UNL     1       8.491   3.434  24.764  0.00  0.00    +0.113 C 
ATOM      5  C   UNL     1       9.642   2.971  23.867  0.00  0.00    +0.178 C 
ATOM      6  O   UNL     1      10.255   1.789  24.389  0.00  0.00    -0.348 OA
ENDROOT
BRANCH   2   7
ATOM      7  C   UNL     1       7.177  -0.075  25.619  0.00  0.00    -0.025 A 
ATOM      8  C   UNL     1       7.448  -0.938  26.703  0.00  0.00    +0.008 A 
ATOM      9  C   UNL     1       6.695  -2.102  26.904  0.00  0.00    +0.038 A 
ATOM     10  C   UNL     1       5.664  -2.408  26.027  0.00  0.00    +0.123 A 
ATOM     11  F   UNL     1       4.950  -3.530  26.207  0.00  0.00    -0.205 F 
ATOM     12  C   UNL     1       5.369  -1.566  24.962  0.00  0.00    +0.038 A 
ATOM     13  C   UNL     1       6.121  -0.404  24.757  0.00  0.00    +0.008 A 
ENDBRANCH   2   7
BRANCH   1  14
ATOM     14  O   UNL     1       8.922   0.313  23.082  0.00  0.00    -0.342 OA
BRANCH  14  16
ATOM     15  C   UNL     1       9.705  -0.984  21.166  0.00  0.00    +0.043 C 
ATOM     16  C   UNL     1       9.545  -0.930  22.680  0.00  0.00    +0.148 C 
BRANCH  16  17
ATOM     17  C   UNL     1       8.790  -2.117  23.249  0.00  0.00    -0.018 A 
ATOM     18  C   UNL     1       9.246  -2.817  24.376  0.00  0.00    +0.018 A 
ATOM     19  C   UNL     1       8.754  -4.101  24.665  0.00  0.00    +0.056 A 
ATOM     20  C   UNL     1       7.799  -4.675  23.803  0.00  0.00    +0.024 A 
ATOM     21  C   UNL     1       7.304  -3.968  22.697  0.00  0.00    +0.056 A 
ATOM     22  C   UNL     1       7.765  -2.669  22.466  0.00  0.00    +0.018 A 
BRANCH  19  23
ATOM     23  C   UNL     1       9.317  -4.877  25.833  0.00  0.00    +0.417 C 
ATOM     24  F   UNL     1       9.329  -4.151  26.985  0.00  0.00    -0.166 F 
ATOM     25  F   UNL     1      10.603  -5.274  25.624  0.00  0.00    -0.166 F 
ATOM     26  F   UNL     1       8.620  -6.013  26.113  0.00  0.00    -0.166 F 
ENDBRANCH  19  23
BRANCH  21  27
ATOM     27  C   UNL     1       6.412  -4.633  21.676  0.00  0.00    +0.417 C 
ATOM     28  F   UNL     1       5.311  -5.218  22.230  0.00  0.00    -0.166 F 
ATOM     29  F   UNL     1       7.065  -5.620  21.003  0.00  0.00    -0.166 F 
ATOM     30  F   UNL     1       5.943  -3.783  20.724  0.00  0.00    -0.166 F 
ENDBRANCH  21  27
ENDBRANCH  16  17
ENDBRANCH  14  16
ENDBRANCH   1  14
BRANCH   3  31
ATOM     31  C   UNL     1       6.514   2.892  26.042  0.00  0.00    +0.161 C 
BRANCH  31  32
ATOM     32  C   UNL     1       5.140   3.250  25.508  0.00  0.00    +0.145 A 
ATOM     33  N   UNL     1       4.104   2.401  25.647  0.00  0.00    -0.293 N 
ATOM     34  H   UNL     1       4.100   1.486  26.060  0.00  0.00    +0.172 HD
ATOM     35  C   UNL     1       3.021   3.029  25.105  0.00  0.00    +0.342 A 
ATOM     36  O   UNL     1       1.877   2.618  25.061  0.00  0.00    -0.245 OA
ATOM     37  N   UNL     1       3.504   4.244  24.630  0.00  0.00    -0.227 N 
ATOM     38  H   UNL     1       2.957   4.975  24.202  0.00  0.00    +0.194 HD
ATOM     39  N   UNL     1       4.843   4.367  24.907  0.00  0.00    -0.155 NA
ENDBRANCH  31  32
ENDBRANCH   3  31
TORSDOF 8
ENDMDL
MODEL 9
REMARK VINA RESULT:      -7.3      3.332      5.549
REMARK  Name = 
REMARK  9 active torsions:
REMARK  status: ('A' for Active; 'I' for Inactive)
REMARK    1  A    between atoms: C_1  and  C_2
REMARK    2  A    between atoms: C_2  and  O_4
REMARK    3  A    between atoms: C_2  and  C_27
REMARK    4  A    between atoms: O_4  and  C_5
REMARK    5  A    between atoms: N_10  and  C_11
REMARK    6  A    between atoms: C_11  and  C_12
REMARK    7  A    between atoms: C_18  and  C_20
REMARK    8  A    between atoms: C_29  and  C_37
REMARK    9  A    between atoms: C_31  and  C_33
REMARK                            x       y       z     vdW  Elec       q    Type
REMARK                         _______ _______ _______ _____ _____    ______ ____
ROOT
ATOM      1  C   UNL     1       5.927  -0.587  24.848  0.00  0.00    +0.272 C 
ATOM      2  C   UNL     1       7.303  -0.951  24.149  0.00  0.00    +0.144 C 
ATOM      3  N   UNL     1       8.513  -0.483  24.919  0.00  0.00    -0.282 NA
ATOM      4  C   UNL     1       8.293   0.958  25.255  0.00  0.00    +0.113 C 
ATOM      5  C   UNL     1       6.935   1.251  25.897  0.00  0.00    +0.178 C 
ATOM      6  O   UNL     1       5.864   0.834  25.047  0.00  0.00    -0.348 OA
ENDROOT
BRANCH   2   7
ATOM      7  C   UNL     1       7.309  -2.415  23.700  0.00  0.00    -0.025 A 
ATOM      8  C   UNL     1       7.752  -3.413  24.594  0.00  0.00    +0.008 A 
ATOM      9  C   UNL     1       7.870  -4.748  24.187  0.00  0.00    +0.038 A 
ATOM     10  C   UNL     1       7.543  -5.095  22.884  0.00  0.00    +0.123 A 
ATOM     11  F   UNL     1       7.670  -6.370  22.483  0.00  0.00    -0.205 F 
ATOM     12  C   UNL     1       7.091  -4.134  21.988  0.00  0.00    +0.038 A 
ATOM     13  C   UNL     1       6.974  -2.798  22.392  0.00  0.00    +0.008 A 
ENDBRANCH   2   7
BRANCH   1  14
ATOM     14  O   UNL     1       5.651  -1.302  26.076  0.00  0.00    -0.342 OA
BRANCH  14  16
ATOM     15  C   UNL     1       3.491  -1.142  27.203  0.00  0.00    +0.043 C 
ATOM     16  C   UNL     1       4.307  -1.835  26.121  0.00  0.00    +0.148 C 
BRANCH  16  17
ATOM     17  C   UNL     1       4.333  -3.346  26.260  0.00  0.00    -0.018 A 
ATOM     18  C   UNL     1       4.971  -3.983  27.334  0.00  0.00    +0.018 A 
ATOM     19  C   UNL     1       5.298  -5.348  27.262  0.00  0.00    +0.056 A 
ATOM     20  C   UNL     1       4.977  -6.064  26.094  0.00  0.00    +0.024 A 
ATOM     21  C   UNL     1       4.300  -5.449  25.030  0.00  0.00    +0.056 A 
ATOM     22  C   UNL     1       3.933  -4.106  25.151  0.00  0.00    +0.018 A 
BRANCH  19  23
ATOM     23  C   UNL     1       6.062  -5.998  28.392  0.00  0.00    +0.417 C 
ATOM     24  F   UNL     1       7.403  -6.037  28.163  0.00  0.00    -0.166 F 
ATOM     25  F   UNL     1       5.678  -7.288  28.606  0.00  0.00    -0.166 F 
ATOM     26  F   UNL     1       5.904  -5.363  29.587  0.00  0.00    -0.166 F 
ENDBRANCH  19  23
BRANCH  21  27
ATOM     27  C   UNL     1       4.103  -6.158  23.711  0.00  0.00    +0.417 C 
ATOM     28  F   UNL     1       2.896  -6.787  23.619  0.00  0.00    -0.166 F 
ATOM     29  F   UNL     1       5.046  -7.119  23.509  0.00  0.00    -0.166 F 
ATOM     30  F   UNL     1       4.176  -5.334  22.631  0.00  0.00    -0.166 F 
ENDBRANCH  21  27
ENDBRANCH  16  17
ENDBRANCH  14  16
ENDBRANCH   1  14
BRANCH   3  31
ATOM     31  C   UNL     1       9.738  -0.579  24.079  0.00  0.00    +0.161 C 
BRANCH  31  32
ATOM     32  C   UNL     1      10.041   0.732  23.377  0.00  0.00    +0.145 A 
ATOM     33  N   UNL     1      10.701   1.719  24.014  0.00  0.00    -0.293 N 
ATOM     34  H   UNL     1      11.031   1.736  24.961  0.00  0.00    +0.172 HD
ATOM     35  C   UNL     1      10.845   2.727  23.107  0.00  0.00    +0.342 A 
ATOM     36  O   UNL     1      11.419   3.788  23.270  0.00  0.00    -0.245 OA
ATOM     37  N   UNL     1      10.210   2.276  21.955  0.00  0.00    -0.227 N 
ATOM     38  H   UNL     1      10.161   2.762  21.072  0.00  0.00    +0.194 HD
ATOM     39  N   UNL     1       9.720   1.007  22.145  0.00  0.00    -0.155 NA
ENDBRANCH  31  32
ENDBRANCH   3  31
TORSDOF 8
ENDMDL
