MODEL 1
REMARK VINA RESULT:      -3.8      0.000      0.000
REMARK  Name = 
REMARK  4 active torsions:
REMARK  status: ('A' for Active; 'I' for Inactive)
REMARK    1  A    between atoms: O_1  and  C_2
REMARK    2  A    between atoms: C_2  and  C_4
REMARK    3  A    between atoms: C_4  and  C_6
REMARK    4  A    between atoms: C_6  and  C_7
REMARK                            x       y       z     vdW  Elec       q    Type
REMARK                         _______ _______ _______ _____ _____    ______ ____
ROOT
ATOM      1  C   UNL     1      10.443   0.967  23.681  0.00  0.00    +0.244 C 
ATOM      2  O   UNL     1      11.359   0.842  24.493  0.00  0.00    -0.285 OA
ENDROOT
BRANCH   1   3
ATOM      3  C   UNL     1      10.207   2.341  23.035  0.00  0.00    +0.373 C 
ATOM      4  O   UNL     1      10.066   3.343  23.719  0.00  0.00    -0.242 OA
BRANCH   3   5
ATOM      5  O   UNL     1      10.291   2.345  21.695  0.00  0.00    -0.475 OA
ATOM      6  H   UNL     1      11.077   1.781  21.409  0.00  0.00    +0.295 HD
ENDBRANCH   3   5
ENDBRANCH   1   3
BRANCH   1   7
ATOM      7  C   UNL     1       9.449  -0.110  23.386  0.00  0.00    +0.138 C 
BRANCH   7   8
ATOM      8  C   UNL     1       9.871  -0.894  22.172  0.00  0.00    +0.049 C 
ATOM      9  O   UNL     1      10.626  -1.872  22.396  0.00  0.00    -0.549 OA
ATOM     10  O   UNL     1       9.380  -0.492  21.073  0.00  0.00    -0.549 OA
ENDBRANCH   7   8
ENDBRANCH   1   7
TORSDOF 4
ENDMDL
MODEL 2
REMARK VINA RESULT:      -3.8      1.591      2.035
REMARK  Name = 
REMARK  4 active torsions:
REMARK  status: ('A' for Active; 'I' for Inactive)
REMARK    1  A    between atoms: O_1  and  C_2
REMARK    2  A    between atoms: C_2  and  C_4
REMARK    3  A    between atoms: C_4  and  C_6
REMARK    4  A    between atoms: C_6  and  C_7
REMARK                            x       y       z     vdW  Elec       q    Type
REMARK                         _______ _______ _______ _____ _____    ______ ____
ROOT
ATOM      1  C   UNL     1      10.243   0.116  22.773  0.00  0.00    +0.244 C 
ATOM      2  O   UNL     1      10.707   0.457  23.860  0.00  0.00    -0.285 OA
ENDROOT
BRANCH   1   3
ATOM      3  C   UNL     1       9.544   1.171  21.902  0.00  0.00    +0.373 C 
ATOM      4  O   UNL     1       8.360   1.069  21.616  0.00  0.00    -0.242 OA
BRANCH   3   5
ATOM      5  O   UNL     1      10.305   2.235  21.600  0.00  0.00    -0.475 OA
ATOM      6  H   UNL     1      10.703   2.110  20.681  0.00  0.00    +0.295 HD
ENDBRANCH   3   5
ENDBRANCH   1   3
BRANCH   1   7
ATOM      7  C   UNL     1      10.195  -1.303  22.304  0.00  0.00    +0.138 C 
BRANCH   7   8
ATOM      8  C   UNL     1       9.497  -2.167  23.319  0.00  0.00    +0.049 C 
ATOM      9  O   UNL     1      10.211  -3.042  23.867  0.00  0.00    -0.549 OA
ATOM     10  O   UNL     1       8.278  -1.879  23.524  0.00  0.00    -0.549 OA
ENDBRANCH   7   8
ENDBRANCH   1   7
TORSDOF 4
ENDMDL
MODEL 3
REMARK VINA RESULT:      -3.8      1.373      3.712
REMARK  Name = 
REMARK  4 active torsions:
REMARK  status: ('A' for Active; 'I' for Inactive)
REMARK    1  A    between atoms: O_1  and  C_2
REMARK    2  A    between atoms: C_2  and  C_4
REMARK    3  A    between atoms: C_4  and  C_6
REMARK    4  A    between atoms: C_6  and  C_7
REMARK                            x       y       z     vdW  Elec       q    Type
REMARK                         _______ _______ _______ _____ _____    ______ ____
ROOT
ATOM      1  C   UNL     1       9.708  -0.553  23.874  0.00  0.00    +0.244 C 
ATOM      2  O   UNL     1       8.614  -0.563  24.438  0.00  0.00    -0.285 OA
ENDROOT
BRANCH   1   3
ATOM      3  C   UNL     1      10.160  -1.808  23.112  0.00  0.00    +0.373 C 
ATOM      4  O   UNL     1      10.233  -2.893  23.670  0.00  0.00    -0.242 OA
BRANCH   3   5
ATOM      5  O   UNL     1      10.344  -1.621  21.795  0.00  0.00    -0.475 OA
ATOM      6  H   UNL     1       9.712  -0.904  21.470  0.00  0.00    +0.295 HD
ENDBRANCH   3   5
ENDBRANCH   1   3
BRANCH   1   7
ATOM      7  C   UNL     1      10.692   0.564  24.003  0.00  0.00    +0.138 C 
BRANCH   7   8
ATOM      8  C   UNL     1      10.272   1.734  23.153  0.00  0.00    +0.049 C 
ATOM      9  O   UNL     1      10.149   2.827  23.760  0.00  0.00    -0.549 OA
ATOM     10  O   UNL     1      10.130   1.479  21.919  0.00  0.00    -0.549 OA
ENDBRANCH   7   8
ENDBRANCH   1   7
TORSDOF 4
ENDMDL
MODEL 4
REMARK VINA RESULT:      -3.7      1.761      2.405
REMARK  Name = 
REMARK  4 active torsions:
REMARK  status: ('A' for Active; 'I' for Inactive)
REMARK    1  A    between atoms: O_1  and  C_2
REMARK    2  A    between atoms: C_2  and  C_4
REMARK    3  A    between atoms: C_4  and  C_6
REMARK    4  A    between atoms: C_6  and  C_7
REMARK                            x       y       z     vdW  Elec       q    Type
REMARK                         _______ _______ _______ _____ _____    ______ ____
ROOT
ATOM      1  C   UNL     1       8.427   0.401  22.138  0.00  0.00    +0.244 C 
ATOM      2  O   UNL     1       7.392   0.093  22.728  0.00  0.00    -0.285 OA
ENDROOT
BRANCH   1   3
ATOM      3  C   UNL     1       8.664   1.876  21.778  0.00  0.00    +0.373 C 
ATOM      4  O   UNL     1       7.752   2.687  21.811  0.00  0.00    -0.242 OA
BRANCH   3   5
ATOM      5  O   UNL     1       9.949   2.191  21.549  0.00  0.00    -0.475 OA
ATOM      6  H   UNL     1      10.524   1.374  21.698  0.00  0.00    +0.295 HD
ENDBRANCH   3   5
ENDBRANCH   1   3
BRANCH   1   7
ATOM      7  C   UNL     1       9.412  -0.599  21.623  0.00  0.00    +0.138 C 
BRANCH   7   8
ATOM      8  C   UNL     1      10.300  -1.082  22.739  0.00  0.00    +0.049 C 
ATOM      9  O   UNL     1      10.509  -2.320  22.766  0.00  0.00    -0.549 OA
ATOM     10  O   UNL     1      10.761  -0.172  23.493  0.00  0.00    -0.549 OA
ENDBRANCH   7   8
ENDBRANCH   1   7
TORSDOF 4
ENDMDL
MODEL 5
REMARK VINA RESULT:      -3.7      5.636      7.356
REMARK  Name = 
REMARK  4 active torsions:
REMARK  status: ('A' for Active; 'I' for Inactive)
REMARK    1  A    between atoms: O_1  and  C_2
REMARK    2  A    between atoms: C_2  and  C_4
REMARK    3  A    between atoms: C_4  and  C_6
REMARK    4  A    between atoms: C_6  and  C_7
REMARK                            x       y       z     vdW  Elec       q    Type
REMARK                         _______ _______ _______ _____ _____    ______ ____
ROOT
ATOM      1  C   UNL     1       7.929  -4.852  24.533  0.00  0.00    +0.244 C 
ATOM      2  O   UNL     1       7.510  -5.413  23.521  0.00  0.00    -0.285 OA
ENDROOT
BRANCH   1   3
ATOM      3  C   UNL     1       9.446  -4.681  24.711  0.00  0.00    +0.373 C 
ATOM      4  O   UNL     1      10.011  -3.659  24.353  0.00  0.00    -0.242 OA
BRANCH   3   5
ATOM      5  O   UNL     1      10.041  -5.678  25.384  0.00  0.00    -0.475 OA
ATOM      6  H   UNL     1      10.557  -5.294  26.162  0.00  0.00    +0.295 HD
ENDBRANCH   3   5
ENDBRANCH   1   3
BRANCH   1   7
ATOM      7  C   UNL     1       7.054  -4.446  25.675  0.00  0.00    +0.138 C 
BRANCH   7   8
ATOM      8  C   UNL     1       6.836  -5.608  26.607  0.00  0.00    +0.049 C 
ATOM      9  O   UNL     1       5.871  -6.358  26.320  0.00  0.00    -0.549 OA
ATOM     10  O   UNL     1       7.680  -5.708  27.549  0.00  0.00    -0.549 OA
ENDBRANCH   7   8
ENDBRANCH   1   7
TORSDOF 4
ENDMDL
MODEL 6
REMARK VINA RESULT:      -3.4      2.911      3.936
REMARK  Name = 
REMARK  4 active torsions:
REMARK  status: ('A' for Active; 'I' for Inactive)
REMARK    1  A    between atoms: O_1  and  C_2
REMARK    2  A    between atoms: C_2  and  C_4
REMARK    3  A    between atoms: C_4  and  C_6
REMARK    4  A    between atoms: C_6  and  C_7
REMARK                            x       y       z     vdW  Elec       q    Type
REMARK                         _______ _______ _______ _____ _____    ______ ____
ROOT
ATOM      1  C   UNL     1       9.436  -2.536  23.653  0.00  0.00    +0.244 C 
ATOM      2  O   UNL     1      10.192  -3.385  24.124  0.00  0.00    -0.285 OA
ENDROOT
BRANCH   1   3
ATOM      3  C   UNL     1      10.025  -1.431  22.762  0.00  0.00    +0.373 C 
ATOM      4  O   UNL     1      10.636  -0.490  23.245  0.00  0.00    -0.242 OA
BRANCH   3   5
ATOM      5  O   UNL     1       9.909  -1.661  21.444  0.00  0.00    -0.475 OA
ATOM      6  H   UNL     1      10.723  -2.162  21.120  0.00  0.00    +0.295 HD
ENDBRANCH   3   5
ENDBRANCH   1   3
BRANCH   1   7
ATOM      7  C   UNL     1       7.988  -2.430  24.010  0.00  0.00    +0.138 C 
BRANCH   7   8
ATOM      8  C   UNL     1       7.183  -3.441  23.239  0.00  0.00    +0.049 C 
ATOM      9  O   UNL     1       6.545  -4.270  23.934  0.00  0.00    -0.549 OA
ATOM     10  O   UNL     1       7.217  -3.307  21.977  0.00  0.00    -0.549 OA
ENDBRANCH   7   8
ENDBRANCH   1   7
TORSDOF 4
ENDMDL
MODEL 7
REMARK VINA RESULT:      -3.4      1.856      3.759
REMARK  Name = 
REMARK  4 active torsions:
REMARK  status: ('A' for Active; 'I' for Inactive)
REMARK    1  A    between atoms: O_1  and  C_2
REMARK    2  A    between atoms: C_2  and  C_4
REMARK    3  A    between atoms: C_4  and  C_6
REMARK    4  A    between atoms: C_6  and  C_7
REMARK                            x       y       z     vdW  Elec       q    Type
REMARK                         _______ _______ _______ _____ _____    ______ ____
ROOT
ATOM      1  C   UNL     1       8.892  -1.097  22.539  0.00  0.00    +0.244 C 
ATOM      2  O   UNL     1       7.695  -1.339  22.687  0.00  0.00    -0.285 OA
ENDROOT
BRANCH   1   3
ATOM      3  C   UNL     1       9.872  -1.490  23.656  0.00  0.00    +0.373 C 
ATOM      4  O   UNL     1      10.201  -0.688  24.517  0.00  0.00    -0.242 OA
BRANCH   3   5
ATOM      5  O   UNL     1      10.220  -2.787  23.657  0.00  0.00    -0.475 OA
ATOM      6  H   UNL     1       9.610  -3.296  23.034  0.00  0.00    +0.295 HD
ENDBRANCH   3   5
ENDBRANCH   1   3
BRANCH   1   7
ATOM      7  C   UNL     1       9.440  -0.311  21.391  0.00  0.00    +0.138 C 
BRANCH   7   8
ATOM      8  C   UNL     1       9.262   1.165  21.634  0.00  0.00    +0.049 C 
ATOM      9  O   UNL     1       8.134   1.629  21.339  0.00  0.00    -0.549 OA
ATOM     10  O   UNL     1      10.265   1.751  22.144  0.00  0.00    -0.549 OA
ENDBRANCH   7   8
ENDBRANCH   1   7
TORSDOF 4
ENDMDL
MODEL 8
REMARK VINA RESULT:      -3.4      1.545      3.569
REMARK  Name = 
REMARK  4 active torsions:
REMARK  status: ('A' for Active; 'I' for Inactive)
REMARK    1  A    between atoms: O_1  and  C_2
REMARK    2  A    between atoms: C_2  and  C_4
REMARK    3  A    between atoms: C_4  and  C_6
REMARK    4  A    between atoms: C_6  and  C_7
REMARK                            x       y       z     vdW  Elec       q    Type
REMARK                         _______ _______ _______ _____ _____    ______ ____
ROOT
ATOM      1  C   UNL     1      10.063   0.375  22.809  0.00  0.00    +0.244 C 
ATOM      2  O   UNL     1      10.719   0.344  23.849  0.00  0.00    -0.285 OA
ENDROOT
BRANCH   1   3
ATOM      3  C   UNL     1       9.456  -0.933  22.276  0.00  0.00    +0.373 C 
ATOM      4  O   UNL     1       8.302  -1.241  22.530  0.00  0.00    -0.242 OA
BRANCH   3   5
ATOM      5  O   UNL     1      10.254  -1.614  21.439  0.00  0.00    -0.475 OA
ATOM      6  H   UNL     1      11.142  -1.140  21.365  0.00  0.00    +0.295 HD
ENDBRANCH   3   5
ENDBRANCH   1   3
BRANCH   1   7
ATOM      7  C   UNL     1       9.936   1.591  21.948  0.00  0.00    +0.138 C 
BRANCH   7   8
ATOM      8  C   UNL     1       8.631   2.290  22.220  0.00  0.00    +0.049 C 
ATOM      9  O   UNL     1       7.682   1.981  21.457  0.00  0.00    -0.549 OA
ATOM     10  O   UNL     1       8.640   3.080  23.213  0.00  0.00    -0.549 OA
ENDBRANCH   7   8
ENDBRANCH   1   7
TORSDOF 4
ENDMDL
MODEL 9
REMARK VINA RESULT:      -3.4      2.801      4.160
REMARK  Name = 
REMARK  4 active torsions:
REMARK  status: ('A' for Active; 'I' for Inactive)
REMARK    1  A    between atoms: O_1  and  C_2
REMARK    2  A    between atoms: C_2  and  C_4
REMARK    3  A    between atoms: C_4  and  C_6
REMARK    4  A    between atoms: C_6  and  C_7
REMARK                            x       y       z     vdW  Elec       q    Type
REMARK                         _______ _______ _______ _____ _____    ______ ____
ROOT
ATOM      1  C   UNL     1       9.546  -2.329  23.822  0.00  0.00    +0.244 C 
ATOM      2  O   UNL     1      10.173  -3.365  24.043  0.00  0.00    -0.285 OA
ENDROOT
BRANCH   1   3
ATOM      3  C   UNL     1      10.175  -1.261  22.914  0.00  0.00    +0.373 C 
ATOM      4  O   UNL     1      10.623  -0.224  23.378  0.00  0.00    -0.242 OA
BRANCH   3   5
ATOM      5  O   UNL     1      10.287  -1.624  21.626  0.00  0.00    -0.475 OA
ATOM      6  H   UNL     1       9.528  -2.246  21.389  0.00  0.00    +0.295 HD
ENDBRANCH   3   5
ENDBRANCH   1   3
BRANCH   1   7
ATOM      7  C   UNL     1       8.259  -1.982  24.499  0.00  0.00    +0.138 C 
BRANCH   7   8
ATOM      8  C   UNL     1       8.438  -1.976  25.994  0.00  0.00    +0.049 C 
ATOM      9  O   UNL     1       8.975  -0.946  26.470  0.00  0.00    -0.549 OA
ATOM     10  O   UNL     1       7.989  -3.000  26.594  0.00  0.00    -0.549 OA
ENDBRANCH   7   8
ENDBRANCH   1   7
TORSDOF 4
ENDMDL
