MODEL 1
REMARK VINA RESULT:      -7.7      0.000      0.000
REMARK  Name = 
REMARK  1 active torsions:
REMARK  status: ('A' for Active; 'I' for Inactive)
REMARK    1  A    between atoms: C_9  and  C_10
REMARK                            x       y       z     vdW  Elec       q    Type
REMARK                         _______ _______ _______ _____ _____    ______ ____
ROOT
ATOM      1  N   UNL     1      10.193   2.154  21.486  0.00  0.00    -0.327 N 
ATOM      2  H   UNL     1      10.263   3.069  21.900  0.00  0.00    +0.145 HD
ATOM      3  H   UNL     1       9.694   2.072  20.612  0.00  0.00    +0.145 HD
ATOM      4  C   UNL     1       9.719   1.247  22.408  0.00  0.00    +0.214 A 
ATOM      5  N   UNL     1       9.894   1.572  23.688  0.00  0.00    -0.222 NA
ATOM      6  C   UNL     1       9.472   0.671  24.579  0.00  0.00    +0.126 A 
ATOM      7  C   UNL     1       8.878  -0.520  24.218  0.00  0.00    +0.038 A 
ATOM      8  C   UNL     1       8.470  -1.468  25.152  0.00  0.00    +0.025 A 
ATOM      9  C   UNL     1       7.865  -2.672  24.757  0.00  0.00    +0.023 A 
ATOM     10  C   UNL     1       7.646  -2.828  23.367  0.00  0.00    +0.132 A 
ATOM     11  N   UNL     1       6.966  -3.927  22.854  0.00  0.00    -0.307 N 
ATOM     12  C   UNL     1       7.567  -5.258  22.987  0.00  0.00    +0.134 C 
ATOM     13  C   UNL     1       6.910  -6.014  21.877  0.00  0.00    -0.011 C 
ATOM     14  C   UNL     1       6.184  -5.202  21.101  0.00  0.00    -0.011 C 
ATOM     15  C   UNL     1       6.266  -3.787  21.574  0.00  0.00    +0.134 C 
ATOM     16  N   UNL     1       8.050  -1.869  22.477  0.00  0.00    -0.212 NA
ATOM     17  C   UNL     1       8.678  -0.746  22.870  0.00  0.00    +0.167 A 
ATOM     18  N   UNL     1       9.102   0.146  21.970  0.00  0.00    -0.195 NA
ENDROOT
BRANCH   9  19
ATOM     19  C   UNL     1       7.434  -3.596  25.842  0.00  0.00    -0.015 A 
ATOM     20  C   UNL     1       6.193  -3.412  26.491  0.00  0.00    +0.008 A 
ATOM     21  C   UNL     1       5.693  -4.342  27.405  0.00  0.00    +0.001 A 
ATOM     22  C   UNL     1       6.452  -5.456  27.741  0.00  0.00    +0.000 A 
ATOM     23  C   UNL     1       7.704  -5.636  27.162  0.00  0.00    +0.001 A 
ATOM     24  C   UNL     1       8.174  -4.732  26.206  0.00  0.00    +0.008 A 
ENDBRANCH   9  19
TORSDOF 1
ENDMDL
MODEL 2
REMARK VINA RESULT:      -7.2      1.986      3.897
REMARK  Name = 
REMARK  1 active torsions:
REMARK  status: ('A' for Active; 'I' for Inactive)
REMARK    1  A    between atoms: C_9  and  C_10
REMARK                            x       y       z     vdW  Elec       q    Type
REMARK                         _______ _______ _______ _____ _____    ______ ____
ROOT
ATOM      1  N   UNL     1       9.974   3.717  23.323  0.00  0.00    -0.327 N 
ATOM      2  H   UNL     1      10.839   3.931  22.855  0.00  0.00    +0.145 HD
ATOM      3  H   UNL     1       9.905   3.938  24.306  0.00  0.00    +0.145 HD
ATOM      4  C   UNL     1       9.617   2.407  23.088  0.00  0.00    +0.214 A 
ATOM      5  N   UNL     1      10.136   1.848  21.996  0.00  0.00    -0.222 NA
ATOM      6  C   UNL     1       9.754   0.592  21.749  0.00  0.00    +0.126 A 
ATOM      7  C   UNL     1       8.889  -0.104  22.567  0.00  0.00    +0.038 A 
ATOM      8  C   UNL     1       8.470  -1.401  22.285  0.00  0.00    +0.025 A 
ATOM      9  C   UNL     1       7.590  -2.088  23.136  0.00  0.00    +0.023 A 
ATOM     10  C   UNL     1       7.209  -1.404  24.316  0.00  0.00    +0.132 A 
ATOM     11  N   UNL     1       6.424  -2.010  25.291  0.00  0.00    -0.307 N 
ATOM     12  C   UNL     1       5.042  -2.372  24.963  0.00  0.00    +0.134 C 
ATOM     13  C   UNL     1       4.398  -2.416  26.311  0.00  0.00    -0.011 C 
ATOM     14  C   UNL     1       5.227  -1.966  27.259  0.00  0.00    -0.011 C 
ATOM     15  C   UNL     1       6.536  -1.542  26.675  0.00  0.00    +0.134 C 
ATOM     16  N   UNL     1       7.650  -0.131  24.567  0.00  0.00    -0.212 NA
ATOM     17  C   UNL     1       8.450   0.532  23.712  0.00  0.00    +0.167 A 
ATOM     18  N   UNL     1       8.821   1.790  23.966  0.00  0.00    -0.195 NA
ENDROOT
BRANCH   9  19
ATOM     19  C   UNL     1       7.239  -3.484  22.756  0.00  0.00    -0.015 A 
ATOM     20  C   UNL     1       6.321  -3.735  21.713  0.00  0.00    +0.008 A 
ATOM     21  C   UNL     1       6.084  -5.025  21.233  0.00  0.00    +0.001 A 
ATOM     22  C   UNL     1       6.717  -6.109  21.827  0.00  0.00    +0.000 A 
ATOM     23  C   UNL     1       7.585  -5.901  22.894  0.00  0.00    +0.001 A 
ATOM     24  C   UNL     1       7.862  -4.602  23.333  0.00  0.00    +0.008 A 
ENDBRANCH   9  19
TORSDOF 1
ENDMDL
MODEL 3
REMARK VINA RESULT:      -6.8      2.907      6.313
REMARK  Name = 
REMARK  1 active torsions:
REMARK  status: ('A' for Active; 'I' for Inactive)
REMARK    1  A    between atoms: C_9  and  C_10
REMARK                            x       y       z     vdW  Elec       q    Type
REMARK                         _______ _______ _______ _____ _____    ______ ____
ROOT
ATOM      1  N   UNL     1       3.787  -7.605  28.916  0.00  0.00    -0.327 N 
ATOM      2  H   UNL     1       4.056  -7.786  29.869  0.00  0.00    +0.145 HD
ATOM      3  H   UNL     1       3.639  -8.399  28.311  0.00  0.00    +0.145 HD
ATOM      4  C   UNL     1       4.656  -6.705  28.339  0.00  0.00    +0.214 A 
ATOM      5  N   UNL     1       5.326  -5.919  29.180  0.00  0.00    -0.222 NA
ATOM      6  C   UNL     1       6.136  -5.020  28.616  0.00  0.00    +0.126 A 
ATOM      7  C   UNL     1       6.292  -4.902  27.251  0.00  0.00    +0.038 A 
ATOM      8  C   UNL     1       7.113  -3.940  26.669  0.00  0.00    +0.025 A 
ATOM      9  C   UNL     1       7.256  -3.845  25.276  0.00  0.00    +0.023 A 
ATOM     10  C   UNL     1       6.566  -4.818  24.515  0.00  0.00    +0.132 A 
ATOM     11  N   UNL     1       6.704  -4.898  23.133  0.00  0.00    -0.307 N 
ATOM     12  C   UNL     1       6.211  -3.791  22.307  0.00  0.00    +0.134 C 
ATOM     13  C   UNL     1       5.991  -4.456  20.986  0.00  0.00    -0.011 C 
ATOM     14  C   UNL     1       6.149  -5.781  21.078  0.00  0.00    -0.011 C 
ATOM     15  C   UNL     1       6.482  -6.189  22.477  0.00  0.00    +0.134 C 
ATOM     16  N   UNL     1       5.775  -5.759  25.122  0.00  0.00    -0.212 NA
ATOM     17  C   UNL     1       5.607  -5.801  26.456  0.00  0.00    +0.167 A 
ATOM     18  N   UNL     1       4.790  -6.701  27.010  0.00  0.00    -0.195 NA
ENDROOT
BRANCH   9  19
ATOM     19  C   UNL     1       8.189  -2.803  24.766  0.00  0.00    -0.015 A 
ATOM     20  C   UNL     1       9.439  -3.166  24.217  0.00  0.00    +0.008 A 
ATOM     21  C   UNL     1      10.272  -2.232  23.596  0.00  0.00    +0.001 A 
ATOM     22  C   UNL     1       9.901  -0.894  23.560  0.00  0.00    +0.000 A 
ATOM     23  C   UNL     1       8.701  -0.495  24.142  0.00  0.00    +0.001 A 
ATOM     24  C   UNL     1       7.846  -1.443  24.712  0.00  0.00    +0.008 A 
ENDBRANCH   9  19
TORSDOF 1
ENDMDL
MODEL 4
REMARK VINA RESULT:      -6.8      2.965      6.810
REMARK  Name = 
REMARK  1 active torsions:
REMARK  status: ('A' for Active; 'I' for Inactive)
REMARK    1  A    between atoms: C_9  and  C_10
REMARK                            x       y       z     vdW  Elec       q    Type
REMARK                         _______ _______ _______ _____ _____    ______ ____
ROOT
ATOM      1  N   UNL     1       7.031  -6.271  27.953  0.00  0.00    -0.327 N 
ATOM      2  H   UNL     1       7.271  -7.179  27.593  0.00  0.00    +0.145 HD
ATOM      3  H   UNL     1       6.065  -6.101  28.194  0.00  0.00    +0.145 HD
ATOM      4  C   UNL     1       7.507  -5.285  27.116  0.00  0.00    +0.214 A 
ATOM      5  N   UNL     1       8.527  -5.628  26.333  0.00  0.00    -0.222 NA
ATOM      6  C   UNL     1       9.014  -4.659  25.553  0.00  0.00    +0.126 A 
ATOM      7  C   UNL     1       8.498  -3.380  25.537  0.00  0.00    +0.038 A 
ATOM      8  C   UNL     1       9.032  -2.366  24.745  0.00  0.00    +0.025 A 
ATOM      9  C   UNL     1       8.485  -1.073  24.746  0.00  0.00    +0.023 A 
ATOM     10  C   UNL     1       7.334  -0.887  25.549  0.00  0.00    +0.132 A 
ATOM     11  N   UNL     1       6.637   0.317  25.560  0.00  0.00    -0.307 N 
ATOM     12  C   UNL     1       7.297   1.512  26.094  0.00  0.00    +0.134 C 
ATOM     13  C   UNL     1       6.134   2.371  26.477  0.00  0.00    -0.011 C 
ATOM     14  C   UNL     1       4.981   1.704  26.360  0.00  0.00    -0.011 C 
ATOM     15  C   UNL     1       5.212   0.301  25.898  0.00  0.00    +0.134 C 
ATOM     16  N   UNL     1       6.829  -1.911  26.306  0.00  0.00    -0.212 NA
ATOM     17  C   UNL     1       7.399  -3.129  26.335  0.00  0.00    +0.167 A 
ATOM     18  N   UNL     1       6.908  -4.091  27.122  0.00  0.00    -0.195 NA
ENDROOT
BRANCH   9  19
ATOM     19  C   UNL     1       9.112  -0.078  23.833  0.00  0.00    -0.015 A 
ATOM     20  C   UNL     1       8.660   0.060  22.502  0.00  0.00    +0.008 A 
ATOM     21  C   UNL     1       9.121   1.080  21.667  0.00  0.00    +0.001 A 
ATOM     22  C   UNL     1      10.096   1.957  22.125  0.00  0.00    +0.000 A 
ATOM     23  C   UNL     1      10.604   1.813  23.412  0.00  0.00    +0.001 A 
ATOM     24  C   UNL     1      10.097   0.826  24.262  0.00  0.00    +0.008 A 
ENDBRANCH   9  19
TORSDOF 1
ENDMDL
MODEL 5
REMARK VINA RESULT:      -6.6      3.097      6.829
REMARK  Name = 
REMARK  1 active torsions:
REMARK  status: ('A' for Active; 'I' for Inactive)
REMARK    1  A    between atoms: C_9  and  C_10
REMARK                            x       y       z     vdW  Elec       q    Type
REMARK                         _______ _______ _______ _____ _____    ______ ____
ROOT
ATOM      1  N   UNL     1       3.933  -6.773  23.303  0.00  0.00    -0.327 N 
ATOM      2  H   UNL     1       3.691  -7.234  22.442  0.00  0.00    +0.145 HD
ATOM      3  H   UNL     1       3.188  -6.575  23.955  0.00  0.00    +0.145 HD
ATOM      4  C   UNL     1       4.672  -5.638  23.045  0.00  0.00    +0.214 A 
ATOM      5  N   UNL     1       5.310  -5.612  21.876  0.00  0.00    -0.222 NA
ATOM      6  C   UNL     1       6.059  -4.530  21.647  0.00  0.00    +0.126 A 
ATOM      7  C   UNL     1       6.169  -3.489  22.545  0.00  0.00    +0.038 A 
ATOM      8  C   UNL     1       6.977  -2.380  22.313  0.00  0.00    +0.025 A 
ATOM      9  C   UNL     1       7.068  -1.333  23.244  0.00  0.00    +0.023 A 
ATOM     10  C   UNL     1       6.247  -1.451  24.391  0.00  0.00    +0.132 A 
ATOM     11  N   UNL     1       6.166  -0.437  25.340  0.00  0.00    -0.307 N 
ATOM     12  C   UNL     1       7.357  -0.110  26.130  0.00  0.00    +0.134 C 
ATOM     13  C   UNL     1       6.765   0.528  27.345  0.00  0.00    -0.011 C 
ATOM     14  C   UNL     1       5.432   0.420  27.348  0.00  0.00    -0.011 C 
ATOM     15  C   UNL     1       4.947  -0.321  26.143  0.00  0.00    +0.134 C 
ATOM     16  N   UNL     1       5.454  -2.552  24.581  0.00  0.00    -0.212 NA
ATOM     17  C   UNL     1       5.421  -3.572  23.704  0.00  0.00    +0.167 A 
ATOM     18  N   UNL     1       4.673  -4.652  23.945  0.00  0.00    -0.195 NA
ENDROOT
BRANCH   9  19
ATOM     19  C   UNL     1       7.933  -0.179  22.875  0.00  0.00    -0.015 A 
ATOM     20  C   UNL     1       9.340  -0.296  22.910  0.00  0.00    +0.008 A 
ATOM     21  C   UNL     1      10.177   0.713  22.429  0.00  0.00    +0.001 A 
ATOM     22  C   UNL     1       9.628   1.897  21.954  0.00  0.00    +0.000 A 
ATOM     23  C   UNL     1       8.247   2.066  21.958  0.00  0.00    +0.001 A 
ATOM     24  C   UNL     1       7.412   1.030  22.388  0.00  0.00    +0.008 A 
ENDBRANCH   9  19
TORSDOF 1
ENDMDL
MODEL 6
REMARK VINA RESULT:      -6.6      2.847      6.068
REMARK  Name = 
REMARK  1 active torsions:
REMARK  status: ('A' for Active; 'I' for Inactive)
REMARK    1  A    between atoms: C_9  and  C_10
REMARK                            x       y       z     vdW  Elec       q    Type
REMARK                         _______ _______ _______ _____ _____    ______ ____
ROOT
ATOM      1  N   UNL     1       9.789  -6.127  25.300  0.00  0.00    -0.327 N 
ATOM      2  H   UNL     1       9.805  -6.689  26.135  0.00  0.00    +0.145 HD
ATOM      3  H   UNL     1      10.662  -5.981  24.814  0.00  0.00    +0.145 HD
ATOM      4  C   UNL     1       9.160  -4.925  25.547  0.00  0.00    +0.214 A 
ATOM      5  N   UNL     1       8.322  -4.908  26.582  0.00  0.00    -0.222 NA
ATOM      6  C   UNL     1       7.682  -3.755  26.793  0.00  0.00    +0.126 A 
ATOM      7  C   UNL     1       7.873  -2.636  26.008  0.00  0.00    +0.038 A 
ATOM      8  C   UNL     1       7.179  -1.447  26.214  0.00  0.00    +0.025 A 
ATOM      9  C   UNL     1       7.394  -0.324  25.401  0.00  0.00    +0.023 A 
ATOM     10  C   UNL     1       8.395  -0.459  24.410  0.00  0.00    +0.132 A 
ATOM     11  N   UNL     1       8.778   0.610  23.606  0.00  0.00    -0.307 N 
ATOM     12  C   UNL     1       7.806   1.167  22.660  0.00  0.00    +0.134 C 
ATOM     13  C   UNL     1       8.691   1.816  21.644  0.00  0.00    -0.011 C 
ATOM     14  C   UNL     1       9.977   1.521  21.863  0.00  0.00    -0.011 C 
ATOM     15  C   UNL     1      10.131   0.621  23.046  0.00  0.00    +0.134 C 
ATOM     16  N   UNL     1       9.068  -1.641  24.243  0.00  0.00    -0.212 NA
ATOM     17  C   UNL     1       8.809  -2.725  24.996  0.00  0.00    +0.167 A 
ATOM     18  N   UNL     1       9.450  -3.876  24.773  0.00  0.00    -0.195 NA
ENDROOT
BRANCH   9  19
ATOM     19  C   UNL     1       6.624   0.906  25.737  0.00  0.00    -0.015 A 
ATOM     20  C   UNL     1       7.229   1.957  26.460  0.00  0.00    +0.008 A 
ATOM     21  C   UNL     1       6.586   3.181  26.661  0.00  0.00    +0.001 A 
ATOM     22  C   UNL     1       5.292   3.364  26.193  0.00  0.00    +0.000 A 
ATOM     23  C   UNL     1       4.646   2.328  25.526  0.00  0.00    +0.001 A 
ATOM     24  C   UNL     1       5.316   1.126  25.278  0.00  0.00    +0.008 A 
ENDBRANCH   9  19
TORSDOF 1
ENDMDL
MODEL 7
REMARK VINA RESULT:      -6.5      2.193      4.004
REMARK  Name = 
REMARK  1 active torsions:
REMARK  status: ('A' for Active; 'I' for Inactive)
REMARK    1  A    between atoms: C_9  and  C_10
REMARK                            x       y       z     vdW  Elec       q    Type
REMARK                         _______ _______ _______ _____ _____    ______ ____
ROOT
ATOM      1  N   UNL     1      10.061   2.233  21.485  0.00  0.00    -0.327 N 
ATOM      2  H   UNL     1      10.811   1.996  20.858  0.00  0.00    +0.145 HD
ATOM      3  H   UNL     1      10.224   2.972  22.154  0.00  0.00    +0.145 HD
ATOM      4  C   UNL     1       9.587   1.101  22.112  0.00  0.00    +0.214 A 
ATOM      5  N   UNL     1       9.818  -0.052  21.485  0.00  0.00    -0.222 NA
ATOM      6  C   UNL     1       9.322  -1.143  22.074  0.00  0.00    +0.126 A 
ATOM      7  C   UNL     1       8.621  -1.102  23.261  0.00  0.00    +0.038 A 
ATOM      8  C   UNL     1       8.078  -2.240  23.852  0.00  0.00    +0.025 A 
ATOM      9  C   UNL     1       7.371  -2.170  25.063  0.00  0.00    +0.023 A 
ATOM     10  C   UNL     1       7.301  -0.891  25.666  0.00  0.00    +0.132 A 
ATOM     11  N   UNL     1       6.718  -0.703  26.915  0.00  0.00    -0.307 N 
ATOM     12  C   UNL     1       5.279  -0.940  27.068  0.00  0.00    +0.134 C 
ATOM     13  C   UNL     1       4.949  -0.113  28.269  0.00  0.00    -0.011 C 
ATOM     14  C   UNL     1       5.992   0.636  28.643  0.00  0.00    -0.011 C 
ATOM     15  C   UNL     1       7.160   0.428  27.734  0.00  0.00    +0.134 C 
ATOM     16  N   UNL     1       7.857   0.206  25.062  0.00  0.00    -0.212 NA
ATOM     17  C   UNL     1       8.484   0.129  23.874  0.00  0.00    +0.167 A 
ATOM     18  N   UNL     1       8.972   1.227  23.291  0.00  0.00    -0.195 NA
ENDROOT
BRANCH   9  19
ATOM     19  C   UNL     1       6.867  -3.454  25.622  0.00  0.00    -0.015 A 
ATOM     20  C   UNL     1       5.748  -4.097  25.049  0.00  0.00    +0.008 A 
ATOM     21  C   UNL     1       5.341  -5.371  25.451  0.00  0.00    +0.001 A 
ATOM     22  C   UNL     1       6.011  -6.014  26.484  0.00  0.00    +0.000 A 
ATOM     23  C   UNL     1       7.083  -5.384  27.108  0.00  0.00    +0.001 A 
ATOM     24  C   UNL     1       7.521  -4.133  26.662  0.00  0.00    +0.008 A 
ENDBRANCH   9  19
TORSDOF 1
ENDMDL
MODEL 8
REMARK VINA RESULT:      -6.3      2.579      5.983
REMARK  Name = 
REMARK  1 active torsions:
REMARK  status: ('A' for Active; 'I' for Inactive)
REMARK    1  A    between atoms: C_9  and  C_10
REMARK                            x       y       z     vdW  Elec       q    Type
REMARK                         _______ _______ _______ _____ _____    ______ ____
ROOT
ATOM      1  N   UNL     1       6.039  -6.378  21.197  0.00  0.00    -0.327 N 
ATOM      2  H   UNL     1       5.726  -7.216  21.659  0.00  0.00    +0.145 HD
ATOM      3  H   UNL     1       6.939  -6.403  20.739  0.00  0.00    +0.145 HD
ATOM      4  C   UNL     1       5.955  -5.302  22.053  0.00  0.00    +0.214 A 
ATOM      5  N   UNL     1       5.095  -5.426  23.062  0.00  0.00    -0.222 NA
ATOM      6  C   UNL     1       4.985  -4.365  23.865  0.00  0.00    +0.126 A 
ATOM      7  C   UNL     1       5.715  -3.208  23.686  0.00  0.00    +0.038 A 
ATOM      8  C   UNL     1       5.571  -2.094  24.508  0.00  0.00    +0.025 A 
ATOM      9  C   UNL     1       6.328  -0.930  24.303  0.00  0.00    +0.023 A 
ATOM     10  C   UNL     1       7.280  -0.986  23.257  0.00  0.00    +0.132 A 
ATOM     11  N   UNL     1       8.163   0.060  23.015  0.00  0.00    -0.307 N 
ATOM     12  C   UNL     1       7.628   1.349  22.564  0.00  0.00    +0.134 C 
ATOM     13  C   UNL     1       8.809   1.959  21.879  0.00  0.00    -0.011 C 
ATOM     14  C   UNL     1       9.817   1.087  21.782  0.00  0.00    -0.011 C 
ATOM     15  C   UNL     1       9.446  -0.236  22.373  0.00  0.00    +0.134 C 
ATOM     16  N   UNL     1       7.403  -2.105  22.475  0.00  0.00    -0.212 NA
ATOM     17  C   UNL     1       6.630  -3.191  22.650  0.00  0.00    +0.167 A 
ATOM     18  N   UNL     1       6.744  -4.245  21.838  0.00  0.00    -0.195 NA
ENDROOT
BRANCH   9  19
ATOM     19  C   UNL     1       6.119   0.186  25.266  0.00  0.00    -0.015 A 
ATOM     20  C   UNL     1       6.952   0.323  26.399  0.00  0.00    +0.008 A 
ATOM     21  C   UNL     1       6.880   1.437  27.238  0.00  0.00    +0.001 A 
ATOM     22  C   UNL     1       5.927   2.419  26.999  0.00  0.00    +0.000 A 
ATOM     23  C   UNL     1       5.054   2.286  25.925  0.00  0.00    +0.001 A 
ATOM     24  C   UNL     1       5.169   1.197  25.055  0.00  0.00    +0.008 A 
ENDBRANCH   9  19
TORSDOF 1
ENDMDL
MODEL 9
REMARK VINA RESULT:      -6.2      2.854      6.869
REMARK  Name = 
REMARK  1 active torsions:
REMARK  status: ('A' for Active; 'I' for Inactive)
REMARK    1  A    between atoms: C_9  and  C_10
REMARK                            x       y       z     vdW  Elec       q    Type
REMARK                         _______ _______ _______ _____ _____    ______ ____
ROOT
ATOM      1  N   UNL     1       3.687  -7.516  26.141  0.00  0.00    -0.327 N 
ATOM      2  H   UNL     1       3.207  -8.122  25.496  0.00  0.00    +0.145 HD
ATOM      3  H   UNL     1       3.137  -7.056  26.852  0.00  0.00    +0.145 HD
ATOM      4  C   UNL     1       4.460  -6.605  25.454  0.00  0.00    +0.214 A 
ATOM      5  N   UNL     1       4.812  -6.954  24.218  0.00  0.00    -0.222 NA
ATOM      6  C   UNL     1       5.596  -6.089  23.570  0.00  0.00    +0.126 A 
ATOM      7  C   UNL     1       6.016  -4.898  24.124  0.00  0.00    +0.038 A 
ATOM      8  C   UNL     1       6.860  -4.015  23.455  0.00  0.00    +0.025 A 
ATOM      9  C   UNL     1       7.271  -2.808  24.042  0.00  0.00    +0.023 A 
ATOM     10  C   UNL     1       6.728  -2.523  25.318  0.00  0.00    +0.132 A 
ATOM     11  N   UNL     1       6.973  -1.316  25.964  0.00  0.00    -0.307 N 
ATOM     12  C   UNL     1       8.341  -1.007  26.391  0.00  0.00    +0.134 C 
ATOM     13  C   UNL     1       8.114  -0.017  27.488  0.00  0.00    -0.011 C 
ATOM     14  C   UNL     1       6.813   0.091  27.781  0.00  0.00    -0.011 C 
ATOM     15  C   UNL     1       5.990  -0.824  26.932  0.00  0.00    +0.134 C 
ATOM     16  N   UNL     1       5.890  -3.410  25.942  0.00  0.00    -0.212 NA
ATOM     17  C   UNL     1       5.551  -4.588  25.388  0.00  0.00    +0.167 A 
ATOM     18  N   UNL     1       4.771  -5.449  26.046  0.00  0.00    -0.195 NA
ENDROOT
BRANCH   9  19
ATOM     19  C   UNL     1       8.143  -1.924  23.221  0.00  0.00    -0.015 A 
ATOM     20  C   UNL     1       7.647  -0.708  22.701  0.00  0.00    +0.008 A 
ATOM     21  C   UNL     1       8.476   0.212  22.056  0.00  0.00    +0.001 A 
ATOM     22  C   UNL     1       9.818  -0.088  21.859  0.00  0.00    +0.000 A 
ATOM     23  C   UNL     1      10.325  -1.303  22.309  0.00  0.00    +0.001 A 
ATOM     24  C   UNL     1       9.503  -2.195  23.004  0.00  0.00    +0.008 A 
ENDBRANCH   9  19
TORSDOF 1
ENDMDL
