MODEL 1
REMARK VINA RESULT:      -6.7      0.000      0.000
REMARK  Name = 
REMARK  8 active torsions:
REMARK  status: ('A' for Active; 'I' for Inactive)
REMARK    1  A    between atoms: C_5  and  C_6
REMARK    2  A    between atoms: C_6  and  O_7
REMARK    3  A    between atoms: O_7  and  S_8
REMARK    4  A    between atoms: S_8  and  N_9
REMARK    5  A    between atoms: C_13  and  C_14
REMARK    6  A    between atoms: C_13  and  C_15
REMARK    7  A    between atoms: C_22  and  C_23
REMARK    8  A    between atoms: C_22  and  C_24
REMARK                            x       y       z     vdW  Elec       q    Type
REMARK                         _______ _______ _______ _____ _____    ______ ____
ROOT
ATOM      1  C   UNL     1       9.845  -1.159  24.349  0.00  0.00    +0.179 C 
ATOM      2  O   UNL     1      10.414  -0.260  23.382  0.00  0.00    -0.341 OA
ATOM      3  C   UNL     1       9.316   0.187  22.579  0.00  0.00    +0.166 C 
ATOM      4  C   UNL     1       9.355  -0.543  21.234  0.00  0.00    +0.074 C 
ATOM      5  C   UNL     1       9.415   1.688  22.331  0.00  0.00    +0.074 C 
ATOM      6  O   UNL     1       8.090  -0.089  23.278  0.00  0.00    -0.341 OA
ATOM      7  C   UNL     1       8.474  -0.597  24.569  0.00  0.00    +0.187 C 
ATOM      8  C   UNL     1       7.503  -1.643  25.070  0.00  0.00    +0.214 C 
ATOM      9  C   UNL     1       7.404  -2.810  24.111  0.00  0.00    +0.228 C 
ATOM     10  O   UNL     1       6.768  -3.800  24.938  0.00  0.00    -0.313 OA
ATOM     11  C   UNL     1       7.296  -3.584  26.250  0.00  0.00    +0.169 C 
ATOM     12  C   UNL     1       6.155  -3.695  27.263  0.00  0.00    +0.074 C 
ATOM     13  C   UNL     1       8.329  -4.671  26.537  0.00  0.00    +0.074 C 
ATOM     14  O   UNL     1       8.649  -3.319  23.627  0.00  0.00    -0.342 OA
ATOM     15  O   UNL     1       7.904  -2.274  26.308  0.00  0.00    -0.338 OA
ATOM     16  C   UNL     1       9.869  -2.610  23.844  0.00  0.00    +0.197 C 
ENDROOT
BRANCH   9  17
ATOM     17  C   UNL     1       6.493  -2.529  22.905  0.00  0.00    +0.262 C 
BRANCH  17  18
ATOM     18  O   UNL     1       6.860  -3.384  21.824  0.00  0.00    -0.220 OA
BRANCH  18  19
ATOM     19  S   UNL     1       6.001  -4.734  21.637  0.00  0.00    +0.149 S 
ATOM     20  O   UNL     1       6.026  -5.092  20.243  0.00  0.00    -0.130 OA
ATOM     21  O   UNL     1       4.773  -4.597  22.384  0.00  0.00    -0.130 OA
BRANCH  19  22
ATOM     22  N   UNL     1       6.947  -5.839  22.455  0.00  0.00    -0.183 NA
ATOM     23  H   UNL     1       7.061  -6.677  21.890  0.00  0.00    +0.146 HD
ATOM     24  H   UNL     1       7.827  -5.408  22.720  0.00  0.00    +0.146 HD
ENDBRANCH  19  22
ENDBRANCH  18  19
ENDBRANCH  17  18
ENDBRANCH   9  17
TORSDOF 4
ENDMDL
MODEL 2
REMARK VINA RESULT:      -6.4      1.641      2.100
REMARK  Name = 
REMARK  8 active torsions:
REMARK  status: ('A' for Active; 'I' for Inactive)
REMARK    1  A    between atoms: C_5  and  C_6
REMARK    2  A    between atoms: C_6  and  O_7
REMARK    3  A    between atoms: O_7  and  S_8
REMARK    4  A    between atoms: S_8  and  N_9
REMARK    5  A    between atoms: C_13  and  C_14
REMARK    6  A    between atoms: C_13  and  C_15
REMARK    7  A    between atoms: C_22  and  C_23
REMARK    8  A    between atoms: C_22  and  C_24
REMARK                            x       y       z     vdW  Elec       q    Type
REMARK                         _______ _______ _______ _____ _____    ______ ____
ROOT
ATOM      1  C   UNL     1       7.861  -0.385  24.540  0.00  0.00    +0.179 C 
ATOM      2  O   UNL     1       8.989   0.290  23.953  0.00  0.00    -0.341 OA
ATOM      3  C   UNL     1       9.174  -0.317  22.670  0.00  0.00    +0.166 C 
ATOM      4  C   UNL     1      10.372  -1.268  22.739  0.00  0.00    +0.074 C 
ATOM      5  C   UNL     1       9.449   0.747  21.613  0.00  0.00    +0.074 C 
ATOM      6  O   UNL     1       7.975  -1.026  22.315  0.00  0.00    -0.341 OA
ATOM      7  C   UNL     1       7.019  -0.733  23.350  0.00  0.00    +0.187 C 
ATOM      8  C   UNL     1       6.111  -1.912  23.622  0.00  0.00    +0.214 C 
ATOM      9  C   UNL     1       6.900  -3.135  24.036  0.00  0.00    +0.228 C 
ATOM     10  O   UNL     1       5.864  -3.962  24.595  0.00  0.00    -0.313 OA
ATOM     11  C   UNL     1       4.963  -3.051  25.231  0.00  0.00    +0.169 C 
ATOM     12  C   UNL     1       3.529  -3.485  24.924  0.00  0.00    +0.074 C 
ATOM     13  C   UNL     1       5.196  -3.119  26.738  0.00  0.00    +0.074 C 
ATOM     14  O   UNL     1       7.915  -2.911  25.019  0.00  0.00    -0.342 OA
ATOM     15  O   UNL     1       5.209  -1.715  24.736  0.00  0.00    -0.338 OA
ATOM     16  C   UNL     1       8.309  -1.588  25.383  0.00  0.00    +0.197 C 
ENDROOT
BRANCH   9  17
ATOM     17  C   UNL     1       7.529  -3.882  22.850  0.00  0.00    +0.262 C 
BRANCH  17  18
ATOM     18  O   UNL     1       6.542  -4.088  21.842  0.00  0.00    -0.220 OA
BRANCH  18  19
ATOM     19  S   UNL     1       6.233  -5.613  21.423  0.00  0.00    +0.149 S 
ATOM     20  O   UNL     1       7.249  -6.453  22.002  0.00  0.00    -0.130 OA
ATOM     21  O   UNL     1       5.910  -5.640  20.015  0.00  0.00    -0.130 OA
BRANCH  19  22
ATOM     22  N   UNL     1       4.813  -5.899  22.252  0.00  0.00    -0.183 NA
ATOM     23  H   UNL     1       4.018  -5.664  21.663  0.00  0.00    +0.146 HD
ATOM     24  H   UNL     1       4.798  -6.857  22.587  0.00  0.00    +0.146 HD
ENDBRANCH  19  22
ENDBRANCH  18  19
ENDBRANCH  17  18
ENDBRANCH   9  17
TORSDOF 4
ENDMDL
MODEL 3
REMARK VINA RESULT:      -6.4      2.771      5.142
REMARK  Name = 
REMARK  8 active torsions:
REMARK  status: ('A' for Active; 'I' for Inactive)
REMARK    1  A    between atoms: C_5  and  C_6
REMARK    2  A    between atoms: C_6  and  O_7
REMARK    3  A    between atoms: O_7  and  S_8
REMARK    4  A    between atoms: S_8  and  N_9
REMARK    5  A    between atoms: C_13  and  C_14
REMARK    6  A    between atoms: C_13  and  C_15
REMARK    7  A    between atoms: C_22  and  C_23
REMARK    8  A    between atoms: C_22  and  C_24
REMARK                            x       y       z     vdW  Elec       q    Type
REMARK                         _______ _______ _______ _____ _____    ______ ____
ROOT
ATOM      1  C   UNL     1       5.913  -3.108  22.863  0.00  0.00    +0.179 C 
ATOM      2  O   UNL     1       4.967  -4.002  22.251  0.00  0.00    -0.341 OA
ATOM      3  C   UNL     1       4.690  -5.001  23.238  0.00  0.00    +0.166 C 
ATOM      4  C   UNL     1       5.438  -6.285  22.870  0.00  0.00    +0.074 C 
ATOM      5  C   UNL     1       3.195  -5.297  23.290  0.00  0.00    +0.074 C 
ATOM      6  O   UNL     1       5.111  -4.513  24.523  0.00  0.00    -0.341 OA
ATOM      7  C   UNL     1       5.534  -3.153  24.312  0.00  0.00    +0.187 C 
ATOM      8  C   UNL     1       6.690  -2.780  25.214  0.00  0.00    +0.214 C 
ATOM      9  C   UNL     1       7.880  -3.688  24.993  0.00  0.00    +0.228 C 
ATOM     10  O   UNL     1       8.927  -2.938  25.632  0.00  0.00    -0.313 OA
ATOM     11  C   UNL     1       8.614  -1.566  25.376  0.00  0.00    +0.169 C 
ATOM     12  C   UNL     1       8.853  -0.761  26.655  0.00  0.00    +0.074 C 
ATOM     13  C   UNL     1       9.546  -1.057  24.280  0.00  0.00    +0.074 C 
ATOM     14  O   UNL     1       8.229  -3.926  23.626  0.00  0.00    -0.342 OA
ATOM     15  O   UNL     1       7.233  -1.464  24.960  0.00  0.00    -0.338 OA
ATOM     16  C   UNL     1       7.358  -3.534  22.565  0.00  0.00    +0.197 C 
ENDROOT
BRANCH   9  17
ATOM     17  C   UNL     1       7.751  -5.043  25.704  0.00  0.00    +0.262 C 
BRANCH  17  18
ATOM     18  O   UNL     1       7.623  -4.832  27.109  0.00  0.00    -0.220 OA
BRANCH  18  19
ATOM     19  S   UNL     1       6.373  -5.535  27.842  0.00  0.00    +0.149 S 
ATOM     20  O   UNL     1       5.409  -4.515  28.162  0.00  0.00    -0.130 OA
ATOM     21  O   UNL     1       6.886  -6.458  28.828  0.00  0.00    -0.130 OA
BRANCH  19  22
ATOM     22  N   UNL     1       5.738  -6.453  26.601  0.00  0.00    -0.183 NA
ATOM     23  H   UNL     1       4.933  -6.975  26.938  0.00  0.00    +0.146 HD
ATOM     24  H   UNL     1       5.530  -5.857  25.806  0.00  0.00    +0.146 HD
ENDBRANCH  19  22
ENDBRANCH  18  19
ENDBRANCH  17  18
ENDBRANCH   9  17
TORSDOF 4
ENDMDL
MODEL 4
REMARK VINA RESULT:      -6.4      2.487      4.038
REMARK  Name = 
REMARK  8 active torsions:
REMARK  status: ('A' for Active; 'I' for Inactive)
REMARK    1  A    between atoms: C_5  and  C_6
REMARK    2  A    between atoms: C_6  and  O_7
REMARK    3  A    between atoms: O_7  and  S_8
REMARK    4  A    between atoms: S_8  and  N_9
REMARK    5  A    between atoms: C_13  and  C_14
REMARK    6  A    between atoms: C_13  and  C_15
REMARK    7  A    between atoms: C_22  and  C_23
REMARK    8  A    between atoms: C_22  and  C_24
REMARK                            x       y       z     vdW  Elec       q    Type
REMARK                         _______ _______ _______ _____ _____    ______ ____
ROOT
ATOM      1  C   UNL     1       8.102  -0.888  22.972  0.00  0.00    +0.179 C 
ATOM      2  O   UNL     1       8.716   0.282  23.541  0.00  0.00    -0.341 OA
ATOM      3  C   UNL     1       9.370  -0.168  24.732  0.00  0.00    +0.166 C 
ATOM      4  C   UNL     1       8.535   0.250  25.945  0.00  0.00    +0.074 C 
ATOM      5  C   UNL     1      10.756   0.456  24.847  0.00  0.00    +0.074 C 
ATOM      6  O   UNL     1       9.508  -1.598  24.673  0.00  0.00    -0.341 OA
ATOM      7  C   UNL     1       9.038  -1.989  23.370  0.00  0.00    +0.187 C 
ATOM      8  C   UNL     1       8.350  -3.335  23.404  0.00  0.00    +0.214 C 
ATOM      9  C   UNL     1       7.171  -3.331  24.353  0.00  0.00    +0.228 C 
ATOM     10  O   UNL     1       6.475  -4.521  23.942  0.00  0.00    -0.313 OA
ATOM     11  C   UNL     1       6.660  -4.590  22.525  0.00  0.00    +0.169 C 
ATOM     12  C   UNL     1       6.962  -6.039  22.140  0.00  0.00    +0.074 C 
ATOM     13  C   UNL     1       5.363  -4.152  21.850  0.00  0.00    +0.074 C 
ATOM     14  O   UNL     1       6.296  -2.205  24.244  0.00  0.00    -0.342 OA
ATOM     15  O   UNL     1       7.752  -3.723  22.145  0.00  0.00    -0.338 OA
ATOM     16  C   UNL     1       6.660  -1.060  23.472  0.00  0.00    +0.197 C 
ENDROOT
BRANCH   9  17
ATOM     17  C   UNL     1       7.576  -3.490  25.826  0.00  0.00    +0.262 C 
BRANCH  17  18
ATOM     18  O   UNL     1       6.466  -3.983  26.573  0.00  0.00    -0.220 OA
BRANCH  18  19
ATOM     19  S   UNL     1       6.662  -5.390  27.332  0.00  0.00    +0.149 S 
ATOM     20  O   UNL     1       5.976  -6.406  26.579  0.00  0.00    -0.130 OA
ATOM     21  O   UNL     1       6.435  -5.180  28.743  0.00  0.00    -0.130 OA
BRANCH  19  22
ATOM     22  N   UNL     1       8.300  -5.642  27.137  0.00  0.00    -0.183 NA
ATOM     23  H   UNL     1       8.462  -6.238  26.329  0.00  0.00    +0.146 HD
ATOM     24  H   UNL     1       8.781  -4.749  27.082  0.00  0.00    +0.146 HD
ENDBRANCH  19  22
ENDBRANCH  18  19
ENDBRANCH  17  18
ENDBRANCH   9  17
TORSDOF 4
ENDMDL
MODEL 5
REMARK VINA RESULT:      -6.2      2.498      3.492
REMARK  Name = 
REMARK  8 active torsions:
REMARK  status: ('A' for Active; 'I' for Inactive)
REMARK    1  A    between atoms: C_5  and  C_6
REMARK    2  A    between atoms: C_6  and  O_7
REMARK    3  A    between atoms: O_7  and  S_8
REMARK    4  A    between atoms: S_8  and  N_9
REMARK    5  A    between atoms: C_13  and  C_14
REMARK    6  A    between atoms: C_13  and  C_15
REMARK    7  A    between atoms: C_22  and  C_23
REMARK    8  A    between atoms: C_22  and  C_24
REMARK                            x       y       z     vdW  Elec       q    Type
REMARK                         _______ _______ _______ _____ _____    ______ ____
ROOT
ATOM      1  C   UNL     1       9.305  -1.509  21.998  0.00  0.00    +0.179 C 
ATOM      2  O   UNL     1       9.299  -0.250  21.301  0.00  0.00    -0.341 OA
ATOM      3  C   UNL     1       9.237   0.753  22.321  0.00  0.00    +0.166 C 
ATOM      4  C   UNL     1       7.813   1.311  22.383  0.00  0.00    +0.074 C 
ATOM      5  C   UNL     1      10.202   1.891  22.007  0.00  0.00    +0.074 C 
ATOM      6  O   UNL     1       9.612   0.161  23.576  0.00  0.00    -0.341 OA
ATOM      7  C   UNL     1      10.020  -1.187  23.274  0.00  0.00    +0.187 C 
ATOM      8  C   UNL     1       9.655  -2.144  24.387  0.00  0.00    +0.214 C 
ATOM      9  C   UNL     1       8.165  -2.147  24.650  0.00  0.00    +0.228 C 
ATOM     10  O   UNL     1       8.019  -3.350  25.424  0.00  0.00    -0.313 OA
ATOM     11  C   UNL     1       8.971  -4.265  24.876  0.00  0.00    +0.169 C 
ATOM     12  C   UNL     1       9.664  -5.000  26.024  0.00  0.00    +0.074 C 
ATOM     13  C   UNL     1       8.223  -5.276  24.011  0.00  0.00    +0.074 C 
ATOM     14  O   UNL     1       7.334  -2.221  23.489  0.00  0.00    -0.342 OA
ATOM     15  O   UNL     1       9.934  -3.531  24.086  0.00  0.00    -0.338 OA
ATOM     16  C   UNL     1       7.879  -2.051  22.180  0.00  0.00    +0.197 C 
ENDROOT
BRANCH   9  17
ATOM     17  C   UNL     1       7.697  -0.959  25.506  0.00  0.00    +0.262 C 
BRANCH  17  18
ATOM     18  O   UNL     1       6.387  -0.569  25.101  0.00  0.00    -0.220 OA
BRANCH  18  19
ATOM     19  S   UNL     1       5.161  -1.053  26.029  0.00  0.00    +0.149 S 
ATOM     20  O   UNL     1       4.183   0.003  26.066  0.00  0.00    -0.130 OA
ATOM     21  O   UNL     1       5.707  -1.651  27.225  0.00  0.00    -0.130 OA
BRANCH  19  22
ATOM     22  N   UNL     1       4.526  -2.293  25.111  0.00  0.00    -0.183 NA
ATOM     23  H   UNL     1       5.216  -2.605  24.432  0.00  0.00    +0.146 HD
ATOM     24  H   UNL     1       4.194  -3.035  25.720  0.00  0.00    +0.146 HD
ENDBRANCH  19  22
ENDBRANCH  18  19
ENDBRANCH  17  18
ENDBRANCH   9  17
TORSDOF 4
ENDMDL
MODEL 6
REMARK VINA RESULT:      -6.1      2.991      5.374
REMARK  Name = 
REMARK  8 active torsions:
REMARK  status: ('A' for Active; 'I' for Inactive)
REMARK    1  A    between atoms: C_5  and  C_6
REMARK    2  A    between atoms: C_6  and  O_7
REMARK    3  A    between atoms: O_7  and  S_8
REMARK    4  A    between atoms: S_8  and  N_9
REMARK    5  A    between atoms: C_13  and  C_14
REMARK    6  A    between atoms: C_13  and  C_15
REMARK    7  A    between atoms: C_22  and  C_23
REMARK    8  A    between atoms: C_22  and  C_24
REMARK                            x       y       z     vdW  Elec       q    Type
REMARK                         _______ _______ _______ _____ _____    ______ ____
ROOT
ATOM      1  C   UNL     1       9.346  -3.026  23.739  0.00  0.00    +0.179 C 
ATOM      2  O   UNL     1       8.712  -4.312  23.862  0.00  0.00    -0.341 OA
ATOM      3  C   UNL     1       7.400  -4.146  23.314  0.00  0.00    +0.166 C 
ATOM      4  C   UNL     1       6.391  -4.058  24.462  0.00  0.00    +0.074 C 
ATOM      5  C   UNL     1       7.039  -5.333  22.429  0.00  0.00    +0.074 C 
ATOM      6  O   UNL     1       7.378  -2.949  22.518  0.00  0.00    -0.341 OA
ATOM      7  C   UNL     1       8.732  -2.463  22.494  0.00  0.00    +0.187 C 
ATOM      8  C   UNL     1       8.783  -0.951  22.469  0.00  0.00    +0.214 C 
ATOM      9  C   UNL     1       8.085  -0.353  23.671  0.00  0.00    +0.228 C 
ATOM     10  O   UNL     1       8.580   0.997  23.640  0.00  0.00    -0.313 OA
ATOM     11  C   UNL     1       9.929   0.889  23.178  0.00  0.00    +0.169 C 
ATOM     12  C   UNL     1      10.193   2.008  22.169  0.00  0.00    +0.074 C 
ATOM     13  C   UNL     1      10.861   1.062  24.374  0.00  0.00    +0.074 C 
ATOM     14  O   UNL     1       8.405  -0.951  24.930  0.00  0.00    -0.342 OA
ATOM     15  O   UNL     1      10.120  -0.406  22.565  0.00  0.00    -0.338 OA
ATOM     16  C   UNL     1       9.133  -2.177  25.001  0.00  0.00    +0.197 C 
ENDROOT
BRANCH   9  17
ATOM     17  C   UNL     1       6.556  -0.313  23.527  0.00  0.00    +0.262 C 
BRANCH  17  18
ATOM     18  O   UNL     1       5.954  -0.461  24.812  0.00  0.00    -0.220 OA
BRANCH  18  19
ATOM     19  S   UNL     1       5.319   0.861  25.478  0.00  0.00    +0.149 S 
ATOM     20  O   UNL     1       6.368   1.564  26.169  0.00  0.00    -0.130 OA
ATOM     21  O   UNL     1       4.076   0.495  26.116  0.00  0.00    -0.130 OA
BRANCH  19  22
ATOM     22  N   UNL     1       4.925   1.753  24.124  0.00  0.00    -0.183 NA
ATOM     23  H   UNL     1       3.914   1.827  24.044  0.00  0.00    +0.146 HD
ATOM     24  H   UNL     1       5.394   2.653  24.157  0.00  0.00    +0.146 HD
ENDBRANCH  19  22
ENDBRANCH  18  19
ENDBRANCH  17  18
ENDBRANCH   9  17
TORSDOF 4
ENDMDL
MODEL 7
REMARK VINA RESULT:      -6.0      2.538      3.358
REMARK  Name = 
REMARK  8 active torsions:
REMARK  status: ('A' for Active; 'I' for Inactive)
REMARK    1  A    between atoms: C_5  and  C_6
REMARK    2  A    between atoms: C_6  and  O_7
REMARK    3  A    between atoms: O_7  and  S_8
REMARK    4  A    between atoms: S_8  and  N_9
REMARK    5  A    between atoms: C_13  and  C_14
REMARK    6  A    between atoms: C_13  and  C_15
REMARK    7  A    between atoms: C_22  and  C_23
REMARK    8  A    between atoms: C_22  and  C_24
REMARK                            x       y       z     vdW  Elec       q    Type
REMARK                         _______ _______ _______ _____ _____    ______ ____
ROOT
ATOM      1  C   UNL     1       7.491   1.201  24.537  0.00  0.00    +0.179 C 
ATOM      2  O   UNL     1       8.596   1.966  24.023  0.00  0.00    -0.341 OA
ATOM      3  C   UNL     1       9.417   1.027  23.320  0.00  0.00    +0.166 C 
ATOM      4  C   UNL     1      10.644   0.701  24.176  0.00  0.00    +0.074 C 
ATOM      5  C   UNL     1       9.883   1.616  21.993  0.00  0.00    +0.074 C 
ATOM      6  O   UNL     1       8.646  -0.157  23.057  0.00  0.00    -0.341 OA
ATOM      7  C   UNL     1       7.309   0.132  23.504  0.00  0.00    +0.187 C 
ATOM      8  C   UNL     1       6.631  -1.096  24.071  0.00  0.00    +0.214 C 
ATOM      9  C   UNL     1       7.408  -1.670  25.236  0.00  0.00    +0.228 C 
ATOM     10  O   UNL     1       6.426  -2.538  25.828  0.00  0.00    -0.313 OA
ATOM     11  C   UNL     1       5.177  -1.862  25.653  0.00  0.00    +0.169 C 
ATOM     12  C   UNL     1       4.121  -2.884  25.228  0.00  0.00    +0.074 C 
ATOM     13  C   UNL     1       4.772  -1.249  26.991  0.00  0.00    +0.074 C 
ATOM     14  O   UNL     1       7.854  -0.721  26.207  0.00  0.00    -0.342 OA
ATOM     15  O   UNL     1       5.329  -0.837  24.645  0.00  0.00    -0.338 OA
ATOM     16  C   UNL     1       7.783   0.683  25.953  0.00  0.00    +0.197 C 
ENDROOT
BRANCH   9  17
ATOM     17  C   UNL     1       8.610  -2.523  24.802  0.00  0.00    +0.262 C 
BRANCH  17  18
ATOM     18  O   UNL     1       8.871  -3.515  25.793  0.00  0.00    -0.220 OA
BRANCH  18  19
ATOM     19  S   UNL     1       8.810  -5.054  25.320  0.00  0.00    +0.149 S 
ATOM     20  O   UNL     1       8.519  -5.079  23.911  0.00  0.00    -0.130 OA
ATOM     21  O   UNL     1       8.037  -5.796  26.289  0.00  0.00    -0.130 OA
BRANCH  19  22
ATOM     22  N   UNL     1      10.402  -5.517  25.511  0.00  0.00    -0.183 NA
ATOM     23  H   UNL     1      11.005  -4.699  25.468  0.00  0.00    +0.146 HD
ATOM     24  H   UNL     1      10.504  -6.049  26.370  0.00  0.00    +0.146 HD
ENDBRANCH  19  22
ENDBRANCH  18  19
ENDBRANCH  17  18
ENDBRANCH   9  17
TORSDOF 4
ENDMDL
MODEL 8
REMARK VINA RESULT:      -6.0      2.992      4.231
REMARK  Name = 
REMARK  8 active torsions:
REMARK  status: ('A' for Active; 'I' for Inactive)
REMARK    1  A    between atoms: C_5  and  C_6
REMARK    2  A    between atoms: C_6  and  O_7
REMARK    3  A    between atoms: O_7  and  S_8
REMARK    4  A    between atoms: S_8  and  N_9
REMARK    5  A    between atoms: C_13  and  C_14
REMARK    6  A    between atoms: C_13  and  C_15
REMARK    7  A    between atoms: C_22  and  C_23
REMARK    8  A    between atoms: C_22  and  C_24
REMARK                            x       y       z     vdW  Elec       q    Type
REMARK                         _______ _______ _______ _____ _____    ______ ____
ROOT
ATOM      1  C   UNL     1       9.971   0.492  22.260  0.00  0.00    +0.179 C 
ATOM      2  O   UNL     1      10.235   1.880  21.985  0.00  0.00    -0.341 OA
ATOM      3  C   UNL     1      10.127   2.547  23.247  0.00  0.00    +0.166 C 
ATOM      4  C   UNL     1       8.792   3.293  23.303  0.00  0.00    +0.074 C 
ATOM      5  C   UNL     1      11.262   3.552  23.415  0.00  0.00    +0.074 C 
ATOM      6  O   UNL     1      10.214   1.570  24.297  0.00  0.00    -0.341 OA
ATOM      7  C   UNL     1      10.499   0.316  23.651  0.00  0.00    +0.187 C 
ATOM      8  C   UNL     1       9.842  -0.844  24.365  0.00  0.00    +0.214 C 
ATOM      9  C   UNL     1       8.340  -0.675  24.431  0.00  0.00    +0.228 C 
ATOM     10  O   UNL     1       7.922  -2.007  24.778  0.00  0.00    -0.313 OA
ATOM     11  C   UNL     1       8.833  -2.873  24.095  0.00  0.00    +0.169 C 
ATOM     12  C   UNL     1       9.232  -4.008  25.040  0.00  0.00    +0.074 C 
ATOM     13  C   UNL     1       8.121  -3.458  22.879  0.00  0.00    +0.074 C 
ATOM     14  O   UNL     1       7.709  -0.278  23.211  0.00  0.00    -0.342 OA
ATOM     15  O   UNL     1       9.996  -2.115  23.690  0.00  0.00    -0.338 OA
ATOM     16  C   UNL     1       8.480   0.165  22.093  0.00  0.00    +0.197 C 
ENDROOT
BRANCH   9  17
ATOM     17  C   UNL     1       7.885   0.281  25.546  0.00  0.00    +0.262 C 
BRANCH  17  18
ATOM     18  O   UNL     1       6.594   0.798  25.230  0.00  0.00    -0.220 OA
BRANCH  18  19
ATOM     19  S   UNL     1       5.352   0.236  26.088  0.00  0.00    +0.149 S 
ATOM     20  O   UNL     1       4.230   1.113  25.882  0.00  0.00    -0.130 OA
ATOM     21  O   UNL     1       5.833  -0.117  27.404  0.00  0.00    -0.130 OA
BRANCH  19  22
ATOM     22  N   UNL     1       5.024  -1.193  25.292  0.00  0.00    -0.183 NA
ATOM     23  H   UNL     1       5.853  -1.783  25.290  0.00  0.00    +0.146 HD
ATOM     24  H   UNL     1       4.213  -1.640  25.707  0.00  0.00    +0.146 HD
ENDBRANCH  19  22
ENDBRANCH  18  19
ENDBRANCH  17  18
ENDBRANCH   9  17
TORSDOF 4
ENDMDL
MODEL 9
REMARK VINA RESULT:      -5.9      3.144      4.829
REMARK  Name = 
REMARK  8 active torsions:
REMARK  status: ('A' for Active; 'I' for Inactive)
REMARK    1  A    between atoms: C_5  and  C_6
REMARK    2  A    between atoms: C_6  and  O_7
REMARK    3  A    between atoms: O_7  and  S_8
REMARK    4  A    between atoms: S_8  and  N_9
REMARK    5  A    between atoms: C_13  and  C_14
REMARK    6  A    between atoms: C_13  and  C_15
REMARK    7  A    between atoms: C_22  and  C_23
REMARK    8  A    between atoms: C_22  and  C_24
REMARK                            x       y       z     vdW  Elec       q    Type
REMARK                         _______ _______ _______ _____ _____    ______ ____
ROOT
ATOM      1  C   UNL     1       6.955  -3.561  22.489  0.00  0.00    +0.179 C 
ATOM      2  O   UNL     1       8.017  -2.600  22.353  0.00  0.00    -0.341 OA
ATOM      3  C   UNL     1       8.593  -2.478  23.658  0.00  0.00    +0.166 C 
ATOM      4  C   UNL     1       8.116  -1.168  24.290  0.00  0.00    +0.074 C 
ATOM      5  C   UNL     1      10.115  -2.458  23.568  0.00  0.00    +0.074 C 
ATOM      6  O   UNL     1       8.189  -3.607  24.450  0.00  0.00    -0.341 OA
ATOM      7  C   UNL     1       7.461  -4.475  23.563  0.00  0.00    +0.187 C 
ATOM      8  C   UNL     1       6.335  -5.190  24.278  0.00  0.00    +0.214 C 
ATOM      9  C   UNL     1       5.359  -4.210  24.891  0.00  0.00    +0.228 C 
ATOM     10  O   UNL     1       4.232  -5.064  25.155  0.00  0.00    -0.313 OA
ATOM     11  C   UNL     1       4.213  -6.001  24.075  0.00  0.00    +0.169 C 
ATOM     12  C   UNL     1       3.916  -7.393  24.636  0.00  0.00    +0.074 C 
ATOM     13  C   UNL     1       3.099  -5.600  23.111  0.00  0.00    +0.074 C 
ATOM     14  O   UNL     1       4.952  -3.132  24.044  0.00  0.00    -0.342 OA
ATOM     15  O   UNL     1       5.496  -5.984  23.408  0.00  0.00    -0.338 OA
ATOM     16  C   UNL     1       5.619  -2.874  22.808  0.00  0.00    +0.197 C 
ENDROOT
BRANCH   9  17
ATOM     17  C   UNL     1       5.845  -3.622  26.225  0.00  0.00    +0.262 C 
BRANCH  17  18
ATOM     18  O   UNL     1       5.278  -4.362  27.304  0.00  0.00    -0.220 OA
BRANCH  18  19
ATOM     19  S   UNL     1       6.251  -5.388  28.077  0.00  0.00    +0.149 S 
ATOM     20  O   UNL     1       5.962  -5.308  29.484  0.00  0.00    -0.130 OA
ATOM     21  O   UNL     1       7.586  -5.234  27.546  0.00  0.00    -0.130 OA
BRANCH  19  22
ATOM     22  N   UNL     1       5.678  -6.857  27.530  0.00  0.00    -0.183 NA
ATOM     23  H   UNL     1       6.438  -7.533  27.505  0.00  0.00    +0.146 HD
ATOM     24  H   UNL     1       4.893  -7.153  28.101  0.00  0.00    +0.146 HD
ENDBRANCH  19  22
ENDBRANCH  18  19
ENDBRANCH  17  18
ENDBRANCH   9  17
TORSDOF 4
ENDMDL
