MODEL 1
REMARK VINA RESULT:      -7.5      0.000      0.000
REMARK  Name = 
REMARK  8 active torsions:
REMARK  status: ('A' for Active; 'I' for Inactive)
REMARK    1  A    between atoms: C_1  and  C_2
REMARK    2  A    between atoms: C_2  and  N_3
REMARK    3  A    between atoms: N_3  and  S_4
REMARK    4  A    between atoms: C_5  and  N_6
REMARK    5  A    between atoms: C_11  and  C_13
REMARK    6  A    between atoms: C_13  and  O_14
REMARK    7  A    between atoms: C_20  and  O_21
REMARK    8  A    between atoms: C_27  and  O_28
REMARK                            x       y       z     vdW  Elec       q    Type
REMARK                         _______ _______ _______ _____ _____    ______ ____
ROOT
ATOM      1  N   UNL     1       8.418  -1.781  22.696  0.00  0.00    -0.215 NA
ATOM      2  C   UNL     1       8.118  -2.976  23.084  0.00  0.00    +0.054 C 
ATOM      3  C   UNL     1       7.264  -3.817  22.194  0.00  0.00    +0.040 C 
ATOM      4  C   UNL     1       6.641  -4.904  22.692  0.00  0.00    +0.068 C 
ATOM      5  C   UNL     1       6.647  -5.106  24.160  0.00  0.00    -0.002 C 
ATOM      6  C   UNL     1       5.587  -5.523  24.930  0.00  0.00    +0.004 C 
ATOM      7  C   UNL     1       5.692  -5.742  26.421  0.00  0.00    +0.026 A 
ATOM      8  C   UNL     1       4.905  -6.773  26.964  0.00  0.00    +0.140 A 
ATOM      9  C   UNL     1       4.959  -7.098  28.326  0.00  0.00    +0.092 A 
ATOM     10  C   UNL     1       5.814  -6.392  29.161  0.00  0.00    +0.120 A 
ATOM     11  C   UNL     1       6.567  -5.340  28.665  0.00  0.00    +0.046 A 
ATOM     12  O   UNL     1       4.051  -7.546  26.207  0.00  0.00    -0.455 OA
ATOM     13  C   UNL     1       3.646  -7.050  24.988  0.00  0.00    +0.140 A 
ATOM     14  C   UNL     1       2.569  -7.713  24.395  0.00  0.00    +0.092 A 
ATOM     15  C   UNL     1       2.112  -7.295  23.156  0.00  0.00    +0.120 A 
ATOM     16  C   UNL     1       2.623  -6.144  22.569  0.00  0.00    +0.046 A 
ATOM     17  C   UNL     1       3.663  -5.450  23.199  0.00  0.00    +0.016 A 
ATOM     18  C   UNL     1       6.466  -4.986  27.315  0.00  0.00    +0.016 A 
ATOM     19  C   UNL     1       4.278  -5.973  24.345  0.00  0.00    +0.026 A 
ATOM     20  C   UNL     1       7.949  -4.760  24.750  0.00  0.00    +0.011 C 
ATOM     21  C   UNL     1       8.632  -3.702  24.288  0.00  0.00    +0.026 C 
ENDROOT
BRANCH   1  23
ATOM     22  S   UNL     1       8.470   0.152  24.546  0.00  0.00    -0.035 S 
ATOM     23  C   UNL     1       9.229  -0.985  23.452  0.00  0.00    +0.154 C 
BRANCH  22  24
ATOM     24  N   UNL     1       9.798   0.902  25.220  0.00  0.00    -0.259 NA
ATOM     25  H   UNL     1       9.501   1.727  25.742  0.00  0.00    +0.135 HD
BRANCH  24  27
ATOM     26  C   UNL     1      10.546   2.549  23.550  0.00  0.00    +0.021 C 
ATOM     27  C   UNL     1      10.898   1.293  24.333  0.00  0.00    +0.090 C 
ENDBRANCH  24  27
ENDBRANCH  22  24
ENDBRANCH   1  23
BRANCH   4  28
ATOM     28  C   UNL     1       6.140  -5.852  21.657  0.00  0.00    +0.337 C 
ATOM     29  O   UNL     1       5.680  -5.495  20.579  0.00  0.00    -0.245 OA
BRANCH  28  30
ATOM     30  O   UNL     1       6.295  -7.153  21.971  0.00  0.00    -0.477 OA
ATOM     31  H   UNL     1       5.466  -7.651  22.099  0.00  0.00    +0.295 HD
ENDBRANCH  28  30
ENDBRANCH   4  28
BRANCH  10  32
ATOM     32  O   UNL     1       5.935  -6.689  30.485  0.00  0.00    -0.507 OA
ATOM     33  H   UNL     1       6.759  -7.185  30.626  0.00  0.00    +0.292 HD
ENDBRANCH  10  32
BRANCH  15  34
ATOM     34  O   UNL     1       1.161  -8.045  22.536  0.00  0.00    -0.507 OA
ATOM     35  H   UNL     1       0.750  -7.504  21.840  0.00  0.00    +0.292 HD
ENDBRANCH  15  34
TORSDOF 7
ENDMDL
MODEL 2
REMARK VINA RESULT:      -7.2      3.098      3.930
REMARK  Name = 
REMARK  8 active torsions:
REMARK  status: ('A' for Active; 'I' for Inactive)
REMARK    1  A    between atoms: C_1  and  C_2
REMARK    2  A    between atoms: C_2  and  N_3
REMARK    3  A    between atoms: N_3  and  S_4
REMARK    4  A    between atoms: C_5  and  N_6
REMARK    5  A    between atoms: C_11  and  C_13
REMARK    6  A    between atoms: C_13  and  O_14
REMARK    7  A    between atoms: C_20  and  O_21
REMARK    8  A    between atoms: C_27  and  O_28
REMARK                            x       y       z     vdW  Elec       q    Type
REMARK                         _______ _______ _______ _____ _____    ______ ____
ROOT
ATOM      1  N   UNL     1      10.156  -1.207  23.017  0.00  0.00    -0.215 NA
ATOM      2  C   UNL     1       9.631  -1.722  24.080  0.00  0.00    +0.054 C 
ATOM      3  C   UNL     1       9.382  -3.193  24.106  0.00  0.00    +0.040 C 
ATOM      4  C   UNL     1       8.535  -3.716  25.015  0.00  0.00    +0.068 C 
ATOM      5  C   UNL     1       7.707  -2.786  25.819  0.00  0.00    -0.002 C 
ATOM      6  C   UNL     1       6.379  -2.943  26.137  0.00  0.00    +0.004 C 
ATOM      7  C   UNL     1       5.619  -1.962  26.999  0.00  0.00    +0.026 A 
ATOM      8  C   UNL     1       4.614  -2.495  27.825  0.00  0.00    +0.140 A 
ATOM      9  C   UNL     1       3.879  -1.686  28.702  0.00  0.00    +0.092 A 
ATOM     10  C   UNL     1       4.153  -0.327  28.765  0.00  0.00    +0.120 A 
ATOM     11  C   UNL     1       5.106   0.236  27.931  0.00  0.00    +0.046 A 
ATOM     12  O   UNL     1       4.294  -3.835  27.851  0.00  0.00    -0.455 OA
ATOM     13  C   UNL     1       4.666  -4.606  26.772  0.00  0.00    +0.140 A 
ATOM     14  C   UNL     1       4.075  -5.869  26.701  0.00  0.00    +0.092 A 
ATOM     15  C   UNL     1       4.412  -6.720  25.661  0.00  0.00    +0.120 A 
ATOM     16  C   UNL     1       5.219  -6.276  24.622  0.00  0.00    +0.046 A 
ATOM     17  C   UNL     1       5.761  -4.985  24.671  0.00  0.00    +0.016 A 
ATOM     18  C   UNL     1       5.796  -0.570  27.018  0.00  0.00    +0.016 A 
ATOM     19  C   UNL     1       5.602  -4.188  25.812  0.00  0.00    +0.026 A 
ATOM     20  C   UNL     1       8.471  -1.598  26.230  0.00  0.00    +0.011 C 
ATOM     21  C   UNL     1       9.346  -1.039  25.381  0.00  0.00    +0.026 C 
ENDROOT
BRANCH   1  23
ATOM     22  S   UNL     1       9.553   1.103  21.807  0.00  0.00    -0.035 S 
ATOM     23  C   UNL     1      10.442   0.127  22.957  0.00  0.00    +0.154 C 
BRANCH  22  24
ATOM     24  N   UNL     1      10.227   2.607  22.056  0.00  0.00    -0.259 NA
ATOM     25  H   UNL     1      11.025   2.737  21.434  0.00  0.00    +0.135 HD
BRANCH  24  27
ATOM     26  C   UNL     1      11.632   4.119  23.398  0.00  0.00    +0.021 C 
ATOM     27  C   UNL     1      10.644   2.963  23.417  0.00  0.00    +0.090 C 
ENDBRANCH  24  27
ENDBRANCH  22  24
ENDBRANCH   1  23
BRANCH   4  28
ATOM     28  C   UNL     1       8.654  -5.191  25.187  0.00  0.00    +0.337 C 
ATOM     29  O   UNL     1       8.920  -5.961  24.272  0.00  0.00    -0.245 OA
BRANCH  28  30
ATOM     30  O   UNL     1       8.510  -5.617  26.458  0.00  0.00    -0.477 OA
ATOM     31  H   UNL     1       8.331  -6.570  26.559  0.00  0.00    +0.295 HD
ENDBRANCH  28  30
ENDBRANCH   4  28
BRANCH  10  32
ATOM     32  O   UNL     1       3.497   0.500  29.626  0.00  0.00    -0.507 OA
ATOM     33  H   UNL     1       2.955   1.125  29.116  0.00  0.00    +0.292 HD
ENDBRANCH  10  32
BRANCH  15  34
ATOM     34  O   UNL     1       3.936  -7.995  25.694  0.00  0.00    -0.507 OA
ATOM     35  H   UNL     1       4.658  -8.597  25.445  0.00  0.00    +0.292 HD
ENDBRANCH  15  34
TORSDOF 7
ENDMDL
MODEL 3
REMARK VINA RESULT:      -7.2      5.140      8.986
REMARK  Name = 
REMARK  8 active torsions:
REMARK  status: ('A' for Active; 'I' for Inactive)
REMARK    1  A    between atoms: C_1  and  C_2
REMARK    2  A    between atoms: C_2  and  N_3
REMARK    3  A    between atoms: N_3  and  S_4
REMARK    4  A    between atoms: C_5  and  N_6
REMARK    5  A    between atoms: C_11  and  C_13
REMARK    6  A    between atoms: C_13  and  O_14
REMARK    7  A    between atoms: C_20  and  O_21
REMARK    8  A    between atoms: C_27  and  O_28
REMARK                            x       y       z     vdW  Elec       q    Type
REMARK                         _______ _______ _______ _____ _____    ______ ____
ROOT
ATOM      1  N   UNL     1       8.645  -3.512  23.905  0.00  0.00    -0.215 NA
ATOM      2  C   UNL     1       8.085  -2.348  23.892  0.00  0.00    +0.054 C 
ATOM      3  C   UNL     1       8.614  -1.317  22.950  0.00  0.00    +0.040 C 
ATOM      4  C   UNL     1       8.314  -0.016  23.139  0.00  0.00    +0.068 C 
ATOM      5  C   UNL     1       7.651   0.374  24.406  0.00  0.00    -0.002 C 
ATOM      6  C   UNL     1       7.939   1.479  25.171  0.00  0.00    +0.004 C 
ATOM      7  C   UNL     1       7.183   1.824  26.432  0.00  0.00    +0.026 A 
ATOM      8  C   UNL     1       7.020   3.191  26.716  0.00  0.00    +0.140 A 
ATOM      9  C   UNL     1       6.294   3.628  27.832  0.00  0.00    +0.092 A 
ATOM     10  C   UNL     1       5.713   2.692  28.676  0.00  0.00    +0.120 A 
ATOM     11  C   UNL     1       5.895   1.337  28.449  0.00  0.00    +0.046 A 
ATOM     12  O   UNL     1       7.535   4.192  25.919  0.00  0.00    -0.455 OA
ATOM     13  C   UNL     1       8.565   3.866  25.065  0.00  0.00    +0.140 A 
ATOM     14  C   UNL     1       9.246   4.948  24.502  0.00  0.00    +0.092 A 
ATOM     15  C   UNL     1      10.281   4.711  23.612  0.00  0.00    +0.120 A 
ATOM     16  C   UNL     1      10.732   3.418  23.386  0.00  0.00    +0.046 A 
ATOM     17  C   UNL     1      10.082   2.340  24.001  0.00  0.00    +0.016 A 
ATOM     18  C   UNL     1       6.668   0.909  27.364  0.00  0.00    +0.016 A 
ATOM     19  C   UNL     1       8.907   2.544  24.737  0.00  0.00    +0.026 A 
ATOM     20  C   UNL     1       6.631  -0.607  24.807  0.00  0.00    +0.011 C 
ATOM     21  C   UNL     1       6.856  -1.917  24.628  0.00  0.00    +0.026 C 
ENDROOT
BRANCH   1  23
ATOM     22  S   UNL     1       8.792  -4.580  26.354  0.00  0.00    -0.035 S 
ATOM     23  C   UNL     1       8.176  -4.503  24.718  0.00  0.00    +0.154 C 
BRANCH  22  24
ATOM     24  N   UNL     1       7.988  -5.913  26.951  0.00  0.00    -0.259 NA
ATOM     25  H   UNL     1       7.829  -6.586  26.201  0.00  0.00    +0.135 HD
BRANCH  24  27
ATOM     26  C   UNL     1       5.539  -6.105  26.778  0.00  0.00    +0.021 C 
ATOM     27  C   UNL     1       6.717  -5.699  27.651  0.00  0.00    +0.090 C 
ENDBRANCH  24  27
ENDBRANCH  22  24
ENDBRANCH   1  23
BRANCH   4  28
ATOM     28  C   UNL     1       8.573   0.851  21.956  0.00  0.00    +0.337 C 
ATOM     29  O   UNL     1       7.832   1.764  21.611  0.00  0.00    -0.245 OA
BRANCH  28  30
ATOM     30  O   UNL     1       9.736   0.598  21.323  0.00  0.00    -0.477 OA
ATOM     31  H   UNL     1       9.959  -0.346  21.227  0.00  0.00    +0.295 HD
ENDBRANCH  28  30
ENDBRANCH   4  28
BRANCH  10  32
ATOM     32  O   UNL     1       4.966   3.059  29.753  0.00  0.00    -0.507 OA
ATOM     33  H   UNL     1       5.541   3.490  30.408  0.00  0.00    +0.292 HD
ENDBRANCH  10  32
BRANCH  15  34
ATOM     34  O   UNL     1      10.830   5.777  22.968  0.00  0.00    -0.507 OA
ATOM     35  H   UNL     1      11.211   5.464  22.129  0.00  0.00    +0.292 HD
ENDBRANCH  15  34
TORSDOF 7
ENDMDL
MODEL 4
REMARK VINA RESULT:      -7.0      4.916      8.713
REMARK  Name = 
REMARK  8 active torsions:
REMARK  status: ('A' for Active; 'I' for Inactive)
REMARK    1  A    between atoms: C_1  and  C_2
REMARK    2  A    between atoms: C_2  and  N_3
REMARK    3  A    between atoms: N_3  and  S_4
REMARK    4  A    between atoms: C_5  and  N_6
REMARK    5  A    between atoms: C_11  and  C_13
REMARK    6  A    between atoms: C_13  and  O_14
REMARK    7  A    between atoms: C_20  and  O_21
REMARK    8  A    between atoms: C_27  and  O_28
REMARK                            x       y       z     vdW  Elec       q    Type
REMARK                         _______ _______ _______ _____ _____    ______ ____
ROOT
ATOM      1  N   UNL     1       7.983  -4.630  24.571  0.00  0.00    -0.215 NA
ATOM      2  C   UNL     1       7.656  -3.478  24.085  0.00  0.00    +0.054 C 
ATOM      3  C   UNL     1       8.677  -2.726  23.297  0.00  0.00    +0.040 C 
ATOM      4  C   UNL     1       8.517  -1.406  23.077  0.00  0.00    +0.068 C 
ATOM      5  C   UNL     1       7.444  -0.696  23.813  0.00  0.00    -0.002 C 
ATOM      6  C   UNL     1       7.537   0.545  24.396  0.00  0.00    +0.004 C 
ATOM      7  C   UNL     1       6.377   1.213  25.095  0.00  0.00    +0.026 A 
ATOM      8  C   UNL     1       6.309   2.615  25.006  0.00  0.00    +0.140 A 
ATOM      9  C   UNL     1       5.250   3.336  25.573  0.00  0.00    +0.092 A 
ATOM     10  C   UNL     1       4.238   2.654  26.233  0.00  0.00    +0.120 A 
ATOM     11  C   UNL     1       4.300   1.277  26.378  0.00  0.00    +0.046 A 
ATOM     12  O   UNL     1       7.252   3.373  24.344  0.00  0.00    -0.455 OA
ATOM     13  C   UNL     1       8.487   2.809  24.120  0.00  0.00    +0.140 A 
ATOM     14  C   UNL     1       9.491   3.694  23.722  0.00  0.00    +0.092 A 
ATOM     15  C   UNL     1      10.760   3.207  23.450  0.00  0.00    +0.120 A 
ATOM     16  C   UNL     1      11.072   1.878  23.705  0.00  0.00    +0.046 A 
ATOM     17  C   UNL     1      10.074   1.008  24.162  0.00  0.00    +0.016 A 
ATOM     18  C   UNL     1       5.389   0.570  25.857  0.00  0.00    +0.016 A 
ATOM     19  C   UNL     1       8.741   1.432  24.242  0.00  0.00    +0.026 A 
ATOM     20  C   UNL     1       6.220  -1.507  23.900  0.00  0.00    +0.011 C 
ATOM     21  C   UNL     1       6.307  -2.831  24.097  0.00  0.00    +0.026 C 
ENDROOT
BRANCH   1  23
ATOM     22  S   UNL     1       7.116  -5.300  27.013  0.00  0.00    -0.035 S 
ATOM     23  C   UNL     1       7.076  -5.377  25.265  0.00  0.00    +0.154 C 
BRANCH  22  24
ATOM     24  N   UNL     1       5.891  -6.354  27.422  0.00  0.00    -0.259 NA
ATOM     25  H   UNL     1       6.286  -7.206  27.820  0.00  0.00    +0.135 HD
BRANCH  24  27
ATOM     26  C   UNL     1       3.582  -6.070  26.616  0.00  0.00    +0.021 C 
ATOM     27  C   UNL     1       4.930  -6.736  26.382  0.00  0.00    +0.090 C 
ENDBRANCH  24  27
ENDBRANCH  22  24
ENDBRANCH   1  23
BRANCH   4  28
ATOM     28  C   UNL     1       9.376  -0.856  21.991  0.00  0.00    +0.337 C 
ATOM     29  O   UNL     1       9.070   0.118  21.314  0.00  0.00    -0.245 OA
BRANCH  28  30
ATOM     30  O   UNL     1      10.563  -1.479  21.849  0.00  0.00    -0.477 OA
ATOM     31  H   UNL     1      10.538  -2.308  21.336  0.00  0.00    +0.295 HD
ENDBRANCH  28  30
ENDBRANCH   4  28
BRANCH  10  32
ATOM     32  O   UNL     1       3.166   3.300  26.770  0.00  0.00    -0.507 OA
ATOM     33  H   UNL     1       3.188   4.233  26.498  0.00  0.00    +0.292 HD
ENDBRANCH  10  32
BRANCH  15  34
ATOM     34  O   UNL     1      11.678   4.064  22.925  0.00  0.00    -0.507 OA
ATOM     35  H   UNL     1      11.394   4.973  23.122  0.00  0.00    +0.292 HD
ENDBRANCH  15  34
TORSDOF 7
ENDMDL
MODEL 5
REMARK VINA RESULT:      -6.6      3.461      5.107
REMARK  Name = 
REMARK  8 active torsions:
REMARK  status: ('A' for Active; 'I' for Inactive)
REMARK    1  A    between atoms: C_1  and  C_2
REMARK    2  A    between atoms: C_2  and  N_3
REMARK    3  A    between atoms: N_3  and  S_4
REMARK    4  A    between atoms: C_5  and  N_6
REMARK    5  A    between atoms: C_11  and  C_13
REMARK    6  A    between atoms: C_13  and  O_14
REMARK    7  A    between atoms: C_20  and  O_21
REMARK    8  A    between atoms: C_27  and  O_28
REMARK                            x       y       z     vdW  Elec       q    Type
REMARK                         _______ _______ _______ _____ _____    ______ ____
ROOT
ATOM      1  N   UNL     1       9.316   2.828  22.881  0.00  0.00    -0.215 NA
ATOM      2  C   UNL     1       9.230   1.748  23.586  0.00  0.00    +0.054 C 
ATOM      3  C   UNL     1       9.611   0.453  22.948  0.00  0.00    +0.040 C 
ATOM      4  C   UNL     1       9.213  -0.711  23.500  0.00  0.00    +0.068 C 
ATOM      5  C   UNL     1       8.222  -0.663  24.601  0.00  0.00    -0.002 C 
ATOM      6  C   UNL     1       7.147  -1.502  24.768  0.00  0.00    +0.004 C 
ATOM      7  C   UNL     1       6.206  -1.407  25.946  0.00  0.00    +0.026 A 
ATOM      8  C   UNL     1       5.656  -2.614  26.413  0.00  0.00    +0.140 A 
ATOM      9  C   UNL     1       4.811  -2.652  27.530  0.00  0.00    +0.092 A 
ATOM     10  C   UNL     1       4.513  -1.473  28.198  0.00  0.00    +0.120 A 
ATOM     11  C   UNL     1       5.001  -0.262  27.735  0.00  0.00    +0.046 A 
ATOM     12  O   UNL     1       5.921  -3.836  25.832  0.00  0.00    -0.455 OA
ATOM     13  C   UNL     1       6.392  -3.843  24.538  0.00  0.00    +0.140 A 
ATOM     14  C   UNL     1       6.365  -5.081  23.893  0.00  0.00    +0.092 A 
ATOM     15  C   UNL     1       6.844  -5.184  22.597  0.00  0.00    +0.120 A 
ATOM     16  C   UNL     1       7.217  -4.047  21.893  0.00  0.00    +0.046 A 
ATOM     17  C   UNL     1       7.184  -2.798  22.527  0.00  0.00    +0.016 A 
ATOM     18  C   UNL     1       5.800  -0.226  26.586  0.00  0.00    +0.016 A 
ATOM     19  C   UNL     1       6.903  -2.702  23.897  0.00  0.00    +0.026 A 
ATOM     20  C   UNL     1       8.492   0.451  25.524  0.00  0.00    +0.011 C 
ATOM     21  C   UNL     1       8.910   1.631  25.043  0.00  0.00    +0.026 C 
ENDROOT
BRANCH   1  23
ATOM     22  S   UNL     1       7.520   4.810  22.950  0.00  0.00    -0.035 S 
ATOM     23  C   UNL     1       9.019   4.043  23.427  0.00  0.00    +0.154 C 
BRANCH  22  24
ATOM     24  N   UNL     1       7.583   6.233  23.815  0.00  0.00    -0.259 NA
ATOM     25  H   UNL     1       6.968   6.926  23.388  0.00  0.00    +0.135 HD
BRANCH  24  27
ATOM     26  C   UNL     1       9.139   7.108  25.511  0.00  0.00    +0.021 C 
ATOM     27  C   UNL     1       8.894   6.855  24.031  0.00  0.00    +0.090 C 
ENDBRANCH  24  27
ENDBRANCH  22  24
ENDBRANCH   1  23
BRANCH   4  28
ATOM     28  C   UNL     1       9.951  -1.908  23.006  0.00  0.00    +0.337 C 
ATOM     29  O   UNL     1      10.229  -2.870  23.711  0.00  0.00    -0.245 OA
BRANCH  28  30
ATOM     30  O   UNL     1      10.235  -1.883  21.689  0.00  0.00    -0.477 OA
ATOM     31  H   UNL     1       9.932  -1.087  21.214  0.00  0.00    +0.295 HD
ENDBRANCH  28  30
ENDBRANCH   4  28
BRANCH  10  32
ATOM     32  O   UNL     1       3.728  -1.456  29.311  0.00  0.00    -0.507 OA
ATOM     33  H   UNL     1       2.872  -1.868  29.104  0.00  0.00    +0.292 HD
ENDBRANCH  10  32
BRANCH  15  34
ATOM     34  O   UNL     1       6.942  -6.424  22.045  0.00  0.00    -0.507 OA
ATOM     35  H   UNL     1       7.853  -6.742  22.167  0.00  0.00    +0.292 HD
ENDBRANCH  15  34
TORSDOF 7
ENDMDL
MODEL 6
REMARK VINA RESULT:      -6.5      2.466      5.310
REMARK  Name = 
REMARK  8 active torsions:
REMARK  status: ('A' for Active; 'I' for Inactive)
REMARK    1  A    between atoms: C_1  and  C_2
REMARK    2  A    between atoms: C_2  and  N_3
REMARK    3  A    between atoms: N_3  and  S_4
REMARK    4  A    between atoms: C_5  and  N_6
REMARK    5  A    between atoms: C_11  and  C_13
REMARK    6  A    between atoms: C_13  and  O_14
REMARK    7  A    between atoms: C_20  and  O_21
REMARK    8  A    between atoms: C_27  and  O_28
REMARK                            x       y       z     vdW  Elec       q    Type
REMARK                         _______ _______ _______ _____ _____    ______ ____
ROOT
ATOM      1  N   UNL     1       7.703   1.018  26.210  0.00  0.00    -0.215 NA
ATOM      2  C   UNL     1       6.826   0.122  25.896  0.00  0.00    +0.054 C 
ATOM      3  C   UNL     1       6.117  -0.593  26.998  0.00  0.00    +0.040 C 
ATOM      4  C   UNL     1       5.474  -1.751  26.744  0.00  0.00    +0.068 C 
ATOM      5  C   UNL     1       5.679  -2.392  25.423  0.00  0.00    -0.002 C 
ATOM      6  C   UNL     1       5.862  -3.734  25.188  0.00  0.00    +0.004 C 
ATOM      7  C   UNL     1       6.024  -4.309  23.801  0.00  0.00    +0.026 A 
ATOM      8  C   UNL     1       5.500  -5.596  23.586  0.00  0.00    +0.140 A 
ATOM      9  C   UNL     1       5.549  -6.208  22.327  0.00  0.00    +0.092 A 
ATOM     10  C   UNL     1       6.121  -5.528  21.261  0.00  0.00    +0.120 A 
ATOM     11  C   UNL     1       6.688  -4.278  21.451  0.00  0.00    +0.046 A 
ATOM     12  O   UNL     1       4.886  -6.333  24.576  0.00  0.00    -0.455 OA
ATOM     13  C   UNL     1       5.148  -5.994  25.885  0.00  0.00    +0.140 A 
ATOM     14  C   UNL     1       4.753  -6.932  26.842  0.00  0.00    +0.092 A 
ATOM     15  C   UNL     1       4.956  -6.659  28.185  0.00  0.00    +0.120 A 
ATOM     16  C   UNL     1       5.669  -5.533  28.575  0.00  0.00    +0.046 A 
ATOM     17  C   UNL     1       6.115  -4.627  27.605  0.00  0.00    +0.016 A 
ATOM     18  C   UNL     1       6.685  -3.697  22.724  0.00  0.00    +0.016 A 
ATOM     19  C   UNL     1       5.740  -4.777  26.263  0.00  0.00    +0.026 A 
ATOM     20  C   UNL     1       5.711  -1.400  24.338  0.00  0.00    +0.011 C 
ATOM     21  C   UNL     1       6.316  -0.218  24.531  0.00  0.00    +0.026 C 
ENDROOT
BRANCH   1  23
ATOM     22  S   UNL     1       9.840   1.071  24.601  0.00  0.00    -0.035 S 
ATOM     23  C   UNL     1       8.351   1.729  25.243  0.00  0.00    +0.154 C 
BRANCH  22  24
ATOM     24  N   UNL     1      10.279   2.246  23.503  0.00  0.00    -0.259 NA
ATOM     25  H   UNL     1       9.744   3.098  23.675  0.00  0.00    +0.135 HD
BRANCH  24  27
ATOM     26  C   UNL     1       9.771   0.479  21.865  0.00  0.00    +0.021 C 
ATOM     27  C   UNL     1      10.186   1.928  22.074  0.00  0.00    +0.090 C 
ENDBRANCH  24  27
ENDBRANCH  22  24
ENDBRANCH   1  23
BRANCH   4  28
ATOM     28  C   UNL     1       4.512  -2.164  27.804  0.00  0.00    +0.337 C 
ATOM     29  O   UNL     1       4.720  -2.017  29.002  0.00  0.00    -0.245 OA
BRANCH  28  30
ATOM     30  O   UNL     1       3.348  -2.658  27.337  0.00  0.00    -0.477 OA
ATOM     31  H   UNL     1       3.111  -3.544  27.668  0.00  0.00    +0.295 HD
ENDBRANCH  28  30
ENDBRANCH   4  28
BRANCH  10  32
ATOM     32  O   UNL     1       6.163  -6.059  20.007  0.00  0.00    -0.507 OA
ATOM     33  H   UNL     1       5.747  -6.938  20.020  0.00  0.00    +0.292 HD
ENDBRANCH  10  32
BRANCH  15  34
ATOM     34  O   UNL     1       4.433  -7.520  29.101  0.00  0.00    -0.507 OA
ATOM     35  H   UNL     1       4.431  -8.413  28.714  0.00  0.00    +0.292 HD
ENDBRANCH  15  34
TORSDOF 7
ENDMDL
MODEL 7
REMARK VINA RESULT:      -6.4      3.059      3.598
REMARK  Name = 
REMARK  8 active torsions:
REMARK  status: ('A' for Active; 'I' for Inactive)
REMARK    1  A    between atoms: C_1  and  C_2
REMARK    2  A    between atoms: C_2  and  N_3
REMARK    3  A    between atoms: N_3  and  S_4
REMARK    4  A    between atoms: C_5  and  N_6
REMARK    5  A    between atoms: C_11  and  C_13
REMARK    6  A    between atoms: C_13  and  O_14
REMARK    7  A    between atoms: C_20  and  O_21
REMARK    8  A    between atoms: C_27  and  O_28
REMARK                            x       y       z     vdW  Elec       q    Type
REMARK                         _______ _______ _______ _____ _____    ______ ____
ROOT
ATOM      1  N   UNL     1       8.598   0.109  21.746  0.00  0.00    -0.215 NA
ATOM      2  C   UNL     1       8.396  -0.717  22.720  0.00  0.00    +0.054 C 
ATOM      3  C   UNL     1       8.214  -2.162  22.396  0.00  0.00    +0.040 C 
ATOM      4  C   UNL     1       7.660  -2.991  23.304  0.00  0.00    +0.068 C 
ATOM      5  C   UNL     1       7.046  -2.395  24.515  0.00  0.00    -0.002 C 
ATOM      6  C   UNL     1       5.859  -2.770  25.097  0.00  0.00    +0.004 C 
ATOM      7  C   UNL     1       5.325  -2.133  26.358  0.00  0.00    +0.026 A 
ATOM      8  C   UNL     1       4.597  -2.966  27.226  0.00  0.00    +0.140 A 
ATOM      9  C   UNL     1       4.097  -2.495  28.447  0.00  0.00    +0.092 A 
ATOM     10  C   UNL     1       4.331  -1.178  28.817  0.00  0.00    +0.120 A 
ATOM     11  C   UNL     1       5.005  -0.320  27.962  0.00  0.00    +0.046 A 
ATOM     12  O   UNL     1       4.343  -4.294  26.957  0.00  0.00    -0.455 OA
ATOM     13  C   UNL     1       4.438  -4.714  25.649  0.00  0.00    +0.140 A 
ATOM     14  C   UNL     1       3.894  -5.971  25.379  0.00  0.00    +0.092 A 
ATOM     15  C   UNL     1       3.969  -6.482  24.092  0.00  0.00    +0.120 A 
ATOM     16  C   UNL     1       4.452  -5.700  23.052  0.00  0.00    +0.046 A 
ATOM     17  C   UNL     1       4.942  -4.416  23.321  0.00  0.00    +0.016 A 
ATOM     18  C   UNL     1       5.452  -0.783  26.719  0.00  0.00    +0.016 A 
ATOM     19  C   UNL     1       5.067  -3.963  24.641  0.00  0.00    +0.026 A 
ATOM     20  C   UNL     1       7.851  -1.280  25.037  0.00  0.00    +0.011 C 
ATOM     21  C   UNL     1       8.447  -0.430  24.187  0.00  0.00    +0.026 C 
ENDROOT
BRANCH   1  23
ATOM     22  S   UNL     1       7.424   2.504  21.969  0.00  0.00    -0.035 S 
ATOM     23  C   UNL     1       8.810   1.435  21.990  0.00  0.00    +0.154 C 
BRANCH  22  24
ATOM     24  N   UNL     1       8.136   3.979  22.281  0.00  0.00    -0.259 NA
ATOM     25  H   UNL     1       8.921   3.857  22.920  0.00  0.00    +0.135 HD
BRANCH  24  27
ATOM     26  C   UNL     1       7.358   6.283  21.894  0.00  0.00    +0.021 C 
ATOM     27  C   UNL     1       7.290   5.061  22.797  0.00  0.00    +0.090 C 
ENDBRANCH  24  27
ENDBRANCH  22  24
ENDBRANCH   1  23
BRANCH   4  28
ATOM     28  C   UNL     1       7.872  -4.438  23.024  0.00  0.00    +0.337 C 
ATOM     29  O   UNL     1       8.303  -5.232  23.852  0.00  0.00    -0.245 OA
BRANCH  28  30
ATOM     30  O   UNL     1       7.485  -4.831  21.794  0.00  0.00    -0.477 OA
ATOM     31  H   UNL     1       6.600  -5.237  21.747  0.00  0.00    +0.295 HD
ENDBRANCH  28  30
ENDBRANCH   4  28
BRANCH  10  32
ATOM     32  O   UNL     1       3.902  -0.678  30.008  0.00  0.00    -0.507 OA
ATOM     33  H   UNL     1       3.130  -0.108  29.855  0.00  0.00    +0.292 HD
ENDBRANCH  10  32
BRANCH  15  34
ATOM     34  O   UNL     1       3.563  -7.766  23.887  0.00  0.00    -0.507 OA
ATOM     35  H   UNL     1       4.185  -8.359  24.343  0.00  0.00    +0.292 HD
ENDBRANCH  15  34
TORSDOF 7
ENDMDL
MODEL 8
REMARK VINA RESULT:      -6.4      5.088      8.119
REMARK  Name = 
REMARK  8 active torsions:
REMARK  status: ('A' for Active; 'I' for Inactive)
REMARK    1  A    between atoms: C_1  and  C_2
REMARK    2  A    between atoms: C_2  and  N_3
REMARK    3  A    between atoms: N_3  and  S_4
REMARK    4  A    between atoms: C_5  and  N_6
REMARK    5  A    between atoms: C_11  and  C_13
REMARK    6  A    between atoms: C_13  and  O_14
REMARK    7  A    between atoms: C_20  and  O_21
REMARK    8  A    between atoms: C_27  and  O_28
REMARK                            x       y       z     vdW  Elec       q    Type
REMARK                         _______ _______ _______ _____ _____    ______ ____
ROOT
ATOM      1  N   UNL     1       2.574  -0.142  26.936  0.00  0.00    -0.215 NA
ATOM      2  C   UNL     1       3.865  -0.197  26.919  0.00  0.00    +0.054 C 
ATOM      3  C   UNL     1       4.615   0.945  26.319  0.00  0.00    +0.040 C 
ATOM      4  C   UNL     1       5.905   0.788  25.959  0.00  0.00    +0.068 C 
ATOM      5  C   UNL     1       6.474  -0.581  25.968  0.00  0.00    -0.002 C 
ATOM      6  C   UNL     1       7.303  -1.126  25.017  0.00  0.00    +0.004 C 
ATOM      7  C   UNL     1       7.872  -2.521  25.125  0.00  0.00    +0.026 A 
ATOM      8  C   UNL     1       9.157  -2.722  24.592  0.00  0.00    +0.140 A 
ATOM      9  C   UNL     1       9.803  -3.961  24.681  0.00  0.00    +0.092 A 
ATOM     10  C   UNL     1       9.166  -5.018  25.316  0.00  0.00    +0.120 A 
ATOM     11  C   UNL     1       7.880  -4.865  25.810  0.00  0.00    +0.046 A 
ATOM     12  O   UNL     1       9.878  -1.724  23.972  0.00  0.00    -0.455 OA
ATOM     13  C   UNL     1       9.187  -0.632  23.497  0.00  0.00    +0.140 A 
ATOM     14  C   UNL     1       9.897   0.200  22.629  0.00  0.00    +0.092 A 
ATOM     15  C   UNL     1       9.284   1.336  22.123  0.00  0.00    +0.120 A 
ATOM     16  C   UNL     1       7.937   1.574  22.361  0.00  0.00    +0.046 A 
ATOM     17  C   UNL     1       7.215   0.701  23.185  0.00  0.00    +0.016 A 
ATOM     18  C   UNL     1       7.220  -3.639  25.669  0.00  0.00    +0.016 A 
ATOM     19  C   UNL     1       7.866  -0.332  23.872  0.00  0.00    +0.026 A 
ATOM     20  C   UNL     1       6.011  -1.352  27.132  0.00  0.00    +0.011 C 
ATOM     21  C   UNL     1       4.744  -1.228  27.555  0.00  0.00    +0.026 C 
ENDROOT
BRANCH   1  23
ATOM     22  S   UNL     1       1.308  -2.456  26.485  0.00  0.00    -0.035 S 
ATOM     23  C   UNL     1       1.841  -1.141  27.509  0.00  0.00    +0.154 C 
BRANCH  22  24
ATOM     24  N   UNL     1       0.456  -3.397  27.566  0.00  0.00    -0.259 NA
ATOM     25  H   UNL     1       0.371  -2.909  28.457  0.00  0.00    +0.135 HD
BRANCH  24  27
ATOM     26  C   UNL     1       2.459  -4.793  27.884  0.00  0.00    +0.021 C 
ATOM     27  C   UNL     1       0.939  -4.756  27.832  0.00  0.00    +0.090 C 
ENDBRANCH  24  27
ENDBRANCH  22  24
ENDBRANCH   1  23
BRANCH   4  28
ATOM     28  C   UNL     1       6.639   2.064  25.731  0.00  0.00    +0.337 C 
ATOM     29  O   UNL     1       6.157   3.027  25.147  0.00  0.00    -0.245 OA
BRANCH  28  30
ATOM     30  O   UNL     1       7.867   2.107  26.284  0.00  0.00    -0.477 OA
ATOM     31  H   UNL     1       8.177   1.269  26.674  0.00  0.00    +0.295 HD
ENDBRANCH  28  30
ENDBRANCH   4  28
BRANCH  10  32
ATOM     32  O   UNL     1       9.761  -6.234  25.464  0.00  0.00    -0.507 OA
ATOM     33  H   UNL     1       9.221  -6.909  25.020  0.00  0.00    +0.292 HD
ENDBRANCH  10  32
BRANCH  15  34
ATOM     34  O   UNL     1      10.041   2.204  21.398  0.00  0.00    -0.507 OA
ATOM     35  H   UNL     1      10.872   1.758  21.157  0.00  0.00    +0.292 HD
ENDBRANCH  15  34
TORSDOF 7
ENDMDL
MODEL 9
REMARK VINA RESULT:      -6.1      5.015      7.349
REMARK  Name = 
REMARK  8 active torsions:
REMARK  status: ('A' for Active; 'I' for Inactive)
REMARK    1  A    between atoms: C_1  and  C_2
REMARK    2  A    between atoms: C_2  and  N_3
REMARK    3  A    between atoms: N_3  and  S_4
REMARK    4  A    between atoms: C_5  and  N_6
REMARK    5  A    between atoms: C_11  and  C_13
REMARK    6  A    between atoms: C_13  and  O_14
REMARK    7  A    between atoms: C_20  and  O_21
REMARK    8  A    between atoms: C_27  and  O_28
REMARK                            x       y       z     vdW  Elec       q    Type
REMARK                         _______ _______ _______ _____ _____    ______ ____
ROOT
ATOM      1  N   UNL     1       8.993   5.387  24.217  0.00  0.00    -0.215 NA
ATOM      2  C   UNL     1       8.321   4.315  23.949  0.00  0.00    +0.054 C 
ATOM      3  C   UNL     1       6.873   4.279  24.309  0.00  0.00    +0.040 C 
ATOM      4  C   UNL     1       6.228   3.097  24.381  0.00  0.00    +0.068 C 
ATOM      5  C   UNL     1       7.031   1.853  24.316  0.00  0.00    -0.002 C 
ATOM      6  C   UNL     1       6.858   0.729  25.087  0.00  0.00    +0.004 C 
ATOM      7  C   UNL     1       7.700  -0.515  24.926  0.00  0.00    +0.026 A 
ATOM      8  C   UNL     1       7.063  -1.744  25.170  0.00  0.00    +0.140 A 
ATOM      9  C   UNL     1       7.733  -2.964  25.004  0.00  0.00    +0.092 A 
ATOM     10  C   UNL     1       9.055  -2.962  24.582  0.00  0.00    +0.120 A 
ATOM     11  C   UNL     1       9.724  -1.766  24.378  0.00  0.00    +0.046 A 
ATOM     12  O   UNL     1       5.746  -1.844  25.563  0.00  0.00    -0.455 OA
ATOM     13  C   UNL     1       5.157  -0.732  26.123  0.00  0.00    +0.140 A 
ATOM     14  C   UNL     1       3.938  -0.956  26.769  0.00  0.00    +0.092 A 
ATOM     15  C   UNL     1       3.265   0.112  27.339  0.00  0.00    +0.120 A 
ATOM     16  C   UNL     1       3.855   1.368  27.394  0.00  0.00    +0.046 A 
ATOM     17  C   UNL     1       5.105   1.571  26.796  0.00  0.00    +0.016 A 
ATOM     18  C   UNL     1       9.065  -0.552  24.599  0.00  0.00    +0.016 A 
ATOM     19  C   UNL     1       5.705   0.558  26.036  0.00  0.00    +0.026 A 
ATOM     20  C   UNL     1       8.114   1.959  23.326  0.00  0.00    +0.011 C 
ATOM     21  C   UNL     1       8.784   3.113  23.188  0.00  0.00    +0.026 C 
ENDROOT
BRANCH   1  23
ATOM     22  S   UNL     1      11.367   6.390  24.937  0.00  0.00    -0.035 S 
ATOM     23  C   UNL     1      10.310   5.488  23.873  0.00  0.00    +0.154 C 
BRANCH  22  24
ATOM     24  N   UNL     1      12.824   6.275  24.136  0.00  0.00    -0.259 NA
ATOM     25  H   UNL     1      13.027   7.153  23.658  0.00  0.00    +0.135 HD
BRANCH  24  27
ATOM     26  C   UNL     1      13.500   5.704  21.838  0.00  0.00    +0.021 C 
ATOM     27  C   UNL     1      13.003   5.180  23.177  0.00  0.00    +0.090 C 
ENDBRANCH  24  27
ENDBRANCH  22  24
ENDBRANCH   1  23
BRANCH   4  28
ATOM     28  C   UNL     1       4.742   3.208  24.374  0.00  0.00    +0.337 C 
ATOM     29  O   UNL     1       4.123   4.053  25.010  0.00  0.00    -0.245 OA
BRANCH  28  30
ATOM     30  O   UNL     1       4.122   2.338  23.553  0.00  0.00    -0.477 OA
ATOM     31  H   UNL     1       3.403   1.821  23.961  0.00  0.00    +0.295 HD
ENDBRANCH  28  30
ENDBRANCH   4  28
BRANCH  10  32
ATOM     32  O   UNL     1       9.743  -4.118  24.368  0.00  0.00    -0.507 OA
ATOM     33  H   UNL     1       9.767  -4.302  23.413  0.00  0.00    +0.292 HD
ENDBRANCH  10  32
BRANCH  15  34
ATOM     34  O   UNL     1       2.015  -0.107  27.832  0.00  0.00    -0.507 OA
ATOM     35  H   UNL     1       2.093  -0.317  28.779  0.00  0.00    +0.292 HD
ENDBRANCH  15  34
TORSDOF 7
ENDMDL
