MODEL 1
REMARK VINA RESULT:      -6.8      0.000      0.000
REMARK  Name = 
REMARK  2 active torsions:
REMARK  status: ('A' for Active; 'I' for Inactive)
REMARK    1  A    between atoms: O_1  and  C_2
REMARK    2  A    between atoms: N_5  and  C_16
REMARK                            x       y       z     vdW  Elec       q    Type
REMARK                         _______ _______ _______ _____ _____    ______ ____
ROOT
ATOM      1  C   UNL     1       7.953  -3.659  25.346  0.00  0.00    +0.235 C 
ATOM      2  C   UNL     1       8.454  -4.735  24.391  0.00  0.00    +0.211 C 
ATOM      3  O   UNL     1       9.281  -5.594  24.668  0.00  0.00    -0.288 OA
ATOM      4  C   UNL     1       7.690  -4.743  23.125  0.00  0.00    +0.072 A 
ATOM      5  C   UNL     1       7.328  -5.936  22.504  0.00  0.00    +0.016 A 
ATOM      6  C   UNL     1       6.434  -5.896  21.432  0.00  0.00    +0.001 A 
ATOM      7  C   UNL     1       5.947  -4.669  20.969  0.00  0.00    +0.004 A 
ATOM      8  C   UNL     1       6.337  -3.478  21.587  0.00  0.00    +0.056 A 
ATOM      9  C   UNL     1       7.189  -3.505  22.692  0.00  0.00    +0.187 A 
ATOM     10  N   UNL     1       7.527  -2.293  23.316  0.00  0.00    -0.042 NA
ATOM     11  C   UNL     1       7.926  -2.328  24.551  0.00  0.00    +0.334 C 
ATOM     12  N   UNL     1       8.414  -1.296  25.343  0.00  0.00    -0.188 N 
ATOM     13  C   UNL     1       8.647  -1.780  26.699  0.00  0.00    +0.236 C 
ATOM     14  C   UNL     1       8.813  -3.299  26.546  0.00  0.00    +0.099 C 
ENDROOT
BRANCH  12  15
ATOM     15  C   UNL     1       8.720   0.017  24.961  0.00  0.00    +0.121 A 
ATOM     16  C   UNL     1       9.998   0.397  24.510  0.00  0.00    +0.049 A 
ATOM     17  C   UNL     1      10.314   1.719  24.164  0.00  0.00    +0.004 A 
ATOM     18  C   UNL     1       9.353   2.713  24.259  0.00  0.00    +0.000 A 
ATOM     19  C   UNL     1       8.077   2.380  24.690  0.00  0.00    +0.004 A 
ATOM     20  C   UNL     1       7.768   1.053  25.027  0.00  0.00    +0.049 A 
ENDBRANCH  12  15
BRANCH   1  21
ATOM     21  O   UNL     1       6.694  -4.111  25.838  0.00  0.00    -0.370 OA
ATOM     22  H   UNL     1       6.475  -3.538  26.600  0.00  0.00    +0.211 HD
ENDBRANCH   1  21
TORSDOF 2
ENDMDL
MODEL 2
REMARK VINA RESULT:      -6.8      2.122      3.797
REMARK  Name = 
REMARK  2 active torsions:
REMARK  status: ('A' for Active; 'I' for Inactive)
REMARK    1  A    between atoms: O_1  and  C_2
REMARK    2  A    between atoms: N_5  and  C_16
REMARK                            x       y       z     vdW  Elec       q    Type
REMARK                         _______ _______ _______ _____ _____    ______ ____
ROOT
ATOM      1  C   UNL     1       9.373  -1.517  22.603  0.00  0.00    +0.235 C 
ATOM      2  C   UNL     1       8.288  -2.583  22.694  0.00  0.00    +0.211 C 
ATOM      3  O   UNL     1       7.647  -3.020  21.746  0.00  0.00    -0.288 OA
ATOM      4  C   UNL     1       8.213  -3.173  24.047  0.00  0.00    +0.072 A 
ATOM      5  C   UNL     1       8.006  -4.539  24.232  0.00  0.00    +0.016 A 
ATOM      6  C   UNL     1       8.152  -5.077  25.512  0.00  0.00    +0.001 A 
ATOM      7  C   UNL     1       8.460  -4.245  26.593  0.00  0.00    +0.004 A 
ATOM      8  C   UNL     1       8.640  -2.873  26.397  0.00  0.00    +0.056 A 
ATOM      9  C   UNL     1       8.550  -2.328  25.116  0.00  0.00    +0.187 A 
ATOM     10  N   UNL     1       8.780  -0.953  24.947  0.00  0.00    -0.042 NA
ATOM     11  C   UNL     1       9.132  -0.527  23.773  0.00  0.00    +0.334 C 
ATOM     12  N   UNL     1       9.308   0.777  23.330  0.00  0.00    -0.188 N 
ATOM     13  C   UNL     1       9.804   0.772  21.958  0.00  0.00    +0.236 C 
ATOM     14  C   UNL     1       9.380  -0.593  21.396  0.00  0.00    +0.099 C 
ENDROOT
BRANCH  12  15
ATOM     15  C   UNL     1       9.020   1.968  24.011  0.00  0.00    +0.121 A 
ATOM     16  C   UNL     1       8.040   2.048  25.017  0.00  0.00    +0.049 A 
ATOM     17  C   UNL     1       7.726   3.248  25.671  0.00  0.00    +0.004 A 
ATOM     18  C   UNL     1       8.389   4.418  25.336  0.00  0.00    +0.000 A 
ATOM     19  C   UNL     1       9.369   4.382  24.355  0.00  0.00    +0.004 A 
ATOM     20  C   UNL     1       9.682   3.175  23.711  0.00  0.00    +0.049 A 
ENDBRANCH  12  15
BRANCH   1  21
ATOM     21  O   UNL     1      10.619  -2.208  22.623  0.00  0.00    -0.370 OA
ATOM     22  H   UNL     1      10.441  -3.084  23.019  0.00  0.00    +0.211 HD
ENDBRANCH   1  21
TORSDOF 2
ENDMDL
MODEL 3
REMARK VINA RESULT:      -6.7      1.563      1.789
REMARK  Name = 
REMARK  2 active torsions:
REMARK  status: ('A' for Active; 'I' for Inactive)
REMARK    1  A    between atoms: O_1  and  C_2
REMARK    2  A    between atoms: N_5  and  C_16
REMARK                            x       y       z     vdW  Elec       q    Type
REMARK                         _______ _______ _______ _____ _____    ______ ____
ROOT
ATOM      1  C   UNL     1       7.893  -2.622  24.908  0.00  0.00    +0.235 C 
ATOM      2  C   UNL     1       8.642  -3.729  24.175  0.00  0.00    +0.211 C 
ATOM      3  O   UNL     1       9.734  -4.176  24.501  0.00  0.00    -0.288 OA
ATOM      4  C   UNL     1       7.814  -4.341  23.115  0.00  0.00    +0.072 A 
ATOM      5  C   UNL     1       7.826  -5.716  22.887  0.00  0.00    +0.016 A 
ATOM      6  C   UNL     1       6.878  -6.266  22.023  0.00  0.00    +0.001 A 
ATOM      7  C   UNL     1       5.961  -5.438  21.367  0.00  0.00    +0.004 A 
ATOM      8  C   UNL     1       5.976  -4.058  21.586  0.00  0.00    +0.056 A 
ATOM      9  C   UNL     1       6.883  -3.498  22.487  0.00  0.00    +0.187 A 
ATOM     10  N   UNL     1       6.843  -2.113  22.716  0.00  0.00    -0.042 NA
ATOM     11  C   UNL     1       7.341  -1.659  23.825  0.00  0.00    +0.334 C 
ATOM     12  N   UNL     1       7.517  -0.342  24.232  0.00  0.00    -0.188 N 
ATOM     13  C   UNL     1       8.025  -0.310  25.599  0.00  0.00    +0.236 C 
ATOM     14  C   UNL     1       8.685  -1.682  25.801  0.00  0.00    +0.099 C 
ENDROOT
BRANCH  12  15
ATOM     15  C   UNL     1       7.321   0.827  23.485  0.00  0.00    +0.121 A 
ATOM     16  C   UNL     1       8.209   1.241  22.475  0.00  0.00    +0.049 A 
ATOM     17  C   UNL     1       8.033   2.430  21.755  0.00  0.00    +0.004 A 
ATOM     18  C   UNL     1       6.950   3.253  22.024  0.00  0.00    +0.000 A 
ATOM     19  C   UNL     1       6.044   2.879  23.005  0.00  0.00    +0.004 A 
ATOM     20  C   UNL     1       6.226   1.682  23.716  0.00  0.00    +0.049 A 
ENDBRANCH  12  15
BRANCH   1  21
ATOM     21  O   UNL     1       6.915  -3.266  25.720  0.00  0.00    -0.370 OA
ATOM     22  H   UNL     1       6.256  -2.582  25.952  0.00  0.00    +0.211 HD
ENDBRANCH   1  21
TORSDOF 2
ENDMDL
MODEL 4
REMARK VINA RESULT:      -6.7      1.962      6.142
REMARK  Name = 
REMARK  2 active torsions:
REMARK  status: ('A' for Active; 'I' for Inactive)
REMARK    1  A    between atoms: O_1  and  C_2
REMARK    2  A    between atoms: N_5  and  C_16
REMARK                            x       y       z     vdW  Elec       q    Type
REMARK                         _______ _______ _______ _____ _____    ______ ____
ROOT
ATOM      1  C   UNL     1       8.144  -0.455  25.824  0.00  0.00    +0.235 C 
ATOM      2  C   UNL     1       7.741   0.984  25.528  0.00  0.00    +0.211 C 
ATOM      3  O   UNL     1       6.934   1.639  26.176  0.00  0.00    -0.288 OA
ATOM      4  C   UNL     1       8.578   1.578  24.463  0.00  0.00    +0.072 A 
ATOM      5  C   UNL     1       9.022   2.897  24.540  0.00  0.00    +0.016 A 
ATOM      6  C   UNL     1       9.974   3.344  23.622  0.00  0.00    +0.001 A 
ATOM      7  C   UNL     1      10.439   2.488  22.619  0.00  0.00    +0.004 A 
ATOM      8  C   UNL     1       9.967   1.175  22.539  0.00  0.00    +0.056 A 
ATOM      9  C   UNL     1       9.055   0.696  23.481  0.00  0.00    +0.187 A 
ATOM     10  N   UNL     1       8.633  -0.640  23.397  0.00  0.00    -0.042 NA
ATOM     11  C   UNL     1       8.165  -1.206  24.468  0.00  0.00    +0.334 C 
ATOM     12  N   UNL     1       7.592  -2.462  24.616  0.00  0.00    -0.188 N 
ATOM     13  C   UNL     1       7.300  -2.711  26.023  0.00  0.00    +0.236 C 
ATOM     14  C   UNL     1       7.202  -1.314  26.653  0.00  0.00    +0.099 C 
ENDROOT
BRANCH  12  15
ATOM     15  C   UNL     1       7.257  -3.384  23.614  0.00  0.00    +0.121 A 
ATOM     16  C   UNL     1       6.333  -3.093  22.595  0.00  0.00    +0.049 A 
ATOM     17  C   UNL     1       5.970  -4.028  21.615  0.00  0.00    +0.004 A 
ATOM     18  C   UNL     1       6.526  -5.298  21.625  0.00  0.00    +0.000 A 
ATOM     19  C   UNL     1       7.449  -5.624  22.608  0.00  0.00    +0.004 A 
ATOM     20  C   UNL     1       7.812  -4.678  23.580  0.00  0.00    +0.049 A 
ENDBRANCH  12  15
BRANCH   1  21
ATOM     21  O   UNL     1       9.389  -0.391  26.516  0.00  0.00    -0.370 OA
ATOM     22  H   UNL     1       9.842   0.413  26.192  0.00  0.00    +0.211 HD
ENDBRANCH   1  21
TORSDOF 2
ENDMDL
MODEL 5
REMARK VINA RESULT:      -6.6      2.945      6.662
REMARK  Name = 
REMARK  2 active torsions:
REMARK  status: ('A' for Active; 'I' for Inactive)
REMARK    1  A    between atoms: O_1  and  C_2
REMARK    2  A    between atoms: N_5  and  C_16
REMARK                            x       y       z     vdW  Elec       q    Type
REMARK                         _______ _______ _______ _____ _____    ______ ____
ROOT
ATOM      1  C   UNL     1       8.755   0.779  22.536  0.00  0.00    +0.235 C 
ATOM      2  C   UNL     1       9.570   1.888  23.190  0.00  0.00    +0.211 C 
ATOM      3  O   UNL     1      10.595   2.375  22.730  0.00  0.00    -0.288 OA
ATOM      4  C   UNL     1       8.882   2.448  24.373  0.00  0.00    +0.072 A 
ATOM      5  C   UNL     1       8.891   3.816  24.637  0.00  0.00    +0.016 A 
ATOM      6  C   UNL     1       8.059   4.315  25.640  0.00  0.00    +0.001 A 
ATOM      7  C   UNL     1       7.263   3.445  26.392  0.00  0.00    +0.004 A 
ATOM      8  C   UNL     1       7.283   2.072  26.132  0.00  0.00    +0.056 A 
ATOM      9  C   UNL     1       8.069   1.562  25.098  0.00  0.00    +0.187 A 
ATOM     10  N   UNL     1       8.034   0.183  24.836  0.00  0.00    -0.042 NA
ATOM     11  C   UNL     1       8.383  -0.228  23.655  0.00  0.00    +0.334 C 
ATOM     12  N   UNL     1       8.535  -1.527  23.189  0.00  0.00    -0.188 N 
ATOM     13  C   UNL     1       8.848  -1.510  21.765  0.00  0.00    +0.236 C 
ATOM     14  C   UNL     1       9.439  -0.114  21.514  0.00  0.00    +0.099 C 
ENDROOT
BRANCH  12  15
ATOM     15  C   UNL     1       8.474  -2.721  23.921  0.00  0.00    +0.121 A 
ATOM     16  C   UNL     1       9.616  -3.334  24.470  0.00  0.00    +0.049 A 
ATOM     17  C   UNL     1       9.560  -4.548  25.169  0.00  0.00    +0.004 A 
ATOM     18  C   UNL     1       8.346  -5.194  25.344  0.00  0.00    +0.000 A 
ATOM     19  C   UNL     1       7.194  -4.621  24.827  0.00  0.00    +0.004 A 
ATOM     20  C   UNL     1       7.260  -3.401  24.135  0.00  0.00    +0.049 A 
ENDBRANCH  12  15
BRANCH   1  21
ATOM     21  O   UNL     1       7.658   1.415  21.886  0.00  0.00    -0.370 OA
ATOM     22  H   UNL     1       7.275   0.750  21.279  0.00  0.00    +0.211 HD
ENDBRANCH   1  21
TORSDOF 2
ENDMDL
MODEL 6
REMARK VINA RESULT:      -6.4      2.140      3.623
REMARK  Name = 
REMARK  2 active torsions:
REMARK  status: ('A' for Active; 'I' for Inactive)
REMARK    1  A    between atoms: O_1  and  C_2
REMARK    2  A    between atoms: N_5  and  C_16
REMARK                            x       y       z     vdW  Elec       q    Type
REMARK                         _______ _______ _______ _____ _____    ______ ____
ROOT
ATOM      1  C   UNL     1       9.057  -1.950  22.835  0.00  0.00    +0.235 C 
ATOM      2  C   UNL     1       7.918  -2.961  22.834  0.00  0.00    +0.211 C 
ATOM      3  O   UNL     1       7.545  -3.603  21.860  0.00  0.00    -0.288 OA
ATOM      4  C   UNL     1       7.417  -3.223  24.200  0.00  0.00    +0.072 A 
ATOM      5  C   UNL     1       7.069  -4.509  24.611  0.00  0.00    +0.016 A 
ATOM      6  C   UNL     1       6.803  -4.737  25.962  0.00  0.00    +0.001 A 
ATOM      7  C   UNL     1       6.848  -3.679  26.876  0.00  0.00    +0.004 A 
ATOM      8  C   UNL     1       7.175  -2.391  26.446  0.00  0.00    +0.056 A 
ATOM      9  C   UNL     1       7.495  -2.155  25.108  0.00  0.00    +0.187 A 
ATOM     10  N   UNL     1       7.861  -0.857  24.717  0.00  0.00    -0.042 NA
ATOM     11  C   UNL     1       8.564  -0.716  23.635  0.00  0.00    +0.334 C 
ATOM     12  N   UNL     1       8.953   0.450  22.989  0.00  0.00    -0.188 N 
ATOM     13  C   UNL     1       9.818   0.127  21.860  0.00  0.00    +0.236 C 
ATOM     14  C   UNL     1       9.475  -1.329  21.512  0.00  0.00    +0.099 C 
ENDROOT
BRANCH  12  15
ATOM     15  C   UNL     1       8.568   1.768  23.276  0.00  0.00    +0.121 A 
ATOM     16  C   UNL     1       7.715   2.508  22.437  0.00  0.00    +0.049 A 
ATOM     17  C   UNL     1       7.361   3.838  22.705  0.00  0.00    +0.004 A 
ATOM     18  C   UNL     1       7.855   4.477  23.832  0.00  0.00    +0.000 A 
ATOM     19  C   UNL     1       8.693   3.780  24.691  0.00  0.00    +0.004 A 
ATOM     20  C   UNL     1       9.035   2.446  24.418  0.00  0.00    +0.049 A 
ENDBRANCH  12  15
BRANCH   1  21
ATOM     21  O   UNL     1      10.193  -2.623  23.373  0.00  0.00    -0.370 OA
ATOM     22  H   UNL     1      10.313  -2.277  24.280  0.00  0.00    +0.211 HD
ENDBRANCH   1  21
TORSDOF 2
ENDMDL
MODEL 7
REMARK VINA RESULT:      -6.4      3.100      6.582
REMARK  Name = 
REMARK  2 active torsions:
REMARK  status: ('A' for Active; 'I' for Inactive)
REMARK    1  A    between atoms: O_1  and  C_2
REMARK    2  A    between atoms: N_5  and  C_16
REMARK                            x       y       z     vdW  Elec       q    Type
REMARK                         _______ _______ _______ _____ _____    ______ ____
ROOT
ATOM      1  C   UNL     1       9.254   0.543  22.439  0.00  0.00    +0.235 C 
ATOM      2  C   UNL     1       9.387   1.752  23.357  0.00  0.00    +0.211 C 
ATOM      3  O   UNL     1      10.397   2.058  23.978  0.00  0.00    -0.288 OA
ATOM      4  C   UNL     1       8.202   2.633  23.276  0.00  0.00    +0.072 A 
ATOM      5  C   UNL     1       8.329   4.021  23.278  0.00  0.00    +0.016 A 
ATOM      6  C   UNL     1       7.209   4.802  22.991  0.00  0.00    +0.001 A 
ATOM      7  C   UNL     1       5.973   4.195  22.748  0.00  0.00    +0.004 A 
ATOM      8  C   UNL     1       5.855   2.803  22.773  0.00  0.00    +0.056 A 
ATOM      9  C   UNL     1       6.976   2.006  23.006  0.00  0.00    +0.187 A 
ATOM     10  N   UNL     1       6.831   0.609  22.982  0.00  0.00    -0.042 NA
ATOM     11  C   UNL     1       7.885  -0.114  22.755  0.00  0.00    +0.334 C 
ATOM     12  N   UNL     1       8.023  -1.496  22.788  0.00  0.00    -0.188 N 
ATOM     13  C   UNL     1       9.369  -1.870  22.369  0.00  0.00    +0.236 C 
ATOM     14  C   UNL     1      10.218  -0.617  22.625  0.00  0.00    +0.099 C 
ENDROOT
BRANCH  12  15
ATOM     15  C   UNL     1       7.083  -2.449  23.205  0.00  0.00    +0.121 A 
ATOM     16  C   UNL     1       7.164  -3.099  24.450  0.00  0.00    +0.049 A 
ATOM     17  C   UNL     1       6.246  -4.080  24.851  0.00  0.00    +0.004 A 
ATOM     18  C   UNL     1       5.206  -4.446  24.010  0.00  0.00    +0.000 A 
ATOM     19  C   UNL     1       5.084  -3.823  22.777  0.00  0.00    +0.004 A 
ATOM     20  C   UNL     1       6.004  -2.837  22.387  0.00  0.00    +0.049 A 
ENDBRANCH  12  15
BRANCH   1  21
ATOM     21  O   UNL     1       9.415   1.027  21.108  0.00  0.00    -0.370 OA
ATOM     22  H   UNL     1       8.552   0.904  20.665  0.00  0.00    +0.211 HD
ENDBRANCH   1  21
TORSDOF 2
ENDMDL
MODEL 8
REMARK VINA RESULT:      -6.4      2.394      2.469
REMARK  Name = 
REMARK  2 active torsions:
REMARK  status: ('A' for Active; 'I' for Inactive)
REMARK    1  A    between atoms: O_1  and  C_2
REMARK    2  A    between atoms: N_5  and  C_16
REMARK                            x       y       z     vdW  Elec       q    Type
REMARK                         _______ _______ _______ _____ _____    ______ ____
ROOT
ATOM      1  C   UNL     1       7.022  -3.537  26.055  0.00  0.00    +0.235 C 
ATOM      2  C   UNL     1       6.922  -5.027  25.755  0.00  0.00    +0.211 C 
ATOM      3  O   UNL     1       7.610  -5.898  26.272  0.00  0.00    -0.288 OA
ATOM      4  C   UNL     1       5.762  -5.335  24.892  0.00  0.00    +0.072 A 
ATOM      5  C   UNL     1       4.974  -6.464  25.110  0.00  0.00    +0.016 A 
ATOM      6  C   UNL     1       3.777  -6.598  24.406  0.00  0.00    +0.001 A 
ATOM      7  C   UNL     1       3.401  -5.632  23.468  0.00  0.00    +0.004 A 
ATOM      8  C   UNL     1       4.212  -4.517  23.242  0.00  0.00    +0.056 A 
ATOM      9  C   UNL     1       5.386  -4.340  23.975  0.00  0.00    +0.187 A 
ATOM     10  N   UNL     1       6.156  -3.188  23.754  0.00  0.00    -0.042 NA
ATOM     11  C   UNL     1       6.964  -2.798  24.692  0.00  0.00    +0.334 C 
ATOM     12  N   UNL     1       7.897  -1.769  24.674  0.00  0.00    -0.188 N 
ATOM     13  C   UNL     1       8.512  -1.634  25.990  0.00  0.00    +0.236 C 
ATOM     14  C   UNL     1       8.314  -3.004  26.654  0.00  0.00    +0.099 C 
ENDROOT
BRANCH  12  15
ATOM     15  C   UNL     1       8.290  -0.977  23.586  0.00  0.00    +0.121 A 
ATOM     16  C   UNL     1       9.379  -1.311  22.760  0.00  0.00    +0.049 A 
ATOM     17  C   UNL     1       9.795  -0.498  21.695  0.00  0.00    +0.004 A 
ATOM     18  C   UNL     1       9.128   0.686  21.421  0.00  0.00    +0.000 A 
ATOM     19  C   UNL     1       8.044   1.048  22.206  0.00  0.00    +0.004 A 
ATOM     20  C   UNL     1       7.630   0.224  23.265  0.00  0.00    +0.049 A 
ENDBRANCH  12  15
BRANCH   1  21
ATOM     21  O   UNL     1       5.969  -3.236  26.967  0.00  0.00    -0.370 OA
ATOM     22  H   UNL     1       6.138  -3.773  27.768  0.00  0.00    +0.211 HD
ENDBRANCH   1  21
TORSDOF 2
ENDMDL
MODEL 9
REMARK VINA RESULT:      -6.3      2.175      2.480
REMARK  Name = 
REMARK  2 active torsions:
REMARK  status: ('A' for Active; 'I' for Inactive)
REMARK    1  A    between atoms: O_1  and  C_2
REMARK    2  A    between atoms: N_5  and  C_16
REMARK                            x       y       z     vdW  Elec       q    Type
REMARK                         _______ _______ _______ _____ _____    ______ ____
ROOT
ATOM      1  C   UNL     1       8.031  -3.713  24.417  0.00  0.00    +0.235 C 
ATOM      2  C   UNL     1       7.621  -4.927  23.593  0.00  0.00    +0.211 C 
ATOM      3  O   UNL     1       8.382  -5.801  23.198  0.00  0.00    -0.288 OA
ATOM      4  C   UNL     1       6.151  -5.035  23.473  0.00  0.00    +0.072 A 
ATOM      5  C   UNL     1       5.505  -6.268  23.552  0.00  0.00    +0.016 A 
ATOM      6  C   UNL     1       4.113  -6.296  23.642  0.00  0.00    +0.001 A 
ATOM      7  C   UNL     1       3.382  -5.104  23.611  0.00  0.00    +0.004 A 
ATOM      8  C   UNL     1       4.042  -3.877  23.507  0.00  0.00    +0.056 A 
ATOM      9  C   UNL     1       5.436  -3.828  23.469  0.00  0.00    +0.187 A 
ATOM     10  N   UNL     1       6.068  -2.576  23.407  0.00  0.00    -0.042 NA
ATOM     11  C   UNL     1       7.300  -2.488  23.809  0.00  0.00    +0.334 C 
ATOM     12  N   UNL     1       8.166  -1.404  23.748  0.00  0.00    -0.188 N 
ATOM     13  C   UNL     1       9.423  -1.736  24.410  0.00  0.00    +0.236 C 
ATOM     14  C   UNL     1       9.485  -3.271  24.378  0.00  0.00    +0.099 C 
ENDROOT
BRANCH  12  15
ATOM     15  C   UNL     1       7.965  -0.170  23.114  0.00  0.00    +0.121 A 
ATOM     16  C   UNL     1       6.905   0.692  23.453  0.00  0.00    +0.049 A 
ATOM     17  C   UNL     1       6.682   1.908  22.793  0.00  0.00    +0.004 A 
ATOM     18  C   UNL     1       7.520   2.306  21.763  0.00  0.00    +0.000 A 
ATOM     19  C   UNL     1       8.583   1.490  21.403  0.00  0.00    +0.004 A 
ATOM     20  C   UNL     1       8.803   0.277  22.075  0.00  0.00    +0.049 A 
ENDBRANCH  12  15
BRANCH   1  21
ATOM     21  O   UNL     1       7.710  -4.017  25.772  0.00  0.00    -0.370 OA
ATOM     22  H   UNL     1       6.740  -4.143  25.802  0.00  0.00    +0.211 HD
ENDBRANCH   1  21
TORSDOF 2
ENDMDL
