MODEL 1
REMARK VINA RESULT:      -7.4      0.000      0.000
REMARK  Name = 
REMARK  3 active torsions:
REMARK  status: ('A' for Active; 'I' for Inactive)
REMARK    1  A    between atoms: C_5  and  C_9
REMARK    2  A    between atoms: N_15  and  C_26
REMARK    3  A    between atoms: C_18  and  N_20
REMARK                            x       y       z     vdW  Elec       q    Type
REMARK                         _______ _______ _______ _____ _____    ______ ____
ROOT
ATOM      1  C   UNL     1       7.074  -0.783  24.096  0.00  0.00    -0.007 A 
ATOM      2  C   UNL     1       6.253  -0.213  25.097  0.00  0.00    +0.032 A 
ATOM      3  C   UNL     1       5.339  -0.941  25.873  0.00  0.00    +0.032 A 
ATOM      4  C   UNL     1       5.154  -2.293  25.552  0.00  0.00    +0.047 A 
ATOM      5  C   UNL     1       5.878  -2.939  24.541  0.00  0.00    +0.050 A 
ATOM      6  N   UNL     1       5.662  -4.330  24.195  0.00  0.00    -0.221 N 
ATOM      7  C   UNL     1       6.408  -4.953  23.204  0.00  0.00    +0.311 C 
ATOM      8  O   UNL     1       6.140  -6.049  22.698  0.00  0.00    -0.252 OA
ATOM      9  N   UNL     1       7.568  -4.340  22.852  0.00  0.00    -0.295 N 
ATOM     10  H   UNL     1       8.068  -4.864  22.148  0.00  0.00    +0.151 HD
ATOM     11  C   UNL     1       7.707  -2.922  22.844  0.00  0.00    +0.143 C 
ATOM     12  C   UNL     1       6.871  -2.186  23.847  0.00  0.00    -0.001 A 
ENDROOT
BRANCH   1  18
ATOM     13  F   UNL     1      10.943   2.669  21.667  0.00  0.00    -0.205 F 
ATOM     14  C   UNL     1      10.048   1.846  22.232  0.00  0.00    +0.126 A 
ATOM     15  C   UNL     1      10.409   1.081  23.322  0.00  0.00    +0.077 A 
ATOM     16  C   UNL     1       9.480   0.196  23.887  0.00  0.00    +0.134 A 
ATOM     17  F   UNL     1       9.963  -0.603  24.843  0.00  0.00    -0.205 F 
ATOM     18  C   UNL     1       8.139   0.099  23.461  0.00  0.00    +0.018 A 
ATOM     19  C   UNL     1       7.830   0.900  22.330  0.00  0.00    +0.014 A 
ATOM     20  C   UNL     1       8.774   1.740  21.709  0.00  0.00    +0.039 A 
ENDBRANCH   1  18
BRANCH   6  21
ATOM     21  C   UNL     1       4.884  -5.207  25.044  0.00  0.00    +0.079 A 
ATOM     22  C   UNL     1       3.539  -5.533  24.787  0.00  0.00    +0.064 A 
ATOM     23 CL   UNL     1       2.708  -5.005  23.360  0.00  0.00    -0.082 Cl
ATOM     24  C   UNL     1       2.820  -6.392  25.640  0.00  0.00    +0.022 A 
ATOM     25  C   UNL     1       3.443  -7.004  26.727  0.00  0.00    +0.003 A 
ATOM     26  C   UNL     1       4.791  -6.767  26.953  0.00  0.00    +0.022 A 
ATOM     27  C   UNL     1       5.502  -5.876  26.136  0.00  0.00    +0.064 A 
ATOM     28 CL   UNL     1       7.156  -5.613  26.609  0.00  0.00    -0.082 Cl
ENDBRANCH   6  21
BRANCH   3  29
ATOM     29  N   UNL     1       4.753  -0.350  26.988  0.00  0.00    -0.327 N 
ATOM     30  C   UNL     1       4.044   0.939  26.848  0.00  0.00    +0.120 C 
ATOM     31  C   UNL     1       3.999   1.660  28.223  0.00  0.00    +0.100 C 
ATOM     32  N   UNL     1       3.462   0.836  29.327  0.00  0.00    -0.313 NA
ATOM     33  H   UNL     1       3.606   1.330  30.207  0.00  0.00    +0.122 HD
ATOM     34  C   UNL     1       4.185  -0.448  29.381  0.00  0.00    +0.100 C 
ATOM     35  C   UNL     1       4.176  -1.206  28.039  0.00  0.00    +0.120 C 
ENDBRANCH   3  29
TORSDOF 3
ENDMDL
MODEL 2
REMARK VINA RESULT:      -7.4      0.295      1.626
REMARK  Name = 
REMARK  3 active torsions:
REMARK  status: ('A' for Active; 'I' for Inactive)
REMARK    1  A    between atoms: C_5  and  C_9
REMARK    2  A    between atoms: N_15  and  C_26
REMARK    3  A    between atoms: C_18  and  N_20
REMARK                            x       y       z     vdW  Elec       q    Type
REMARK                         _______ _______ _______ _____ _____    ______ ____
ROOT
ATOM      1  C   UNL     1       7.199  -0.745  24.278  0.00  0.00    -0.007 A 
ATOM      2  C   UNL     1       6.332  -0.205  25.257  0.00  0.00    +0.032 A 
ATOM      3  C   UNL     1       5.424  -0.966  26.009  0.00  0.00    +0.032 A 
ATOM      4  C   UNL     1       5.294  -2.323  25.682  0.00  0.00    +0.047 A 
ATOM      5  C   UNL     1       6.067  -2.941  24.690  0.00  0.00    +0.050 A 
ATOM      6  N   UNL     1       5.908  -4.339  24.338  0.00  0.00    -0.221 N 
ATOM      7  C   UNL     1       6.701  -4.934  23.366  0.00  0.00    +0.311 C 
ATOM      8  O   UNL     1       6.485  -6.038  22.853  0.00  0.00    -0.252 OA
ATOM      9  N   UNL     1       7.849  -4.281  23.046  0.00  0.00    -0.295 N 
ATOM     10  H   UNL     1       8.385  -4.786  22.355  0.00  0.00    +0.151 HD
ATOM     11  C   UNL     1       7.939  -2.859  23.042  0.00  0.00    +0.143 C 
ATOM     12  C   UNL     1       7.051  -2.154  24.023  0.00  0.00    -0.001 A 
ENDROOT
BRANCH   1  18
ATOM     13  F   UNL     1      11.008   2.822  21.920  0.00  0.00    -0.205 F 
ATOM     14  C   UNL     1      10.129   1.973  22.473  0.00  0.00    +0.126 A 
ATOM     15  C   UNL     1      10.396   1.410  23.704  0.00  0.00    +0.077 A 
ATOM     16  C   UNL     1       9.490   0.497  24.261  0.00  0.00    +0.134 A 
ATOM     17  F   UNL     1       9.901  -0.102  25.383  0.00  0.00    -0.205 F 
ATOM     18  C   UNL     1       8.249   0.174  23.672  0.00  0.00    +0.018 A 
ATOM     19  C   UNL     1       8.036   0.774  22.402  0.00  0.00    +0.014 A 
ATOM     20  C   UNL     1       8.969   1.638  21.801  0.00  0.00    +0.039 A 
ENDBRANCH   1  18
BRANCH   6  21
ATOM     21  C   UNL     1       5.138  -5.243  25.165  0.00  0.00    +0.079 A 
ATOM     22  C   UNL     1       5.645  -5.833  26.339  0.00  0.00    +0.064 A 
ATOM     23 CL   UNL     1       7.208  -5.444  26.977  0.00  0.00    -0.082 Cl
ATOM     24  C   UNL     1       4.859  -6.707  27.113  0.00  0.00    +0.022 A 
ATOM     25  C   UNL     1       3.528  -6.958  26.779  0.00  0.00    +0.003 A 
ATOM     26  C   UNL     1       2.979  -6.324  25.674  0.00  0.00    +0.022 A 
ATOM     27  C   UNL     1       3.769  -5.488  24.870  0.00  0.00    +0.064 A 
ATOM     28 CL   UNL     1       2.959  -4.845  23.471  0.00  0.00    -0.082 Cl
ENDBRANCH   6  21
BRANCH   3  29
ATOM     29  N   UNL     1       4.788  -0.396  27.107  0.00  0.00    -0.327 N 
ATOM     30  C   UNL     1       4.014   0.852  26.943  0.00  0.00    +0.120 C 
ATOM     31  C   UNL     1       3.907   1.582  28.310  0.00  0.00    +0.100 C 
ATOM     32  N   UNL     1       3.396   0.740  29.413  0.00  0.00    -0.313 NA
ATOM     33  H   UNL     1       3.498   1.248  30.291  0.00  0.00    +0.122 HD
ATOM     34  C   UNL     1       4.186  -0.503  29.492  0.00  0.00    +0.100 C 
ATOM     35  C   UNL     1       4.240  -1.273  28.157  0.00  0.00    +0.120 C 
ENDBRANCH   3  29
TORSDOF 3
ENDMDL
MODEL 3
REMARK VINA RESULT:      -7.3      1.096      1.609
REMARK  Name = 
REMARK  3 active torsions:
REMARK  status: ('A' for Active; 'I' for Inactive)
REMARK    1  A    between atoms: C_5  and  C_9
REMARK    2  A    between atoms: N_15  and  C_26
REMARK    3  A    between atoms: C_18  and  N_20
REMARK                            x       y       z     vdW  Elec       q    Type
REMARK                         _______ _______ _______ _____ _____    ______ ____
ROOT
ATOM      1  C   UNL     1       7.273  -0.414  24.304  0.00  0.00    -0.007 A 
ATOM      2  C   UNL     1       6.247   0.054  25.159  0.00  0.00    +0.032 A 
ATOM      3  C   UNL     1       5.318  -0.778  25.801  0.00  0.00    +0.032 A 
ATOM      4  C   UNL     1       5.344  -2.142  25.480  0.00  0.00    +0.047 A 
ATOM      5  C   UNL     1       6.285  -2.697  24.602  0.00  0.00    +0.050 A 
ATOM      6  N   UNL     1       6.289  -4.104  24.252  0.00  0.00    -0.221 N 
ATOM      7  C   UNL     1       7.245  -4.634  23.396  0.00  0.00    +0.311 C 
ATOM      8  O   UNL     1       7.188  -5.754  22.876  0.00  0.00    -0.252 OA
ATOM      9  N   UNL     1       8.365  -3.886  23.213  0.00  0.00    -0.295 N 
ATOM     10  H   UNL     1       9.024  -4.347  22.602  0.00  0.00    +0.151 HD
ATOM     11  C   UNL     1       8.336  -2.462  23.200  0.00  0.00    +0.143 C 
ATOM     12  C   UNL     1       7.276  -1.831  24.052  0.00  0.00    -0.001 A 
ENDROOT
BRANCH   1  18
ATOM     13  F   UNL     1      11.318   3.245  22.562  0.00  0.00    -0.205 F 
ATOM     14  C   UNL     1      10.358   2.402  22.970  0.00  0.00    +0.126 A 
ATOM     15  C   UNL     1       9.220   2.234  22.209  0.00  0.00    +0.077 A 
ATOM     16  C   UNL     1       8.204   1.379  22.658  0.00  0.00    +0.134 A 
ATOM     17  F   UNL     1       7.084   1.392  21.929  0.00  0.00    -0.205 F 
ATOM     18  C   UNL     1       8.310   0.589  23.822  0.00  0.00    +0.018 A 
ATOM     19  C   UNL     1       9.497   0.813  24.569  0.00  0.00    +0.014 A 
ATOM     20  C   UNL     1      10.493   1.722  24.165  0.00  0.00    +0.039 A 
ENDBRANCH   1  18
BRANCH   6  21
ATOM     21  C   UNL     1       5.499  -5.067  24.989  0.00  0.00    +0.079 A 
ATOM     22  C   UNL     1       4.260  -5.556  24.534  0.00  0.00    +0.064 A 
ATOM     23 CL   UNL     1       3.604  -5.137  22.985  0.00  0.00    -0.082 Cl
ATOM     24  C   UNL     1       3.526  -6.494  25.284  0.00  0.00    +0.022 A 
ATOM     25  C   UNL     1       4.041  -7.023  26.467  0.00  0.00    +0.003 A 
ATOM     26  C   UNL     1       5.298  -6.622  26.894  0.00  0.00    +0.022 A 
ATOM     27  C   UNL     1       6.016  -5.652  26.178  0.00  0.00    +0.064 A 
ATOM     28 CL   UNL     1       7.531  -5.188  26.895  0.00  0.00    -0.082 Cl
ENDBRANCH   6  21
BRANCH   3  29
ATOM     29  N   UNL     1       4.503  -0.260  26.803  0.00  0.00    -0.327 N 
ATOM     30  C   UNL     1       4.546  -0.844  28.160  0.00  0.00    +0.120 C 
ATOM     31  C   UNL     1       3.217  -0.537  28.901  0.00  0.00    +0.100 C 
ATOM     32  N   UNL     1       2.840   0.893  28.912  0.00  0.00    -0.313 NA
ATOM     33  H   UNL     1       1.895   0.982  29.284  0.00  0.00    +0.122 HD
ATOM     34  C   UNL     1       2.857   1.418  27.534  0.00  0.00    +0.100 C 
ATOM     35  C   UNL     1       4.199   1.181  26.812  0.00  0.00    +0.120 C 
ENDBRANCH   3  29
TORSDOF 3
ENDMDL
MODEL 4
REMARK VINA RESULT:      -7.0      1.382      1.520
REMARK  Name = 
REMARK  3 active torsions:
REMARK  status: ('A' for Active; 'I' for Inactive)
REMARK    1  A    between atoms: C_5  and  C_9
REMARK    2  A    between atoms: N_15  and  C_26
REMARK    3  A    between atoms: C_18  and  N_20
REMARK                            x       y       z     vdW  Elec       q    Type
REMARK                         _______ _______ _______ _____ _____    ______ ____
ROOT
ATOM      1  C   UNL     1       7.923   0.056  24.849  0.00  0.00    -0.007 A 
ATOM      2  C   UNL     1       7.108   0.403  25.952  0.00  0.00    +0.032 A 
ATOM      3  C   UNL     1       6.266  -0.498  26.622  0.00  0.00    +0.032 A 
ATOM      4  C   UNL     1       6.148  -1.789  26.088  0.00  0.00    +0.047 A 
ATOM      5  C   UNL     1       6.871  -2.215  24.966  0.00  0.00    +0.050 A 
ATOM      6  N   UNL     1       6.724  -3.542  24.401  0.00  0.00    -0.221 N 
ATOM      7  C   UNL     1       7.468  -3.948  23.302  0.00  0.00    +0.311 C 
ATOM      8  O   UNL     1       7.246  -4.962  22.630  0.00  0.00    -0.252 OA
ATOM      9  N   UNL     1       8.577  -3.213  23.025  0.00  0.00    -0.295 N 
ATOM     10  H   UNL     1       9.081  -3.583  22.232  0.00  0.00    +0.151 HD
ATOM     11  C   UNL     1       8.634  -1.807  23.246  0.00  0.00    +0.143 C 
ATOM     12  C   UNL     1       7.793  -1.298  24.378  0.00  0.00    -0.001 A 
ENDROOT
BRANCH   1  18
ATOM     13  F   UNL     1      11.512   4.105  22.975  0.00  0.00    -0.205 F 
ATOM     14  C   UNL     1      10.680   3.144  23.404  0.00  0.00    +0.126 A 
ATOM     15  C   UNL     1      11.186   2.031  24.042  0.00  0.00    +0.077 A 
ATOM     16  C   UNL     1      10.315   1.013  24.456  0.00  0.00    +0.134 A 
ATOM     17  F   UNL     1      10.909  -0.085  24.933  0.00  0.00    -0.205 F 
ATOM     18  C   UNL     1       8.912   1.095  24.340  0.00  0.00    +0.018 A 
ATOM     19  C   UNL     1       8.451   2.257  23.665  0.00  0.00    +0.014 A 
ATOM     20  C   UNL     1       9.321   3.252  23.182  0.00  0.00    +0.039 A 
ENDBRANCH   1  18
BRANCH   6  21
ATOM     21  C   UNL     1       6.029  -4.593  25.114  0.00  0.00    +0.079 A 
ATOM     22  C   UNL     1       4.743  -5.043  24.760  0.00  0.00    +0.064 A 
ATOM     23 CL   UNL     1       3.904  -4.462  23.359  0.00  0.00    -0.082 Cl
ATOM     24  C   UNL     1       4.106  -6.069  25.483  0.00  0.00    +0.022 A 
ATOM     25  C   UNL     1       4.760  -6.721  26.527  0.00  0.00    +0.003 A 
ATOM     26  C   UNL     1       6.060  -6.354  26.842  0.00  0.00    +0.022 A 
ATOM     27  C   UNL     1       6.686  -5.300  26.158  0.00  0.00    +0.064 A 
ATOM     28 CL   UNL     1       8.277  -4.900  26.736  0.00  0.00    -0.082 Cl
ENDBRANCH   6  21
BRANCH   3  29
ATOM     29  N   UNL     1       5.687  -0.134  27.833  0.00  0.00    -0.327 N 
ATOM     30  C   UNL     1       6.025   1.167  28.447  0.00  0.00    +0.120 C 
ATOM     31  C   UNL     1       5.757   1.107  29.976  0.00  0.00    +0.100 C 
ATOM     32  N   UNL     1       4.400   0.645  30.339  0.00  0.00    -0.313 NA
ATOM     33  H   UNL     1       4.361   0.496  31.347  0.00  0.00    +0.122 HD
ATOM     34  C   UNL     1       4.115  -0.633  29.661  0.00  0.00    +0.100 C 
ATOM     35  C   UNL     1       4.311  -0.565  28.133  0.00  0.00    +0.120 C 
ENDBRANCH   3  29
TORSDOF 3
ENDMDL
MODEL 5
REMARK VINA RESULT:      -7.0      3.393      6.870
REMARK  Name = 
REMARK  3 active torsions:
REMARK  status: ('A' for Active; 'I' for Inactive)
REMARK    1  A    between atoms: C_5  and  C_9
REMARK    2  A    between atoms: N_15  and  C_26
REMARK    3  A    between atoms: C_18  and  N_20
REMARK                            x       y       z     vdW  Elec       q    Type
REMARK                         _______ _______ _______ _____ _____    ______ ____
ROOT
ATOM      1  C   UNL     1       6.487  -2.613  25.616  0.00  0.00    -0.007 A 
ATOM      2  C   UNL     1       6.317  -1.801  26.762  0.00  0.00    +0.032 A 
ATOM      3  C   UNL     1       6.743  -0.467  26.850  0.00  0.00    +0.032 A 
ATOM      4  C   UNL     1       7.480   0.047  25.774  0.00  0.00    +0.047 A 
ATOM      5  C   UNL     1       7.750  -0.695  24.616  0.00  0.00    +0.050 A 
ATOM      6  N   UNL     1       8.537  -0.168  23.519  0.00  0.00    -0.221 N 
ATOM      7  C   UNL     1       8.772  -0.915  22.372  0.00  0.00    +0.311 C 
ATOM      8  O   UNL     1       9.604  -0.636  21.502  0.00  0.00    -0.252 OA
ATOM      9  N   UNL     1       7.943  -1.971  22.165  0.00  0.00    -0.295 N 
ATOM     10  H   UNL     1       8.156  -2.449  21.301  0.00  0.00    +0.151 HD
ATOM     11  C   UNL     1       7.418  -2.749  23.237  0.00  0.00    +0.143 C 
ATOM     12  C   UNL     1       7.209  -2.012  24.527  0.00  0.00    -0.001 A 
ENDROOT
BRANCH   1  18
ATOM     13  F   UNL     1       3.907  -7.721  25.403  0.00  0.00    -0.205 F 
ATOM     14  C   UNL     1       4.510  -6.525  25.471  0.00  0.00    +0.126 A 
ATOM     15  C   UNL     1       5.693  -6.390  26.168  0.00  0.00    +0.077 A 
ATOM     16  C   UNL     1       6.300  -5.130  26.266  0.00  0.00    +0.134 A 
ATOM     17  F   UNL     1       7.360  -5.071  27.078  0.00  0.00    -0.205 F 
ATOM     18  C   UNL     1       5.818  -3.980  25.608  0.00  0.00    +0.018 A 
ATOM     19  C   UNL     1       4.592  -4.178  24.917  0.00  0.00    +0.014 A 
ATOM     20  C   UNL     1       3.936  -5.422  24.870  0.00  0.00    +0.039 A 
ENDBRANCH   1  18
BRANCH   6  21
ATOM     21  C   UNL     1       8.864   1.240  23.432  0.00  0.00    +0.079 A 
ATOM     22  C   UNL     1       7.971   2.208  22.935  0.00  0.00    +0.064 A 
ATOM     23 CL   UNL     1       6.342   1.828  22.480  0.00  0.00    -0.082 Cl
ATOM     24  C   UNL     1       8.332   3.567  22.869  0.00  0.00    +0.022 A 
ATOM     25  C   UNL     1       9.560   4.005  23.364  0.00  0.00    +0.003 A 
ATOM     26  C   UNL     1      10.424   3.083  23.937  0.00  0.00    +0.022 A 
ATOM     27  C   UNL     1      10.092   1.720  23.963  0.00  0.00    +0.064 A 
ATOM     28 CL   UNL     1      11.321   0.684  24.627  0.00  0.00    -0.082 Cl
ENDBRANCH   6  21
BRANCH   3  29
ATOM     29  N   UNL     1       6.326   0.323  27.916  0.00  0.00    -0.327 N 
ATOM     30  C   UNL     1       6.818   1.711  28.039  0.00  0.00    +0.120 C 
ATOM     31  C   UNL     1       6.714   2.171  29.519  0.00  0.00    +0.100 C 
ATOM     32  N   UNL     1       5.375   1.990  30.121  0.00  0.00    -0.313 NA
ATOM     33  H   UNL     1       5.436   2.176  31.122  0.00  0.00    +0.122 HD
ATOM     34  C   UNL     1       4.931   0.597  29.926  0.00  0.00    +0.100 C 
ATOM     35  C   UNL     1       4.963   0.152  28.450  0.00  0.00    +0.120 C 
ENDBRANCH   3  29
TORSDOF 3
ENDMDL
MODEL 6
REMARK VINA RESULT:      -7.0      3.439      7.118
REMARK  Name = 
REMARK  3 active torsions:
REMARK  status: ('A' for Active; 'I' for Inactive)
REMARK    1  A    between atoms: C_5  and  C_9
REMARK    2  A    between atoms: N_15  and  C_26
REMARK    3  A    between atoms: C_18  and  N_20
REMARK                            x       y       z     vdW  Elec       q    Type
REMARK                         _______ _______ _______ _____ _____    ______ ____
ROOT
ATOM      1  C   UNL     1       6.354  -2.731  25.479  0.00  0.00    -0.007 A 
ATOM      2  C   UNL     1       6.154  -1.978  26.660  0.00  0.00    +0.032 A 
ATOM      3  C   UNL     1       6.594  -0.657  26.835  0.00  0.00    +0.032 A 
ATOM      4  C   UNL     1       7.376  -0.098  25.816  0.00  0.00    +0.047 A 
ATOM      5  C   UNL     1       7.678  -0.781  24.630  0.00  0.00    +0.050 A 
ATOM      6  N   UNL     1       8.511  -0.207  23.591  0.00  0.00    -0.221 N 
ATOM      7  C   UNL     1       8.777  -0.895  22.415  0.00  0.00    +0.311 C 
ATOM      8  O   UNL     1       9.644  -0.582  21.591  0.00  0.00    -0.252 OA
ATOM      9  N   UNL     1       7.942  -1.926  22.122  0.00  0.00    -0.295 N 
ATOM     10  H   UNL     1       8.180  -2.360  21.241  0.00  0.00    +0.151 HD
ATOM     11  C   UNL     1       7.369  -2.752  23.131  0.00  0.00    +0.143 C 
ATOM     12  C   UNL     1       7.123  -2.083  24.450  0.00  0.00    -0.001 A 
ENDROOT
BRANCH   1  18
ATOM     13  F   UNL     1       3.796  -7.849  25.273  0.00  0.00    -0.205 F 
ATOM     14  C   UNL     1       4.399  -6.652  25.303  0.00  0.00    +0.126 A 
ATOM     15  C   UNL     1       3.972  -5.644  24.463  0.00  0.00    +0.077 A 
ATOM     16  C   UNL     1       4.629  -4.406  24.474  0.00  0.00    +0.134 A 
ATOM     17  F   UNL     1       4.239  -3.545  23.529  0.00  0.00    -0.205 F 
ATOM     18  C   UNL     1       5.668  -4.085  25.373  0.00  0.00    +0.018 A 
ATOM     19  C   UNL     1       6.072  -5.164  26.203  0.00  0.00    +0.014 A 
ATOM     20  C   UNL     1       5.467  -6.433  26.152  0.00  0.00    +0.039 A 
ENDBRANCH   1  18
BRANCH   6  21
ATOM     21  C   UNL     1       8.859   1.198  23.592  0.00  0.00    +0.079 A 
ATOM     22  C   UNL     1      10.100   1.683  24.043  0.00  0.00    +0.064 A 
ATOM     23 CL   UNL     1      11.387   0.633  24.540  0.00  0.00    -0.082 Cl
ATOM     24  C   UNL     1      10.396   3.059  24.025  0.00  0.00    +0.022 A 
ATOM     25  C   UNL     1       9.493   3.977  23.490  0.00  0.00    +0.003 A 
ATOM     26  C   UNL     1       8.296   3.516  22.960  0.00  0.00    +0.022 A 
ATOM     27  C   UNL     1       7.974   2.151  23.017  0.00  0.00    +0.064 A 
ATOM     28 CL   UNL     1       6.398   1.748  22.399  0.00  0.00    -0.082 Cl
ENDBRANCH   6  21
BRANCH   3  29
ATOM     29  N   UNL     1       6.148   0.081  27.927  0.00  0.00    -0.327 N 
ATOM     30  C   UNL     1       6.879   1.297  28.339  0.00  0.00    +0.120 C 
ATOM     31  C   UNL     1       6.587   1.598  29.835  0.00  0.00    +0.100 C 
ATOM     32  N   UNL     1       5.150   1.658  30.176  0.00  0.00    -0.313 NA
ATOM     33  H   UNL     1       5.054   1.712  31.190  0.00  0.00    +0.122 HD
ATOM     34  C   UNL     1       4.478   0.435  29.701  0.00  0.00    +0.100 C 
ATOM     35  C   UNL     1       4.703   0.164  28.200  0.00  0.00    +0.120 C 
ENDBRANCH   3  29
TORSDOF 3
ENDMDL
MODEL 7
REMARK VINA RESULT:      -6.8      2.190      2.604
REMARK  Name = 
REMARK  3 active torsions:
REMARK  status: ('A' for Active; 'I' for Inactive)
REMARK    1  A    between atoms: C_5  and  C_9
REMARK    2  A    between atoms: N_15  and  C_26
REMARK    3  A    between atoms: C_18  and  N_20
REMARK                            x       y       z     vdW  Elec       q    Type
REMARK                         _______ _______ _______ _____ _____    ______ ____
ROOT
ATOM      1  C   UNL     1       6.481   1.399  24.292  0.00  0.00    -0.007 A 
ATOM      2  C   UNL     1       5.549   1.445  25.355  0.00  0.00    +0.032 A 
ATOM      3  C   UNL     1       5.083   0.314  26.043  0.00  0.00    +0.032 A 
ATOM      4  C   UNL     1       5.485  -0.941  25.566  0.00  0.00    +0.047 A 
ATOM      5  C   UNL     1       6.362  -1.096  24.484  0.00  0.00    +0.050 A 
ATOM      6  N   UNL     1       6.752  -2.397  23.978  0.00  0.00    -0.221 N 
ATOM      7  C   UNL     1       7.640  -2.525  22.918  0.00  0.00    +0.311 C 
ATOM      8  O   UNL     1       7.847  -3.569  22.288  0.00  0.00    -0.252 OA
ATOM      9  N   UNL     1       8.399  -1.434  22.638  0.00  0.00    -0.295 N 
ATOM     10  H   UNL     1       9.038  -1.610  21.876  0.00  0.00    +0.151 HD
ATOM     11  C   UNL     1       7.910  -0.105  22.796  0.00  0.00    +0.143 C 
ATOM     12  C   UNL     1       6.892   0.083  23.880  0.00  0.00    -0.001 A 
ENDROOT
BRANCH   1  18
ATOM     13  F   UNL     1       8.337   6.428  22.280  0.00  0.00    -0.205 F 
ATOM     14  C   UNL     1       7.919   5.242  22.746  0.00  0.00    +0.126 A 
ATOM     15  C   UNL     1       8.647   4.588  23.717  0.00  0.00    +0.077 A 
ATOM     16  C   UNL     1       8.224   3.333  24.175  0.00  0.00    +0.134 A 
ATOM     17  F   UNL     1       9.068   2.716  25.008  0.00  0.00    -0.205 F 
ATOM     18  C   UNL     1       7.023   2.718  23.763  0.00  0.00    +0.018 A 
ATOM     19  C   UNL     1       6.323   3.432  22.754  0.00  0.00    +0.014 A 
ATOM     20  C   UNL     1       6.775   4.660  22.235  0.00  0.00    +0.039 A 
ENDBRANCH   1  18
BRANCH   6  21
ATOM     21  C   UNL     1       6.477  -3.610  24.719  0.00  0.00    +0.079 A 
ATOM     22  C   UNL     1       5.434  -4.494  24.388  0.00  0.00    +0.064 A 
ATOM     23 CL   UNL     1       4.439  -4.281  22.985  0.00  0.00    -0.082 Cl
ATOM     24  C   UNL     1       5.203  -5.663  25.138  0.00  0.00    +0.022 A 
ATOM     25  C   UNL     1       6.050  -6.017  26.189  0.00  0.00    +0.003 A 
ATOM     26  C   UNL     1       7.136  -5.206  26.482  0.00  0.00    +0.022 A 
ATOM     27  C   UNL     1       7.345  -4.015  25.770  0.00  0.00    +0.064 A 
ATOM     28 CL   UNL     1       8.693  -3.063  26.322  0.00  0.00    -0.082 Cl
ENDBRANCH   6  21
BRANCH   3  29
ATOM     29  N   UNL     1       4.359   0.471  27.221  0.00  0.00    -0.327 N 
ATOM     30  C   UNL     1       3.032   1.120  27.186  0.00  0.00    +0.120 C 
ATOM     31  C   UNL     1       2.697   1.694  28.590  0.00  0.00    +0.100 C 
ATOM     32  N   UNL     1       2.822   0.719  29.694  0.00  0.00    -0.313 NA
ATOM     33  H   UNL     1       2.730   1.212  30.582  0.00  0.00    +0.122 HD
ATOM     34  C   UNL     1       4.151   0.082  29.643  0.00  0.00    +0.100 C 
ATOM     35  C   UNL     1       4.466  -0.554  28.274  0.00  0.00    +0.120 C 
ENDBRANCH   3  29
TORSDOF 3
ENDMDL
MODEL 8
REMARK VINA RESULT:      -6.7      2.173      3.074
REMARK  Name = 
REMARK  3 active torsions:
REMARK  status: ('A' for Active; 'I' for Inactive)
REMARK    1  A    between atoms: C_5  and  C_9
REMARK    2  A    between atoms: N_15  and  C_26
REMARK    3  A    between atoms: C_18  and  N_20
REMARK                            x       y       z     vdW  Elec       q    Type
REMARK                         _______ _______ _______ _____ _____    ______ ____
ROOT
ATOM      1  C   UNL     1       6.521   1.355  24.264  0.00  0.00    -0.007 A 
ATOM      2  C   UNL     1       5.583   1.401  25.322  0.00  0.00    +0.032 A 
ATOM      3  C   UNL     1       5.115   0.270  26.007  0.00  0.00    +0.032 A 
ATOM      4  C   UNL     1       5.520  -0.985  25.532  0.00  0.00    +0.047 A 
ATOM      5  C   UNL     1       6.403  -1.139  24.455  0.00  0.00    +0.050 A 
ATOM      6  N   UNL     1       6.796  -2.440  23.951  0.00  0.00    -0.221 N 
ATOM      7  C   UNL     1       7.690  -2.568  22.896  0.00  0.00    +0.311 C 
ATOM      8  O   UNL     1       7.901  -3.611  22.267  0.00  0.00    -0.252 OA
ATOM      9  N   UNL     1       8.450  -1.476  22.620  0.00  0.00    -0.295 N 
ATOM     10  H   UNL     1       9.093  -1.652  21.861  0.00  0.00    +0.151 HD
ATOM     11  C   UNL     1       7.959  -0.148  22.775  0.00  0.00    +0.143 C 
ATOM     12  C   UNL     1       6.935   0.040  23.854  0.00  0.00    -0.001 A 
ENDROOT
BRANCH   1  18
ATOM     13  F   UNL     1       8.385   6.389  22.270  0.00  0.00    -0.205 F 
ATOM     14  C   UNL     1       7.964   5.202  22.731  0.00  0.00    +0.126 A 
ATOM     15  C   UNL     1       8.715   4.522  23.667  0.00  0.00    +0.077 A 
ATOM     16  C   UNL     1       8.288   3.266  24.119  0.00  0.00    +0.134 A 
ATOM     17  F   UNL     1       9.150   2.623  24.913  0.00  0.00    -0.205 F 
ATOM     18  C   UNL     1       7.065   2.676  23.737  0.00  0.00    +0.018 A 
ATOM     19  C   UNL     1       6.343   3.416  22.764  0.00  0.00    +0.014 A 
ATOM     20  C   UNL     1       6.795   4.645  22.250  0.00  0.00    +0.039 A 
ENDBRANCH   1  18
BRANCH   6  21
ATOM     21  C   UNL     1       6.518  -3.653  24.691  0.00  0.00    +0.079 A 
ATOM     22  C   UNL     1       7.296  -4.085  25.781  0.00  0.00    +0.064 A 
ATOM     23 CL   UNL     1       8.605  -3.147  26.422  0.00  0.00    -0.082 Cl
ATOM     24  C   UNL     1       6.988  -5.272  26.472  0.00  0.00    +0.022 A 
ATOM     25  C   UNL     1       5.856  -6.017  26.143  0.00  0.00    +0.003 A 
ATOM     26  C   UNL     1       5.024  -5.568  25.128  0.00  0.00    +0.022 A 
ATOM     27  C   UNL     1       5.350  -4.412  24.402  0.00  0.00    +0.064 A 
ATOM     28 CL   UNL     1       4.259  -4.036  23.101  0.00  0.00    -0.082 Cl
ENDBRANCH   6  21
BRANCH   3  29
ATOM     29  N   UNL     1       4.384   0.426  27.181  0.00  0.00    -0.327 N 
ATOM     30  C   UNL     1       3.430  -0.623  27.597  0.00  0.00    +0.120 C 
ATOM     31  C   UNL     1       2.361  -0.008  28.541  0.00  0.00    +0.100 C 
ATOM     32  N   UNL     1       2.917   0.739  29.690  0.00  0.00    -0.313 NA
ATOM     33  H   UNL     1       2.158   1.226  30.166  0.00  0.00    +0.122 HD
ATOM     34  C   UNL     1       3.889   1.737  29.205  0.00  0.00    +0.100 C 
ATOM     35  C   UNL     1       4.997   1.126  28.324  0.00  0.00    +0.120 C 
ENDBRANCH   3  29
TORSDOF 3
ENDMDL
MODEL 9
REMARK VINA RESULT:      -6.5      2.679      5.119
REMARK  Name = 
REMARK  3 active torsions:
REMARK  status: ('A' for Active; 'I' for Inactive)
REMARK    1  A    between atoms: C_5  and  C_9
REMARK    2  A    between atoms: N_15  and  C_26
REMARK    3  A    between atoms: C_18  and  N_20
REMARK                            x       y       z     vdW  Elec       q    Type
REMARK                         _______ _______ _______ _____ _____    ______ ____
ROOT
ATOM      1  C   UNL     1       7.431  -1.283  25.362  0.00  0.00    -0.007 A 
ATOM      2  C   UNL     1       7.387  -2.467  24.589  0.00  0.00    +0.032 A 
ATOM      3  C   UNL     1       6.456  -3.498  24.781  0.00  0.00    +0.032 A 
ATOM      4  C   UNL     1       5.594  -3.390  25.881  0.00  0.00    +0.047 A 
ATOM      5  C   UNL     1       5.595  -2.284  26.741  0.00  0.00    +0.050 A 
ATOM      6  N   UNL     1       4.720  -2.191  27.893  0.00  0.00    -0.221 N 
ATOM      7  C   UNL     1       4.725  -1.074  28.717  0.00  0.00    +0.311 C 
ATOM      8  O   UNL     1       4.185  -1.010  29.828  0.00  0.00    -0.252 OA
ATOM      9  N   UNL     1       5.283   0.051  28.199  0.00  0.00    -0.295 N 
ATOM     10  H   UNL     1       5.225   0.827  28.843  0.00  0.00    +0.151 HD
ATOM     11  C   UNL     1       6.398   0.008  27.314  0.00  0.00    +0.143 C 
ATOM     12  C   UNL     1       6.488  -1.211  26.447  0.00  0.00    -0.001 A 
ENDROOT
BRANCH   1  18
ATOM     13  F   UNL     1      11.152   2.732  23.681  0.00  0.00    -0.205 F 
ATOM     14  C   UNL     1      10.271   1.805  24.084  0.00  0.00    +0.126 A 
ATOM     15  C   UNL     1       8.936   1.935  23.758  0.00  0.00    +0.077 A 
ATOM     16  C   UNL     1       8.015   0.982  24.212  0.00  0.00    +0.134 A 
ATOM     17  F   UNL     1       6.732   1.269  23.970  0.00  0.00    -0.205 F 
ATOM     18  C   UNL     1       8.383  -0.180  24.922  0.00  0.00    +0.018 A 
ATOM     19  C   UNL     1       9.766  -0.254  25.238  0.00  0.00    +0.014 A 
ATOM     20  C   UNL     1      10.690   0.733  24.849  0.00  0.00    +0.039 A 
ENDBRANCH   1  18
BRANCH   6  21
ATOM     21  C   UNL     1       3.611  -3.104  28.074  0.00  0.00    +0.079 A 
ATOM     22  C   UNL     1       2.304  -2.823  27.635  0.00  0.00    +0.064 A 
ATOM     23 CL   UNL     1       1.910  -1.400  26.727  0.00  0.00    -0.082 Cl
ATOM     24  C   UNL     1       1.255  -3.742  27.832  0.00  0.00    +0.022 A 
ATOM     25  C   UNL     1       1.497  -4.990  28.405  0.00  0.00    +0.003 A 
ATOM     26  C   UNL     1       2.792  -5.325  28.770  0.00  0.00    +0.022 A 
ATOM     27  C   UNL     1       3.835  -4.398  28.620  0.00  0.00    +0.064 A 
ATOM     28 CL   UNL     1       5.379  -4.936  29.213  0.00  0.00    -0.082 Cl
ENDBRANCH   6  21
BRANCH   3  29
ATOM     29  N   UNL     1       6.334  -4.507  23.831  0.00  0.00    -0.327 N 
ATOM     30  C   UNL     1       7.546  -5.104  23.234  0.00  0.00    +0.120 C 
ATOM     31  C   UNL     1       7.194  -5.734  21.859  0.00  0.00    +0.100 C 
ATOM     32  N   UNL     1       6.055  -6.677  21.893  0.00  0.00    -0.313 NA
ATOM     33  H   UNL     1       5.803  -6.924  20.936  0.00  0.00    +0.122 HD
ATOM     34  C   UNL     1       4.897  -6.030  22.536  0.00  0.00    +0.100 C 
ATOM     35  C   UNL     1       5.218  -5.463  23.934  0.00  0.00    +0.120 C 
ENDBRANCH   3  29
TORSDOF 3
ENDMDL
