MODEL 1
REMARK VINA RESULT:      -6.5      0.000      0.000
REMARK  Name = 
REMARK  20 active torsions:
REMARK  status: ('A' for Active; 'I' for Inactive)
REMARK    1  A    between atoms: C_1  and  N_2
REMARK    2  A    between atoms: N_2  and  C_3
REMARK    3  A    between atoms: C_3  and  C_4
REMARK    4  A    between atoms: C_4  and  C_5
REMARK    5  A    between atoms: C_5  and  C_6
REMARK    6  A    between atoms: C_12  and  C_14
REMARK    7  A    between atoms: C_14  and  C_16
REMARK    8  A    between atoms: C_14  and  N_21
REMARK    9  A    between atoms: C_16  and  C_17
REMARK   10  A    between atoms: C_17  and  C_18
REMARK   11  A    between atoms: C_18  and  O_19
REMARK   12  A    between atoms: N_24  and  C_25
REMARK   13  A    between atoms: N_24  and  C_29
REMARK   14  A    between atoms: C_25  and  C_26
REMARK   15  A    between atoms: C_26  and  O_27
REMARK   16  A    between atoms: C_29  and  C_30
REMARK   17  A    between atoms: C_33  and  O_34
REMARK   18  A    between atoms: O_34  and  P_35
REMARK   19  A    between atoms: P_35  and  O_36
REMARK   20  A    between atoms: P_35  and  O_37
REMARK                            x       y       z     vdW  Elec       q    Type
REMARK                         _______ _______ _______ _____ _____    ______ ____
ROOT
ATOM      1  N   UNL     1       7.386  -1.700  24.212  0.00  0.00    -0.288 N 
ATOM      2  H   UNL     1       6.726  -1.922  24.942  0.00  0.00    +0.151 HD
ATOM      3  C   UNL     1       7.399  -2.621  23.195  0.00  0.00    +0.304 C 
ATOM      4  N   UNL     1       7.181  -3.934  23.593  0.00  0.00    -0.271 N 
ATOM      5  O   UNL     1       7.615  -2.341  22.022  0.00  0.00    -0.253 OA
ENDROOT
BRANCH   4   6
ATOM      6  C   UNL     1       7.484  -5.041  22.658  0.00  0.00    +0.230 C 
BRANCH   6   7
ATOM      7  C   UNL     1       6.440  -5.689  21.737  0.00  0.00    +0.322 C 
ATOM      8  O   UNL     1       5.915  -5.066  20.824  0.00  0.00    -0.249 OA
BRANCH   7   9
ATOM      9  O   UNL     1       6.021  -6.921  22.072  0.00  0.00    -0.480 OA
ATOM     10  H   UNL     1       6.643  -7.396  22.675  0.00  0.00    +0.295 HD
ENDBRANCH   7   9
ENDBRANCH   6   7
ENDBRANCH   4   6
BRANCH   4  11
ATOM     11  C   UNL     1       7.244  -4.302  25.011  0.00  0.00    +0.145 C 
BRANCH  11  12
ATOM     12  C   UNL     1       5.950  -4.864  25.551  0.00  0.00    -0.030 A 
ATOM     13  C   UNL     1       5.996  -5.942  26.447  0.00  0.00    +0.009 A 
ATOM     14  C   UNL     1       4.823  -6.583  26.843  0.00  0.00    +0.046 A 
ATOM     15  C   UNL     1       3.596  -6.165  26.335  0.00  0.00    +0.132 A 
ATOM     16  C   UNL     1       3.526  -5.060  25.494  0.00  0.00    +0.046 A 
ATOM     17  C   UNL     1       4.701  -4.414  25.099  0.00  0.00    +0.009 A 
BRANCH  15  18
ATOM     18  O   UNL     1       2.514  -6.914  26.689  0.00  0.00    -0.404 OA
BRANCH  18  19
ATOM     19  P   UNL     1       1.780  -7.930  25.695  0.00  0.00    +0.528 P 
ATOM     20  O   UNL     1       0.713  -7.401  24.799  0.00  0.00    -0.216 OA
BRANCH  19  21
ATOM     21  O   UNL     1       2.938  -8.768  24.979  0.00  0.00    -0.293 OA
ATOM     22  H   UNL     1       2.703  -8.965  24.055  0.00  0.00    +0.223 HD
ENDBRANCH  19  21
BRANCH  19  23
ATOM     23  O   UNL     1       1.209  -9.055  26.683  0.00  0.00    -0.293 OA
ATOM     24  H   UNL     1       1.937  -9.630  26.983  0.00  0.00    +0.223 HD
ENDBRANCH  19  23
ENDBRANCH  18  19
ENDBRANCH  15  18
ENDBRANCH  11  12
ENDBRANCH   4  11
BRANCH   1  25
ATOM     25  C   UNL     1       7.617  -0.261  24.037  0.00  0.00    +0.161 C 
BRANCH  25  28
ATOM     26  C   UNL     1       4.790   2.317  24.419  0.00  0.00    +0.132 C 
ATOM     27  N   UNL     1       6.035   1.741  23.924  0.00  0.00    -0.303 N 
ATOM     28  C   UNL     1       6.478   0.613  24.626  0.00  0.00    +0.236 C 
ATOM     29  O   UNL     1       5.983   0.306  25.717  0.00  0.00    -0.274 OA
BRANCH  27  30
ATOM     30  C   UNL     1       6.514   2.189  22.604  0.00  0.00    +0.107 C 
BRANCH  30  31
ATOM     31  C   UNL     1       6.464   3.721  22.451  0.00  0.00    +0.019 C 
BRANCH  31  32
ATOM     32  C   UNL     1       7.841   4.393  22.540  0.00  0.00    +0.005 C 
BRANCH  32  33
ATOM     33  C   UNL     1       8.611   4.000  23.828  0.00  0.00    -0.011 C 
ATOM     34  C   UNL     1       8.007   4.674  25.076  0.00  0.00    +0.003 C 
ATOM     35  C   UNL     1       8.366   6.153  25.198  0.00  0.00    +0.000 C 
ATOM     36  C   UNL     1       9.874   6.366  25.142  0.00  0.00    +0.000 C 
ATOM     37  C   UNL     1      10.467   5.763  23.874  0.00  0.00    +0.000 C 
ATOM     38  C   UNL     1      10.124   4.279  23.758  0.00  0.00    +0.003 C 
ENDBRANCH  32  33
ENDBRANCH  31  32
ENDBRANCH  30  31
ENDBRANCH  27  30
ENDBRANCH  25  28
BRANCH  25  39
ATOM     39  C   UNL     1       9.007   0.194  24.538  0.00  0.00    +0.043 C 
BRANCH  39  40
ATOM     40  C   UNL     1      10.114  -0.090  23.517  0.00  0.00    +0.123 C 
BRANCH  40  41
ATOM     41  C   UNL     1       9.882   0.306  22.071  0.00  0.00    +0.305 C 
ATOM     42  O   UNL     1       9.858   1.485  21.732  0.00  0.00    -0.251 OA
BRANCH  41  43
ATOM     43  O   UNL     1       9.721  -0.686  21.179  0.00  0.00    -0.481 OA
ATOM     44  H   UNL     1      10.512  -1.198  20.935  0.00  0.00    +0.295 HD
ENDBRANCH  41  43
ENDBRANCH  40  41
ENDBRANCH  39  40
ENDBRANCH  25  39
ENDBRANCH   1  25
TORSDOF 19
ENDMDL
MODEL 2
REMARK VINA RESULT:      -6.5      1.641      2.128
REMARK  Name = 
REMARK  20 active torsions:
REMARK  status: ('A' for Active; 'I' for Inactive)
REMARK    1  A    between atoms: C_1  and  N_2
REMARK    2  A    between atoms: N_2  and  C_3
REMARK    3  A    between atoms: C_3  and  C_4
REMARK    4  A    between atoms: C_4  and  C_5
REMARK    5  A    between atoms: C_5  and  C_6
REMARK    6  A    between atoms: C_12  and  C_14
REMARK    7  A    between atoms: C_14  and  C_16
REMARK    8  A    between atoms: C_14  and  N_21
REMARK    9  A    between atoms: C_16  and  C_17
REMARK   10  A    between atoms: C_17  and  C_18
REMARK   11  A    between atoms: C_18  and  O_19
REMARK   12  A    between atoms: N_24  and  C_25
REMARK   13  A    between atoms: N_24  and  C_29
REMARK   14  A    between atoms: C_25  and  C_26
REMARK   15  A    between atoms: C_26  and  O_27
REMARK   16  A    between atoms: C_29  and  C_30
REMARK   17  A    between atoms: C_33  and  O_34
REMARK   18  A    between atoms: O_34  and  P_35
REMARK   19  A    between atoms: P_35  and  O_36
REMARK   20  A    between atoms: P_35  and  O_37
REMARK                            x       y       z     vdW  Elec       q    Type
REMARK                         _______ _______ _______ _____ _____    ______ ____
ROOT
ATOM      1  N   UNL     1       7.954  -2.199  24.296  0.00  0.00    -0.288 N 
ATOM      2  H   UNL     1       7.590  -2.491  25.191  0.00  0.00    +0.151 HD
ATOM      3  C   UNL     1       7.513  -2.973  23.254  0.00  0.00    +0.304 C 
ATOM      4  N   UNL     1       7.343  -4.318  23.556  0.00  0.00    -0.271 N 
ATOM      5  O   UNL     1       7.309  -2.546  22.124  0.00  0.00    -0.253 OA
ENDROOT
BRANCH   4   6
ATOM      6  C   UNL     1       7.185  -5.300  22.459  0.00  0.00    +0.230 C 
BRANCH   6   7
ATOM      7  C   UNL     1       5.876  -5.509  21.683  0.00  0.00    +0.322 C 
ATOM      8  O   UNL     1       4.803  -5.627  22.257  0.00  0.00    -0.249 OA
BRANCH   7   9
ATOM      9  O   UNL     1       5.985  -5.705  20.359  0.00  0.00    -0.480 OA
ATOM     10  H   UNL     1       6.771  -5.259  19.959  0.00  0.00    +0.295 HD
ENDBRANCH   7   9
ENDBRANCH   6   7
ENDBRANCH   4   6
BRANCH   4  11
ATOM     11  C   UNL     1       7.888  -4.877  24.797  0.00  0.00    +0.145 C 
BRANCH  11  12
ATOM     12  C   UNL     1       6.845  -5.133  25.859  0.00  0.00    -0.030 A 
ATOM     13  C   UNL     1       5.854  -6.096  25.624  0.00  0.00    +0.009 A 
ATOM     14  C   UNL     1       4.790  -6.248  26.512  0.00  0.00    +0.046 A 
ATOM     15  C   UNL     1       4.697  -5.427  27.633  0.00  0.00    +0.132 A 
ATOM     16  C   UNL     1       5.702  -4.508  27.914  0.00  0.00    +0.046 A 
ATOM     17  C   UNL     1       6.772  -4.358  27.027  0.00  0.00    +0.009 A 
BRANCH  15  18
ATOM     18  O   UNL     1       3.571  -5.569  28.388  0.00  0.00    -0.404 OA
BRANCH  18  19
ATOM     19  P   UNL     1       3.430  -6.639  29.569  0.00  0.00    +0.528 P 
ATOM     20  O   UNL     1       4.661  -7.061  30.296  0.00  0.00    -0.216 OA
BRANCH  19  21
ATOM     21  O   UNL     1       2.220  -6.136  30.485  0.00  0.00    -0.293 OA
ATOM     22  H   UNL     1       1.966  -6.818  31.129  0.00  0.00    +0.223 HD
ENDBRANCH  19  21
BRANCH  19  23
ATOM     23  O   UNL     1       2.721  -7.882  28.849  0.00  0.00    -0.293 OA
ATOM     24  H   UNL     1       1.778  -7.682  28.700  0.00  0.00    +0.223 HD
ENDBRANCH  19  23
ENDBRANCH  18  19
ENDBRANCH  15  18
ENDBRANCH  11  12
ENDBRANCH   4  11
BRANCH   1  25
ATOM     25  C   UNL     1       8.229  -0.759  24.209  0.00  0.00    +0.161 C 
BRANCH  25  28
ATOM     26  C   UNL     1       5.303   1.621  24.954  0.00  0.00    +0.132 C 
ATOM     27  N   UNL     1       6.448   1.070  24.238  0.00  0.00    -0.303 N 
ATOM     28  C   UNL     1       7.175   0.107  24.948  0.00  0.00    +0.236 C 
ATOM     29  O   UNL     1       6.998  -0.060  26.160  0.00  0.00    -0.274 OA
BRANCH  27  30
ATOM     30  C   UNL     1       6.537   1.338  22.791  0.00  0.00    +0.107 C 
BRANCH  30  31
ATOM     31  C   UNL     1       6.260   2.814  22.449  0.00  0.00    +0.019 C 
BRANCH  31  32
ATOM     32  C   UNL     1       7.521   3.689  22.432  0.00  0.00    +0.005 C 
BRANCH  32  33
ATOM     33  C   UNL     1       7.972   4.108  23.855  0.00  0.00    -0.011 C 
ATOM     34  C   UNL     1       8.065   5.641  23.990  0.00  0.00    +0.003 C 
ATOM     35  C   UNL     1       9.303   6.233  23.320  0.00  0.00    +0.000 C 
ATOM     36  C   UNL     1      10.579   5.565  23.820  0.00  0.00    +0.000 C 
ATOM     37  C   UNL     1      10.521   4.054  23.623  0.00  0.00    +0.000 C 
ATOM     38  C   UNL     1       9.293   3.458  24.307  0.00  0.00    +0.003 C 
ENDBRANCH  32  33
ENDBRANCH  31  32
ENDBRANCH  30  31
ENDBRANCH  27  30
ENDBRANCH  25  28
BRANCH  25  39
ATOM     39  C   UNL     1       9.671  -0.393  24.631  0.00  0.00    +0.043 C 
BRANCH  39  40
ATOM     40  C   UNL     1      10.524   0.067  23.444  0.00  0.00    +0.123 C 
BRANCH  40  41
ATOM     41  C   UNL     1      10.033  -0.236  22.041  0.00  0.00    +0.305 C 
ATOM     42  O   UNL     1       9.514   0.634  21.349  0.00  0.00    -0.251 OA
BRANCH  41  43
ATOM     43  O   UNL     1      10.206  -1.488  21.585  0.00  0.00    -0.481 OA
ATOM     44  H   UNL     1      11.000  -1.662  21.050  0.00  0.00    +0.295 HD
ENDBRANCH  41  43
ENDBRANCH  40  41
ENDBRANCH  39  40
ENDBRANCH  25  39
ENDBRANCH   1  25
TORSDOF 19
ENDMDL
MODEL 3
REMARK VINA RESULT:      -6.4      2.355      4.365
REMARK  Name = 
REMARK  20 active torsions:
REMARK  status: ('A' for Active; 'I' for Inactive)
REMARK    1  A    between atoms: C_1  and  N_2
REMARK    2  A    between atoms: N_2  and  C_3
REMARK    3  A    between atoms: C_3  and  C_4
REMARK    4  A    between atoms: C_4  and  C_5
REMARK    5  A    between atoms: C_5  and  C_6
REMARK    6  A    between atoms: C_12  and  C_14
REMARK    7  A    between atoms: C_14  and  C_16
REMARK    8  A    between atoms: C_14  and  N_21
REMARK    9  A    between atoms: C_16  and  C_17
REMARK   10  A    between atoms: C_17  and  C_18
REMARK   11  A    between atoms: C_18  and  O_19
REMARK   12  A    between atoms: N_24  and  C_25
REMARK   13  A    between atoms: N_24  and  C_29
REMARK   14  A    between atoms: C_25  and  C_26
REMARK   15  A    between atoms: C_26  and  O_27
REMARK   16  A    between atoms: C_29  and  C_30
REMARK   17  A    between atoms: C_33  and  O_34
REMARK   18  A    between atoms: O_34  and  P_35
REMARK   19  A    between atoms: P_35  and  O_36
REMARK   20  A    between atoms: P_35  and  O_37
REMARK                            x       y       z     vdW  Elec       q    Type
REMARK                         _______ _______ _______ _____ _____    ______ ____
ROOT
ATOM      1  N   UNL     1       6.155  -2.123  25.292  0.00  0.00    -0.288 N 
ATOM      2  H   UNL     1       5.459  -1.604  24.777  0.00  0.00    +0.151 HD
ATOM      3  C   UNL     1       7.359  -2.204  24.640  0.00  0.00    +0.304 C 
ATOM      4  N   UNL     1       7.271  -2.297  23.257  0.00  0.00    -0.271 N 
ATOM      5  O   UNL     1       8.444  -2.230  25.210  0.00  0.00    -0.253 OA
ENDROOT
BRANCH   4   6
ATOM      6  C   UNL     1       8.459  -2.708  22.474  0.00  0.00    +0.230 C 
BRANCH   6   7
ATOM      7  C   UNL     1       9.574  -1.743  22.047  0.00  0.00    +0.322 C 
ATOM      8  O   UNL     1      10.555  -1.545  22.750  0.00  0.00    -0.249 OA
BRANCH   7   9
ATOM      9  O   UNL     1       9.351  -1.015  20.940  0.00  0.00    -0.480 OA
ATOM     10  H   UNL     1       8.656  -1.399  20.351  0.00  0.00    +0.295 HD
ENDBRANCH   7   9
ENDBRANCH   6   7
ENDBRANCH   4   6
BRANCH   4  11
ATOM     11  C   UNL     1       5.987  -2.588  22.611  0.00  0.00    +0.145 C 
BRANCH  11  12
ATOM     12  C   UNL     1       5.421  -3.943  22.966  0.00  0.00    -0.030 A 
ATOM     13  C   UNL     1       4.178  -4.015  23.610  0.00  0.00    +0.009 A 
ATOM     14  C   UNL     1       3.699  -5.234  24.089  0.00  0.00    +0.046 A 
ATOM     15  C   UNL     1       4.465  -6.387  23.945  0.00  0.00    +0.132 A 
ATOM     16  C   UNL     1       5.672  -6.345  23.255  0.00  0.00    +0.046 A 
ATOM     17  C   UNL     1       6.151  -5.125  22.771  0.00  0.00    +0.009 A 
BRANCH  15  18
ATOM     18  O   UNL     1       3.972  -7.512  24.536  0.00  0.00    -0.404 OA
BRANCH  18  19
ATOM     19  P   UNL     1       2.423  -7.913  24.516  0.00  0.00    +0.528 P 
ATOM     20  O   UNL     1       1.457  -7.052  25.256  0.00  0.00    -0.216 OA
BRANCH  19  21
ATOM     21  O   UNL     1       2.060  -8.213  22.988  0.00  0.00    -0.293 OA
ATOM     22  H   UNL     1       1.400  -7.578  22.658  0.00  0.00    +0.223 HD
ENDBRANCH  19  21
BRANCH  19  23
ATOM     23  O   UNL     1       2.429  -9.410  25.087  0.00  0.00    -0.293 OA
ATOM     24  H   UNL     1       1.840  -9.469  25.862  0.00  0.00    +0.223 HD
ENDBRANCH  19  23
ENDBRANCH  18  19
ENDBRANCH  15  18
ENDBRANCH  11  12
ENDBRANCH   4  11
BRANCH   1  25
ATOM     25  C   UNL     1       5.998  -2.042  26.749  0.00  0.00    +0.161 C 
BRANCH  25  28
ATOM     26  C   UNL     1       4.697   1.507  27.454  0.00  0.00    +0.132 C 
ATOM     27  N   UNL     1       5.668   0.430  27.300  0.00  0.00    -0.303 N 
ATOM     28  C   UNL     1       5.112  -0.851  27.200  0.00  0.00    +0.236 C 
ATOM     29  O   UNL     1       3.923  -1.054  27.477  0.00  0.00    -0.274 OA
BRANCH  27  30
ATOM     30  C   UNL     1       7.054   0.807  26.964  0.00  0.00    +0.107 C 
BRANCH  30  31
ATOM     31  C   UNL     1       7.204   2.317  26.706  0.00  0.00    +0.019 C 
BRANCH  31  32
ATOM     32  C   UNL     1       7.872   2.648  25.364  0.00  0.00    +0.005 C 
BRANCH  32  33
ATOM     33  C   UNL     1       8.347   1.380  24.608  0.00  0.00    -0.011 C 
ATOM     34  C   UNL     1       9.882   1.247  24.635  0.00  0.00    +0.003 C 
ATOM     35  C   UNL     1      10.589   2.201  23.674  0.00  0.00    +0.000 C 
ATOM     36  C   UNL     1      10.056   2.054  22.253  0.00  0.00    +0.000 C 
ATOM     37  C   UNL     1       8.545   2.255  22.210  0.00  0.00    +0.000 C 
ATOM     38  C   UNL     1       7.835   1.291  23.158  0.00  0.00    +0.003 C 
ENDBRANCH  32  33
ENDBRANCH  31  32
ENDBRANCH  30  31
ENDBRANCH  27  30
ENDBRANCH  25  28
BRANCH  25  39
ATOM     39  C   UNL     1       5.535  -3.375  27.381  0.00  0.00    +0.043 C 
BRANCH  39  40
ATOM     40  C   UNL     1       6.161  -4.593  26.694  0.00  0.00    +0.123 C 
BRANCH  40  41
ATOM     41  C   UNL     1       7.347  -5.267  27.358  0.00  0.00    +0.305 C 
ATOM     42  O   UNL     1       7.189  -6.132  28.212  0.00  0.00    -0.251 OA
BRANCH  41  43
ATOM     43  O   UNL     1       8.573  -4.889  26.958  0.00  0.00    -0.481 OA
ATOM     44  H   UNL     1       8.792  -3.943  27.028  0.00  0.00    +0.295 HD
ENDBRANCH  41  43
ENDBRANCH  40  41
ENDBRANCH  39  40
ENDBRANCH  25  39
ENDBRANCH   1  25
TORSDOF 19
ENDMDL
MODEL 4
REMARK VINA RESULT:      -6.3      3.715      8.437
REMARK  Name = 
REMARK  20 active torsions:
REMARK  status: ('A' for Active; 'I' for Inactive)
REMARK    1  A    between atoms: C_1  and  N_2
REMARK    2  A    between atoms: N_2  and  C_3
REMARK    3  A    between atoms: C_3  and  C_4
REMARK    4  A    between atoms: C_4  and  C_5
REMARK    5  A    between atoms: C_5  and  C_6
REMARK    6  A    between atoms: C_12  and  C_14
REMARK    7  A    between atoms: C_14  and  C_16
REMARK    8  A    between atoms: C_14  and  N_21
REMARK    9  A    between atoms: C_16  and  C_17
REMARK   10  A    between atoms: C_17  and  C_18
REMARK   11  A    between atoms: C_18  and  O_19
REMARK   12  A    between atoms: N_24  and  C_25
REMARK   13  A    between atoms: N_24  and  C_29
REMARK   14  A    between atoms: C_25  and  C_26
REMARK   15  A    between atoms: C_26  and  O_27
REMARK   16  A    between atoms: C_29  and  C_30
REMARK   17  A    between atoms: C_33  and  O_34
REMARK   18  A    between atoms: O_34  and  P_35
REMARK   19  A    between atoms: P_35  and  O_36
REMARK   20  A    between atoms: P_35  and  O_37
REMARK                            x       y       z     vdW  Elec       q    Type
REMARK                         _______ _______ _______ _____ _____    ______ ____
ROOT
ATOM      1  N   UNL     1       6.017  -2.289  26.080  0.00  0.00    -0.288 N 
ATOM      2  H   UNL     1       6.447  -1.913  25.248  0.00  0.00    +0.151 HD
ATOM      3  C   UNL     1       5.107  -1.437  26.651  0.00  0.00    +0.304 C 
ATOM      4  N   UNL     1       5.427  -0.089  26.554  0.00  0.00    -0.271 N 
ATOM      5  O   UNL     1       4.097  -1.809  27.237  0.00  0.00    -0.253 OA
ENDROOT
BRANCH   4   6
ATOM      6  C   UNL     1       4.706   0.896  27.393  0.00  0.00    +0.230 C 
BRANCH   6   7
ATOM      7  C   UNL     1       3.423   1.615  26.953  0.00  0.00    +0.322 C 
ATOM      8  O   UNL     1       2.537   1.891  27.750  0.00  0.00    -0.249 OA
BRANCH   7   9
ATOM      9  O   UNL     1       3.252   1.791  25.632  0.00  0.00    -0.480 OA
ATOM     10  H   UNL     1       2.535   2.435  25.411  0.00  0.00    +0.295 HD
ENDBRANCH   7   9
ENDBRANCH   6   7
ENDBRANCH   4   6
BRANCH   4  11
ATOM     11  C   UNL     1       6.771   0.330  26.145  0.00  0.00    +0.145 C 
BRANCH  11  12
ATOM     12  C   UNL     1       6.781   1.523  25.219  0.00  0.00    -0.030 A 
ATOM     13  C   UNL     1       6.188   1.410  23.954  0.00  0.00    +0.009 A 
ATOM     14  C   UNL     1       6.315   2.436  23.019  0.00  0.00    +0.046 A 
ATOM     15  C   UNL     1       7.049   3.576  23.333  0.00  0.00    +0.132 A 
ATOM     16  C   UNL     1       7.592   3.732  24.603  0.00  0.00    +0.046 A 
ATOM     17  C   UNL     1       7.462   2.706  25.543  0.00  0.00    +0.009 A 
BRANCH  15  18
ATOM     18  O   UNL     1       7.213   4.480  22.325  0.00  0.00    -0.404 OA
BRANCH  18  19
ATOM     19  P   UNL     1       7.334   6.058  22.566  0.00  0.00    +0.528 P 
ATOM     20  O   UNL     1       6.468   6.686  23.604  0.00  0.00    -0.216 OA
BRANCH  19  21
ATOM     21  O   UNL     1       8.897   6.373  22.680  0.00  0.00    -0.293 OA
ATOM     22  H   UNL     1       9.362   5.655  23.144  0.00  0.00    +0.223 HD
ENDBRANCH  19  21
BRANCH  19  23
ATOM     23  O   UNL     1       7.043   6.669  21.114  0.00  0.00    -0.293 OA
ATOM     24  H   UNL     1       7.886   6.837  20.653  0.00  0.00    +0.223 HD
ENDBRANCH  19  23
ENDBRANCH  18  19
ENDBRANCH  15  18
ENDBRANCH  11  12
ENDBRANCH   4  11
BRANCH   1  25
ATOM     25  C   UNL     1       5.906  -3.753  26.080  0.00  0.00    +0.161 C 
BRANCH  25  28
ATOM     26  C   UNL     1       5.781  -4.280  22.274  0.00  0.00    +0.132 C 
ATOM     27  N   UNL     1       5.813  -3.551  23.536  0.00  0.00    -0.303 N 
ATOM     28  C   UNL     1       5.613  -4.341  24.674  0.00  0.00    +0.236 C 
ATOM     29  O   UNL     1       5.194  -5.501  24.580  0.00  0.00    -0.274 OA
BRANCH  27  30
ATOM     30  C   UNL     1       6.341  -2.174  23.512  0.00  0.00    +0.107 C 
BRANCH  30  31
ATOM     31  C   UNL     1       7.753  -2.098  22.902  0.00  0.00    +0.019 C 
BRANCH  31  32
ATOM     32  C   UNL     1       8.762  -1.344  23.780  0.00  0.00    +0.005 C 
BRANCH  32  33
ATOM     33  C   UNL     1      10.053  -0.966  23.007  0.00  0.00    -0.011 C 
ATOM     34  C   UNL     1      10.888   0.076  23.778  0.00  0.00    +0.003 C 
ATOM     35  C   UNL     1      10.314   1.489  23.703  0.00  0.00    +0.000 C 
ATOM     36  C   UNL     1      10.100   1.925  22.258  0.00  0.00    +0.000 C 
ATOM     37  C   UNL     1       9.215   0.935  21.510  0.00  0.00    +0.000 C 
ATOM     38  C   UNL     1       9.797  -0.476  21.569  0.00  0.00    +0.003 C 
ENDBRANCH  32  33
ENDBRANCH  31  32
ENDBRANCH  30  31
ENDBRANCH  27  30
ENDBRANCH  25  28
BRANCH  25  39
ATOM     39  C   UNL     1       7.110  -4.450  26.755  0.00  0.00    +0.043 C 
BRANCH  39  40
ATOM     40  C   UNL     1       8.449  -4.006  26.157  0.00  0.00    +0.123 C 
BRANCH  40  41
ATOM     41  C   UNL     1       9.206  -4.983  25.276  0.00  0.00    +0.305 C 
ATOM     42  O   UNL     1       8.832  -5.228  24.134  0.00  0.00    -0.251 OA
BRANCH  41  43
ATOM     43  O   UNL     1      10.308  -5.551  25.793  0.00  0.00    -0.481 OA
ATOM     44  H   UNL     1      10.390  -6.518  25.712  0.00  0.00    +0.295 HD
ENDBRANCH  41  43
ENDBRANCH  40  41
ENDBRANCH  39  40
ENDBRANCH  25  39
ENDBRANCH   1  25
TORSDOF 19
ENDMDL
MODEL 5
REMARK VINA RESULT:      -6.3      3.697      8.598
REMARK  Name = 
REMARK  20 active torsions:
REMARK  status: ('A' for Active; 'I' for Inactive)
REMARK    1  A    between atoms: C_1  and  N_2
REMARK    2  A    between atoms: N_2  and  C_3
REMARK    3  A    between atoms: C_3  and  C_4
REMARK    4  A    between atoms: C_4  and  C_5
REMARK    5  A    between atoms: C_5  and  C_6
REMARK    6  A    between atoms: C_12  and  C_14
REMARK    7  A    between atoms: C_14  and  C_16
REMARK    8  A    between atoms: C_14  and  N_21
REMARK    9  A    between atoms: C_16  and  C_17
REMARK   10  A    between atoms: C_17  and  C_18
REMARK   11  A    between atoms: C_18  and  O_19
REMARK   12  A    between atoms: N_24  and  C_25
REMARK   13  A    between atoms: N_24  and  C_29
REMARK   14  A    between atoms: C_25  and  C_26
REMARK   15  A    between atoms: C_26  and  O_27
REMARK   16  A    between atoms: C_29  and  C_30
REMARK   17  A    between atoms: C_33  and  O_34
REMARK   18  A    between atoms: O_34  and  P_35
REMARK   19  A    between atoms: P_35  and  O_36
REMARK   20  A    between atoms: P_35  and  O_37
REMARK                            x       y       z     vdW  Elec       q    Type
REMARK                         _______ _______ _______ _____ _____    ______ ____
ROOT
ATOM      1  N   UNL     1       6.097  -1.799  24.860  0.00  0.00    -0.288 N 
ATOM      2  H   UNL     1       6.556  -1.025  24.402  0.00  0.00    +0.151 HD
ATOM      3  C   UNL     1       4.976  -1.428  25.557  0.00  0.00    +0.304 C 
ATOM      4  N   UNL     1       5.049  -0.178  26.159  0.00  0.00    -0.271 N 
ATOM      5  O   UNL     1       3.985  -2.136  25.685  0.00  0.00    -0.253 OA
ENDROOT
BRANCH   4   6
ATOM      6  C   UNL     1       4.053   0.198  27.188  0.00  0.00    +0.230 C 
BRANCH   6   7
ATOM      7  C   UNL     1       2.935   1.225  26.958  0.00  0.00    +0.322 C 
ATOM      8  O   UNL     1       2.846   1.853  25.912  0.00  0.00    -0.249 OA
BRANCH   7   9
ATOM      9  O   UNL     1       2.152   1.511  28.011  0.00  0.00    -0.480 OA
ATOM     10  H   UNL     1       1.904   0.715  28.543  0.00  0.00    +0.295 HD
ENDBRANCH   7   9
ENDBRANCH   6   7
ENDBRANCH   4   6
BRANCH   4  11
ATOM     11  C   UNL     1       6.334   0.519  26.275  0.00  0.00    +0.145 C 
BRANCH  11  12
ATOM     12  C   UNL     1       6.478   1.691  25.332  0.00  0.00    -0.030 A 
ATOM     13  C   UNL     1       5.795   1.670  24.109  0.00  0.00    +0.009 A 
ATOM     14  C   UNL     1       6.026   2.658  23.153  0.00  0.00    +0.046 A 
ATOM     15  C   UNL     1       6.954   3.665  23.403  0.00  0.00    +0.132 A 
ATOM     16  C   UNL     1       7.596   3.736  24.635  0.00  0.00    +0.046 A 
ATOM     17  C   UNL     1       7.362   2.748  25.596  0.00  0.00    +0.009 A 
BRANCH  15  18
ATOM     18  O   UNL     1       7.197   4.526  22.375  0.00  0.00    -0.404 OA
BRANCH  18  19
ATOM     19  P   UNL     1       7.410   6.100  22.573  0.00  0.00    +0.528 P 
ATOM     20  O   UNL     1       6.584   6.805  23.594  0.00  0.00    -0.216 OA
BRANCH  19  21
ATOM     21  O   UNL     1       8.989   6.326  22.677  0.00  0.00    -0.293 OA
ATOM     22  H   UNL     1       9.190   7.224  22.994  0.00  0.00    +0.223 HD
ENDBRANCH  19  21
BRANCH  19  23
ATOM     23  O   UNL     1       7.152   6.687  21.105  0.00  0.00    -0.293 OA
ATOM     24  H   UNL     1       7.742   7.448  20.947  0.00  0.00    +0.223 HD
ENDBRANCH  19  23
ENDBRANCH  18  19
ENDBRANCH  15  18
ENDBRANCH  11  12
ENDBRANCH   4  11
BRANCH   1  25
ATOM     25  C   UNL     1       6.261  -3.081  24.164  0.00  0.00    +0.161 C 
BRANCH  25  28
ATOM     26  C   UNL     1       7.925  -5.309  26.819  0.00  0.00    +0.132 C 
ATOM     27  N   UNL     1       7.834  -4.338  25.735  0.00  0.00    -0.303 N 
ATOM     28  C   UNL     1       6.577  -4.259  25.124  0.00  0.00    +0.236 C 
ATOM     29  O   UNL     1       5.712  -5.119  25.329  0.00  0.00    -0.274 OA
BRANCH  27  30
ATOM     30  C   UNL     1       8.930  -3.361  25.603  0.00  0.00    +0.107 C 
BRANCH  30  31
ATOM     31  C   UNL     1       9.567  -3.379  24.201  0.00  0.00    +0.019 C 
BRANCH  31  32
ATOM     32  C   UNL     1      10.156  -2.027  23.776  0.00  0.00    +0.005 C 
BRANCH  32  33
ATOM     33  C   UNL     1       9.224  -0.838  24.125  0.00  0.00    -0.011 C 
ATOM     34  C   UNL     1       8.611  -0.209  22.858  0.00  0.00    +0.003 C 
ATOM     35  C   UNL     1       9.592   0.664  22.079  0.00  0.00    +0.000 C 
ATOM     36  C   UNL     1      10.213   1.734  22.970  0.00  0.00    +0.000 C 
ATOM     37  C   UNL     1      10.884   1.112  24.190  0.00  0.00    +0.000 C 
ATOM     38  C   UNL     1       9.900   0.252  24.980  0.00  0.00    +0.003 C 
ENDBRANCH  32  33
ENDBRANCH  31  32
ENDBRANCH  30  31
ENDBRANCH  27  30
ENDBRANCH  25  28
BRANCH  25  39
ATOM     39  C   UNL     1       5.081  -3.411  23.220  0.00  0.00    +0.043 C 
BRANCH  39  40
ATOM     40  C   UNL     1       5.552  -4.004  21.887  0.00  0.00    +0.123 C 
BRANCH  40  41
ATOM     41  C   UNL     1       5.986  -5.457  21.857  0.00  0.00    +0.305 C 
ATOM     42  O   UNL     1       7.013  -5.801  21.280  0.00  0.00    -0.251 OA
BRANCH  41  43
ATOM     43  O   UNL     1       5.209  -6.345  22.500  0.00  0.00    -0.481 OA
ATOM     44  H   UNL     1       5.606  -6.822  23.250  0.00  0.00    +0.295 HD
ENDBRANCH  41  43
ENDBRANCH  40  41
ENDBRANCH  39  40
ENDBRANCH  25  39
ENDBRANCH   1  25
TORSDOF 19
ENDMDL
MODEL 6
REMARK VINA RESULT:      -6.2      3.785      9.045
REMARK  Name = 
REMARK  20 active torsions:
REMARK  status: ('A' for Active; 'I' for Inactive)
REMARK    1  A    between atoms: C_1  and  N_2
REMARK    2  A    between atoms: N_2  and  C_3
REMARK    3  A    between atoms: C_3  and  C_4
REMARK    4  A    between atoms: C_4  and  C_5
REMARK    5  A    between atoms: C_5  and  C_6
REMARK    6  A    between atoms: C_12  and  C_14
REMARK    7  A    between atoms: C_14  and  C_16
REMARK    8  A    between atoms: C_14  and  N_21
REMARK    9  A    between atoms: C_16  and  C_17
REMARK   10  A    between atoms: C_17  and  C_18
REMARK   11  A    between atoms: C_18  and  O_19
REMARK   12  A    between atoms: N_24  and  C_25
REMARK   13  A    between atoms: N_24  and  C_29
REMARK   14  A    between atoms: C_25  and  C_26
REMARK   15  A    between atoms: C_26  and  O_27
REMARK   16  A    between atoms: C_29  and  C_30
REMARK   17  A    between atoms: C_33  and  O_34
REMARK   18  A    between atoms: O_34  and  P_35
REMARK   19  A    between atoms: P_35  and  O_36
REMARK   20  A    between atoms: P_35  and  O_37
REMARK                            x       y       z     vdW  Elec       q    Type
REMARK                         _______ _______ _______ _____ _____    ______ ____
ROOT
ATOM      1  N   UNL     1       5.829  -2.571  26.395  0.00  0.00    -0.288 N 
ATOM      2  H   UNL     1       6.342  -2.316  25.564  0.00  0.00    +0.151 HD
ATOM      3  C   UNL     1       4.958  -1.598  26.813  0.00  0.00    +0.304 C 
ATOM      4  N   UNL     1       5.396  -0.295  26.610  0.00  0.00    -0.271 N 
ATOM      5  O   UNL     1       3.885  -1.829  27.357  0.00  0.00    -0.253 OA
ENDROOT
BRANCH   4   6
ATOM      6  C   UNL     1       4.708   0.823  27.295  0.00  0.00    +0.230 C 
BRANCH   6   7
ATOM      7  C   UNL     1       3.588   1.655  26.655  0.00  0.00    +0.322 C 
ATOM      8  O   UNL     1       2.486   1.178  26.424  0.00  0.00    -0.249 OA
BRANCH   7   9
ATOM      9  O   UNL     1       3.919   2.884  26.225  0.00  0.00    -0.480 OA
ATOM     10  H   UNL     1       4.281   2.892  25.305  0.00  0.00    +0.295 HD
ENDBRANCH   7   9
ENDBRANCH   6   7
ENDBRANCH   4   6
BRANCH   4  11
ATOM     11  C   UNL     1       6.794  -0.026  26.262  0.00  0.00    +0.145 C 
BRANCH  11  12
ATOM     12  C   UNL     1       6.978   1.179  25.369  0.00  0.00    -0.030 A 
ATOM     13  C   UNL     1       6.298   1.229  24.144  0.00  0.00    +0.009 A 
ATOM     14  C   UNL     1       6.562   2.248  23.229  0.00  0.00    +0.046 A 
ATOM     15  C   UNL     1       7.520   3.214  23.523  0.00  0.00    +0.132 A 
ATOM     16  C   UNL     1       8.160   3.215  24.757  0.00  0.00    +0.046 A 
ATOM     17  C   UNL     1       7.893   2.196  25.676  0.00  0.00    +0.009 A 
BRANCH  15  18
ATOM     18  O   UNL     1       7.793   4.109  22.531  0.00  0.00    -0.404 OA
BRANCH  18  19
ATOM     19  P   UNL     1       7.677   5.694  22.715  0.00  0.00    +0.528 P 
ATOM     20  O   UNL     1       6.658   6.226  23.664  0.00  0.00    -0.216 OA
BRANCH  19  21
ATOM     21  O   UNL     1       9.169   6.229  22.924  0.00  0.00    -0.293 OA
ATOM     22  H   UNL     1       9.784   5.787  22.314  0.00  0.00    +0.223 HD
ENDBRANCH  19  21
BRANCH  19  23
ATOM     23  O   UNL     1       7.413   6.214  21.223  0.00  0.00    -0.293 OA
ATOM     24  H   UNL     1       7.688   5.531  20.583  0.00  0.00    +0.223 HD
ENDBRANCH  19  23
ENDBRANCH  18  19
ENDBRANCH  15  18
ENDBRANCH  11  12
ENDBRANCH   4  11
BRANCH   1  25
ATOM     25  C   UNL     1       5.595  -4.014  26.528  0.00  0.00    +0.161 C 
BRANCH  25  28
ATOM     26  C   UNL     1       7.769  -5.272  23.618  0.00  0.00    +0.132 C 
ATOM     27  N   UNL     1       6.651  -4.611  24.282  0.00  0.00    -0.303 N 
ATOM     28  C   UNL     1       6.550  -4.869  25.654  0.00  0.00    +0.236 C 
ATOM     29  O   UNL     1       7.202  -5.777  26.182  0.00  0.00    -0.274 OA
BRANCH  27  30
ATOM     30  C   UNL     1       5.960  -3.539  23.542  0.00  0.00    +0.107 C 
BRANCH  30  31
ATOM     31  C   UNL     1       6.790  -3.014  22.357  0.00  0.00    +0.019 C 
BRANCH  31  32
ATOM     32  C   UNL     1       7.539  -1.709  22.661  0.00  0.00    +0.005 C 
BRANCH  32  33
ATOM     33  C   UNL     1       9.066  -1.832  22.422  0.00  0.00    -0.011 C 
ATOM     34  C   UNL     1       9.835  -1.990  23.749  0.00  0.00    +0.003 C 
ATOM     35  C   UNL     1       9.966  -0.685  24.532  0.00  0.00    +0.000 C 
ATOM     36  C   UNL     1      10.580   0.417  23.676  0.00  0.00    +0.000 C 
ATOM     37  C   UNL     1       9.781   0.627  22.394  0.00  0.00    +0.000 C 
ATOM     38  C   UNL     1       9.664  -0.673  21.601  0.00  0.00    +0.003 C 
ENDBRANCH  32  33
ENDBRANCH  31  32
ENDBRANCH  30  31
ENDBRANCH  27  30
ENDBRANCH  25  28
BRANCH  25  39
ATOM     39  C   UNL     1       5.582  -4.491  28.000  0.00  0.00    +0.043 C 
BRANCH  39  40
ATOM     40  C   UNL     1       4.386  -5.398  28.306  0.00  0.00    +0.123 C 
BRANCH  40  41
ATOM     41  C   UNL     1       4.655  -6.791  28.845  0.00  0.00    +0.305 C 
ATOM     42  O   UNL     1       4.048  -7.221  29.821  0.00  0.00    -0.251 OA
BRANCH  41  43
ATOM     43  O   UNL     1       5.569  -7.535  28.201  0.00  0.00    -0.481 OA
ATOM     44  H   UNL     1       6.317  -7.065  27.791  0.00  0.00    +0.295 HD
ENDBRANCH  41  43
ENDBRANCH  40  41
ENDBRANCH  39  40
ENDBRANCH  25  39
ENDBRANCH   1  25
TORSDOF 19
ENDMDL
MODEL 7
REMARK VINA RESULT:      -6.1      3.614      8.403
REMARK  Name = 
REMARK  20 active torsions:
REMARK  status: ('A' for Active; 'I' for Inactive)
REMARK    1  A    between atoms: C_1  and  N_2
REMARK    2  A    between atoms: N_2  and  C_3
REMARK    3  A    between atoms: C_3  and  C_4
REMARK    4  A    between atoms: C_4  and  C_5
REMARK    5  A    between atoms: C_5  and  C_6
REMARK    6  A    between atoms: C_12  and  C_14
REMARK    7  A    between atoms: C_14  and  C_16
REMARK    8  A    between atoms: C_14  and  N_21
REMARK    9  A    between atoms: C_16  and  C_17
REMARK   10  A    between atoms: C_17  and  C_18
REMARK   11  A    between atoms: C_18  and  O_19
REMARK   12  A    between atoms: N_24  and  C_25
REMARK   13  A    between atoms: N_24  and  C_29
REMARK   14  A    between atoms: C_25  and  C_26
REMARK   15  A    between atoms: C_26  and  O_27
REMARK   16  A    between atoms: C_29  and  C_30
REMARK   17  A    between atoms: C_33  and  O_34
REMARK   18  A    between atoms: O_34  and  P_35
REMARK   19  A    between atoms: P_35  and  O_36
REMARK   20  A    between atoms: P_35  and  O_37
REMARK                            x       y       z     vdW  Elec       q    Type
REMARK                         _______ _______ _______ _____ _____    ______ ____
ROOT
ATOM      1  N   UNL     1       8.840  -2.489  24.412  0.00  0.00    -0.288 N 
ATOM      2  H   UNL     1       8.875  -2.281  25.399  0.00  0.00    +0.151 HD
ATOM      3  C   UNL     1       9.720  -1.741  23.671  0.00  0.00    +0.304 C 
ATOM      4  N   UNL     1       9.911  -0.443  24.126  0.00  0.00    -0.271 N 
ATOM      5  O   UNL     1      10.282  -2.150  22.662  0.00  0.00    -0.253 OA
ENDROOT
BRANCH   4   6
ATOM      6  C   UNL     1      10.574   0.549  23.249  0.00  0.00    +0.230 C 
BRANCH   6   7
ATOM      7  C   UNL     1       9.953   1.090  21.953  0.00  0.00    +0.322 C 
ATOM      8  O   UNL     1       9.367   0.358  21.167  0.00  0.00    -0.249 OA
BRANCH   7   9
ATOM      9  O   UNL     1      10.213   2.373  21.648  0.00  0.00    -0.480 OA
ATOM     10  H   UNL     1      10.826   2.477  20.880  0.00  0.00    +0.295 HD
ENDBRANCH   7   9
ENDBRANCH   6   7
ENDBRANCH   4   6
BRANCH   4  11
ATOM     11  C   UNL     1       9.008   0.137  25.125  0.00  0.00    +0.145 C 
BRANCH  11  12
ATOM     12  C   UNL     1       8.187   1.292  24.604  0.00  0.00    -0.030 A 
ATOM     13  C   UNL     1       7.098   1.030  23.760  0.00  0.00    +0.009 A 
ATOM     14  C   UNL     1       6.416   2.075  23.140  0.00  0.00    +0.046 A 
ATOM     15  C   UNL     1       6.826   3.390  23.343  0.00  0.00    +0.132 A 
ATOM     16  C   UNL     1       7.864   3.673  24.223  0.00  0.00    +0.046 A 
ATOM     17  C   UNL     1       8.546   2.626  24.849  0.00  0.00    +0.009 A 
BRANCH  15  18
ATOM     18  O   UNL     1       6.173   4.340  22.614  0.00  0.00    -0.404 OA
BRANCH  18  19
ATOM     19  P   UNL     1       6.587   5.886  22.609  0.00  0.00    +0.528 P 
ATOM     20  O   UNL     1       6.718   6.591  23.916  0.00  0.00    -0.216 OA
BRANCH  19  21
ATOM     21  O   UNL     1       7.839   6.010  21.623  0.00  0.00    -0.293 OA
ATOM     22  H   UNL     1       7.548   6.033  20.695  0.00  0.00    +0.223 HD
ENDBRANCH  19  21
BRANCH  19  23
ATOM     23  O   UNL     1       5.458   6.560  21.693  0.00  0.00    -0.293 OA
ATOM     24  H   UNL     1       5.865   6.927  20.886  0.00  0.00    +0.223 HD
ENDBRANCH  19  23
ENDBRANCH  18  19
ENDBRANCH  15  18
ENDBRANCH  11  12
ENDBRANCH   4  11
BRANCH   1  25
ATOM     25  C   UNL     1       8.462  -3.875  24.110  0.00  0.00    +0.161 C 
BRANCH  25  28
ATOM     26  C   UNL     1       6.593  -5.365  27.122  0.00  0.00    +0.132 C 
ATOM     27  N   UNL     1       6.982  -4.367  26.132  0.00  0.00    -0.303 N 
ATOM     28  C   UNL     1       8.113  -4.700  25.377  0.00  0.00    +0.236 C 
ATOM     29  O   UNL     1       8.848  -5.638  25.709  0.00  0.00    -0.274 OA
BRANCH  27  30
ATOM     30  C   UNL     1       6.010  -3.302  25.823  0.00  0.00    +0.107 C 
BRANCH  30  31
ATOM     31  C   UNL     1       5.641  -2.467  27.063  0.00  0.00    +0.019 C 
BRANCH  31  32
ATOM     32  C   UNL     1       6.060  -0.994  26.959  0.00  0.00    +0.005 C 
BRANCH  32  33
ATOM     33  C   UNL     1       5.267  -0.081  27.930  0.00  0.00    -0.011 C 
ATOM     34  C   UNL     1       4.152   0.691  27.197  0.00  0.00    +0.003 C 
ATOM     35  C   UNL     1       4.673   1.864  26.368  0.00  0.00    +0.000 C 
ATOM     36  C   UNL     1       5.523   2.807  27.211  0.00  0.00    +0.000 C 
ATOM     37  C   UNL     1       6.670   2.060  27.882  0.00  0.00    +0.000 C 
ATOM     38  C   UNL     1       6.151   0.898  28.726  0.00  0.00    +0.003 C 
ENDBRANCH  32  33
ENDBRANCH  31  32
ENDBRANCH  30  31
ENDBRANCH  27  30
ENDBRANCH  25  28
BRANCH  25  39
ATOM     39  C   UNL     1       7.356  -3.979  23.034  0.00  0.00    +0.043 C 
BRANCH  39  40
ATOM     40  C   UNL     1       7.312  -5.362  22.378  0.00  0.00    +0.123 C 
BRANCH  40  41
ATOM     41  C   UNL     1       6.058  -5.764  21.624  0.00  0.00    +0.305 C 
ATOM     42  O   UNL     1       5.972  -5.614  20.410  0.00  0.00    -0.251 OA
BRANCH  41  43
ATOM     43  O   UNL     1       5.056  -6.305  22.338  0.00  0.00    -0.481 OA
ATOM     44  H   UNL     1       5.130  -7.249  22.564  0.00  0.00    +0.295 HD
ENDBRANCH  41  43
ENDBRANCH  40  41
ENDBRANCH  39  40
ENDBRANCH  25  39
ENDBRANCH   1  25
TORSDOF 19
ENDMDL
MODEL 8
REMARK VINA RESULT:      -6.1      3.875      9.702
REMARK  Name = 
REMARK  20 active torsions:
REMARK  status: ('A' for Active; 'I' for Inactive)
REMARK    1  A    between atoms: C_1  and  N_2
REMARK    2  A    between atoms: N_2  and  C_3
REMARK    3  A    between atoms: C_3  and  C_4
REMARK    4  A    between atoms: C_4  and  C_5
REMARK    5  A    between atoms: C_5  and  C_6
REMARK    6  A    between atoms: C_12  and  C_14
REMARK    7  A    between atoms: C_14  and  C_16
REMARK    8  A    between atoms: C_14  and  N_21
REMARK    9  A    between atoms: C_16  and  C_17
REMARK   10  A    between atoms: C_17  and  C_18
REMARK   11  A    between atoms: C_18  and  O_19
REMARK   12  A    between atoms: N_24  and  C_25
REMARK   13  A    between atoms: N_24  and  C_29
REMARK   14  A    between atoms: C_25  and  C_26
REMARK   15  A    between atoms: C_26  and  O_27
REMARK   16  A    between atoms: C_29  and  C_30
REMARK   17  A    between atoms: C_33  and  O_34
REMARK   18  A    between atoms: O_34  and  P_35
REMARK   19  A    between atoms: P_35  and  O_36
REMARK   20  A    between atoms: P_35  and  O_37
REMARK                            x       y       z     vdW  Elec       q    Type
REMARK                         _______ _______ _______ _____ _____    ______ ____
ROOT
ATOM      1  N   UNL     1       7.614  -3.481  24.069  0.00  0.00    -0.288 N 
ATOM      2  H   UNL     1       6.857  -2.889  24.376  0.00  0.00    +0.151 HD
ATOM      3  C   UNL     1       8.807  -2.815  23.947  0.00  0.00    +0.304 C 
ATOM      4  N   UNL     1       8.700  -1.500  23.510  0.00  0.00    -0.271 N 
ATOM      5  O   UNL     1       9.899  -3.324  24.166  0.00  0.00    -0.253 OA
ENDROOT
BRANCH   4   6
ATOM      6  C   UNL     1       9.908  -0.787  23.037  0.00  0.00    +0.230 C 
BRANCH   6   7
ATOM      7  C   UNL     1      10.548   0.393  23.782  0.00  0.00    +0.322 C 
ATOM      8  O   UNL     1      10.939   0.287  24.936  0.00  0.00    -0.249 OA
BRANCH   7   9
ATOM      9  O   UNL     1      10.522   1.585  23.162  0.00  0.00    -0.480 OA
ATOM     10  H   UNL     1       9.607   1.913  22.983  0.00  0.00    +0.295 HD
ENDBRANCH   7   9
ENDBRANCH   6   7
ENDBRANCH   4   6
BRANCH   4  11
ATOM     11  C   UNL     1       7.441  -1.003  22.947  0.00  0.00    +0.145 C 
BRANCH  11  12
ATOM     12  C   UNL     1       7.195   0.464  23.209  0.00  0.00    -0.030 A 
ATOM     13  C   UNL     1       7.114   1.347  22.123  0.00  0.00    +0.009 A 
ATOM     14  C   UNL     1       7.043   2.723  22.334  0.00  0.00    +0.046 A 
ATOM     15  C   UNL     1       7.070   3.231  23.630  0.00  0.00    +0.132 A 
ATOM     16  C   UNL     1       7.088   2.368  24.720  0.00  0.00    +0.046 A 
ATOM     17  C   UNL     1       7.155   0.988  24.510  0.00  0.00    +0.009 A 
BRANCH  15  18
ATOM     18  O   UNL     1       7.106   4.589  23.741  0.00  0.00    -0.404 OA
BRANCH  18  19
ATOM     19  P   UNL     1       8.455   5.446  23.659  0.00  0.00    +0.528 P 
ATOM     20  O   UNL     1       8.735   6.435  24.738  0.00  0.00    -0.216 OA
BRANCH  19  21
ATOM     21  O   UNL     1       9.627   4.403  23.350  0.00  0.00    -0.293 OA
ATOM     22  H   UNL     1      10.121   4.188  24.159  0.00  0.00    +0.223 HD
ENDBRANCH  19  21
BRANCH  19  23
ATOM     23  O   UNL     1       8.346   6.157  22.227  0.00  0.00    -0.293 OA
ATOM     24  H   UNL     1       7.632   5.742  21.708  0.00  0.00    +0.223 HD
ENDBRANCH  19  23
ENDBRANCH  18  19
ENDBRANCH  15  18
ENDBRANCH  11  12
ENDBRANCH   4  11
BRANCH   1  25
ATOM     25  C   UNL     1       7.479  -4.881  24.488  0.00  0.00    +0.161 C 
BRANCH  25  28
ATOM     26  C   UNL     1       6.055  -4.887  28.059  0.00  0.00    +0.132 C 
ATOM     27  N   UNL     1       6.256  -4.441  26.686  0.00  0.00    -0.303 N 
ATOM     28  C   UNL     1       7.331  -5.045  26.024  0.00  0.00    +0.236 C 
ATOM     29  O   UNL     1       8.174  -5.703  26.645  0.00  0.00    -0.274 OA
BRANCH  27  30
ATOM     30  C   UNL     1       5.168  -3.668  26.057  0.00  0.00    +0.107 C 
BRANCH  30  31
ATOM     31  C   UNL     1       3.797  -3.961  26.693  0.00  0.00    +0.019 C 
BRANCH  31  32
ATOM     32  C   UNL     1       3.033  -5.104  26.009  0.00  0.00    +0.005 C 
BRANCH  32  33
ATOM     33  C   UNL     1       2.182  -4.613  24.809  0.00  0.00    -0.011 C 
ATOM     34  C   UNL     1       0.757  -5.202  24.849  0.00  0.00    +0.003 C 
ATOM     35  C   UNL     1       0.695  -6.666  24.419  0.00  0.00    +0.000 C 
ATOM     36  C   UNL     1       1.329  -6.870  23.048  0.00  0.00    +0.000 C 
ATOM     37  C   UNL     1       2.763  -6.354  23.023  0.00  0.00    +0.000 C 
ATOM     38  C   UNL     1       2.826  -4.885  23.437  0.00  0.00    +0.003 C 
ENDBRANCH  32  33
ENDBRANCH  31  32
ENDBRANCH  30  31
ENDBRANCH  27  30
ENDBRANCH  25  28
BRANCH  25  39
ATOM     39  C   UNL     1       6.370  -5.638  23.720  0.00  0.00    +0.043 C 
BRANCH  39  40
ATOM     40  C   UNL     1       6.771  -5.945  22.273  0.00  0.00    +0.123 C 
BRANCH  40  41
ATOM     41  C   UNL     1       6.128  -5.140  21.159  0.00  0.00    +0.305 C 
ATOM     42  O   UNL     1       5.958  -5.622  20.045  0.00  0.00    -0.251 OA
BRANCH  41  43
ATOM     43  O   UNL     1       5.738  -3.887  21.451  0.00  0.00    -0.481 OA
ATOM     44  H   UNL     1       4.955  -3.786  22.020  0.00  0.00    +0.295 HD
ENDBRANCH  41  43
ENDBRANCH  40  41
ENDBRANCH  39  40
ENDBRANCH  25  39
ENDBRANCH   1  25
TORSDOF 19
ENDMDL
MODEL 9
REMARK VINA RESULT:      -6.1      2.723      4.641
REMARK  Name = 
REMARK  20 active torsions:
REMARK  status: ('A' for Active; 'I' for Inactive)
REMARK    1  A    between atoms: C_1  and  N_2
REMARK    2  A    between atoms: N_2  and  C_3
REMARK    3  A    between atoms: C_3  and  C_4
REMARK    4  A    between atoms: C_4  and  C_5
REMARK    5  A    between atoms: C_5  and  C_6
REMARK    6  A    between atoms: C_12  and  C_14
REMARK    7  A    between atoms: C_14  and  C_16
REMARK    8  A    between atoms: C_14  and  N_21
REMARK    9  A    between atoms: C_16  and  C_17
REMARK   10  A    between atoms: C_17  and  C_18
REMARK   11  A    between atoms: C_18  and  O_19
REMARK   12  A    between atoms: N_24  and  C_25
REMARK   13  A    between atoms: N_24  and  C_29
REMARK   14  A    between atoms: C_25  and  C_26
REMARK   15  A    between atoms: C_26  and  O_27
REMARK   16  A    between atoms: C_29  and  C_30
REMARK   17  A    between atoms: C_33  and  O_34
REMARK   18  A    between atoms: O_34  and  P_35
REMARK   19  A    between atoms: P_35  and  O_36
REMARK   20  A    between atoms: P_35  and  O_37
REMARK                            x       y       z     vdW  Elec       q    Type
REMARK                         _______ _______ _______ _____ _____    ______ ____
ROOT
ATOM      1  N   UNL     1       6.348  -1.228  26.979  0.00  0.00    -0.288 N 
ATOM      2  H   UNL     1       5.579  -1.669  26.495  0.00  0.00    +0.151 HD
ATOM      3  C   UNL     1       7.568  -1.767  26.659  0.00  0.00    +0.304 C 
ATOM      4  N   UNL     1       7.558  -3.135  26.420  0.00  0.00    -0.271 N 
ATOM      5  O   UNL     1       8.609  -1.122  26.613  0.00  0.00    -0.253 OA
ENDROOT
BRANCH   4   6
ATOM      6  C   UNL     1       8.837  -3.880  26.382  0.00  0.00    +0.230 C 
BRANCH   6   7
ATOM      7  C   UNL     1       9.235  -4.837  25.248  0.00  0.00    +0.322 C 
ATOM      8  O   UNL     1       8.886  -4.641  24.092  0.00  0.00    -0.249 OA
BRANCH   7   9
ATOM      9  O   UNL     1       9.852  -5.974  25.607  0.00  0.00    -0.480 OA
ATOM     10  H   UNL     1      10.494  -5.855  26.350  0.00  0.00    +0.295 HD
ENDBRANCH   7   9
ENDBRANCH   6   7
ENDBRANCH   4   6
BRANCH   4  11
ATOM     11  C   UNL     1       6.393  -3.947  26.786  0.00  0.00    +0.145 C 
BRANCH  11  12
ATOM     12  C   UNL     1       5.675  -4.549  25.601  0.00  0.00    -0.030 A 
ATOM     13  C   UNL     1       4.862  -3.729  24.807  0.00  0.00    +0.009 A 
ATOM     14  C   UNL     1       4.066  -4.280  23.803  0.00  0.00    +0.046 A 
ATOM     15  C   UNL     1       4.062  -5.657  23.597  0.00  0.00    +0.132 A 
ATOM     16  C   UNL     1       4.907  -6.479  24.334  0.00  0.00    +0.046 A 
ATOM     17  C   UNL     1       5.708  -5.927  25.337  0.00  0.00    +0.009 A 
BRANCH  15  18
ATOM     18  O   UNL     1       3.176  -6.121  22.671  0.00  0.00    -0.404 OA
BRANCH  18  19
ATOM     19  P   UNL     1       1.929  -7.056  23.033  0.00  0.00    +0.528 P 
ATOM     20  O   UNL     1       0.811  -6.473  23.827  0.00  0.00    -0.216 OA
BRANCH  19  21
ATOM     21  O   UNL     1       1.511  -7.788  21.675  0.00  0.00    -0.293 OA
ATOM     22  H   UNL     1       0.589  -8.097  21.718  0.00  0.00    +0.223 HD
ENDBRANCH  19  21
BRANCH  19  23
ATOM     23  O   UNL     1       2.611  -8.287  23.800  0.00  0.00    -0.293 OA
ATOM     24  H   UNL     1       3.581  -8.182  23.794  0.00  0.00    +0.223 HD
ENDBRANCH  19  23
ENDBRANCH  18  19
ENDBRANCH  15  18
ENDBRANCH  11  12
ENDBRANCH   4  11
BRANCH   1  25
ATOM     25  C   UNL     1       6.117   0.186  27.296  0.00  0.00    +0.161 C 
BRANCH  25  28
ATOM     26  C   UNL     1       5.146   2.548  24.422  0.00  0.00    +0.132 C 
ATOM     27  N   UNL     1       5.839   2.094  25.622  0.00  0.00    -0.303 N 
ATOM     28  C   UNL     1       5.313   0.933  26.199  0.00  0.00    +0.236 C 
ATOM     29  O   UNL     1       4.209   0.494  25.856  0.00  0.00    -0.274 OA
BRANCH  27  30
ATOM     30  C   UNL     1       7.154   2.695  25.916  0.00  0.00    +0.107 C 
BRANCH  30  31
ATOM     31  C   UNL     1       8.028   2.837  24.656  0.00  0.00    +0.019 C 
BRANCH  31  32
ATOM     32  C   UNL     1       8.593   1.504  24.146  0.00  0.00    +0.005 C 
BRANCH  32  33
ATOM     33  C   UNL     1       7.937   1.052  22.816  0.00  0.00    -0.011 C 
ATOM     34  C   UNL     1       7.180  -0.281  22.983  0.00  0.00    +0.003 C 
ATOM     35  C   UNL     1       8.101  -1.496  23.053  0.00  0.00    +0.000 C 
ATOM     36  C   UNL     1       9.040  -1.552  21.853  0.00  0.00    +0.000 C 
ATOM     37  C   UNL     1       9.844  -0.263  21.724  0.00  0.00    +0.000 C 
ATOM     38  C   UNL     1       8.924   0.952  21.637  0.00  0.00    +0.003 C 
ENDBRANCH  32  33
ENDBRANCH  31  32
ENDBRANCH  30  31
ENDBRANCH  27  30
ENDBRANCH  25  28
BRANCH  25  39
ATOM     39  C   UNL     1       5.505   0.398  28.701  0.00  0.00    +0.043 C 
BRANCH  39  40
ATOM     40  C   UNL     1       5.847   1.774  29.282  0.00  0.00    +0.123 C 
BRANCH  40  41
ATOM     41  C   UNL     1       7.289   2.062  29.658  0.00  0.00    +0.305 C 
ATOM     42  O   UNL     1       8.001   1.193  30.150  0.00  0.00    -0.251 OA
BRANCH  41  43
ATOM     43  O   UNL     1       7.755   3.298  29.412  0.00  0.00    -0.481 OA
ATOM     44  H   UNL     1       7.945   3.863  30.182  0.00  0.00    +0.295 HD
ENDBRANCH  41  43
ENDBRANCH  40  41
ENDBRANCH  39  40
ENDBRANCH  25  39
ENDBRANCH   1  25
TORSDOF 19
ENDMDL
