MODEL 1
REMARK VINA RESULT:      -5.5      0.000      0.000
REMARK  Name = 
REMARK  5 active torsions:
REMARK  status: ('A' for Active; 'I' for Inactive)
REMARK    1  A    between atoms: N_1  and  CA_2
REMARK    2  A    between atoms: CA_2  and  C_4
REMARK    3  A    between atoms: CA_2  and  C_14
REMARK    4  A    between atoms: C_4  and  N_5
REMARK    5  A    between atoms: C_14  and  O_15
REMARK                            x       y       z     vdW  Elec       q    Type
REMARK                         _______ _______ _______ _____ _____    ______ ____
ROOT
ATOM      1  N   UNL     1       8.917  -1.428  24.635  0.00  0.00    -0.296 N 
ATOM      2  C   UNL     1       9.224  -0.612  25.720  0.00  0.00    +0.330 A 
ATOM      3  O   UNL     1       8.978  -0.915  26.885  0.00  0.00    -0.246 OA
ATOM      4  N   UNL     1       9.875   0.558  25.423  0.00  0.00    -0.273 N 
ATOM      5  H   UNL     1      10.125   1.150  26.198  0.00  0.00    +0.174 HD
ATOM      6  C   UNL     1      10.300   0.956  24.182  0.00  0.00    +0.289 A 
ATOM      7  O   UNL     1      10.950   1.981  24.015  0.00  0.00    -0.265 OA
ATOM      8  C   UNL     1       9.927   0.054  23.078  0.00  0.00    +0.204 A 
ATOM      9  F   UNL     1      10.279   0.413  21.831  0.00  0.00    -0.198 F 
ATOM     10  C   UNL     1       9.263  -1.073  23.342  0.00  0.00    +0.134 A 
ENDROOT
BRANCH   1  11
ATOM     11  C   UNL     1       8.189  -2.687  24.860  0.00  0.00    +0.156 C 
BRANCH  11  12
ATOM     12  CA  UNL     1       8.967  -3.971  24.504  0.00  0.00    +0.181 C 
BRANCH  12  13
ATOM     13  N   UNL     1       8.253  -4.938  23.613  0.00  0.00    -0.317 NA
ATOM     14  H1  UNL     1       8.950  -5.381  23.003  0.00  0.00    +0.119 HD
ATOM     15  H2  UNL     1       7.961  -5.733  24.195  0.00  0.00    +0.119 HD
ENDBRANCH  12  13
BRANCH  12  16
ATOM     16  C   UNL     1       9.420  -4.720  25.764  0.00  0.00    +0.323 C 
ATOM     17  OXT UNL     1       9.043  -4.489  26.901  0.00  0.00    -0.249 OA
BRANCH  16  18
ATOM     18  O   UNL     1      10.348  -5.667  25.461  0.00  0.00    -0.479 OA
ATOM     19  H   UNL     1      10.218  -5.884  24.503  0.00  0.00    +0.295 HD
ENDBRANCH  16  18
ENDBRANCH  12  16
ENDBRANCH  11  12
ENDBRANCH   1  11
TORSDOF 5
ENDMDL
MODEL 2
REMARK VINA RESULT:      -5.5      2.344      2.907
REMARK  Name = 
REMARK  5 active torsions:
REMARK  status: ('A' for Active; 'I' for Inactive)
REMARK    1  A    between atoms: N_1  and  CA_2
REMARK    2  A    between atoms: CA_2  and  C_4
REMARK    3  A    between atoms: CA_2  and  C_14
REMARK    4  A    between atoms: C_4  and  N_5
REMARK    5  A    between atoms: C_14  and  O_15
REMARK                            x       y       z     vdW  Elec       q    Type
REMARK                         _______ _______ _______ _____ _____    ______ ____
ROOT
ATOM      1  N   UNL     1       8.703  -3.005  23.631  0.00  0.00    -0.296 N 
ATOM      2  C   UNL     1       8.108  -2.677  22.417  0.00  0.00    +0.330 A 
ATOM      3  O   UNL     1       7.231  -3.356  21.887  0.00  0.00    -0.246 OA
ATOM      4  N   UNL     1       8.523  -1.501  21.846  0.00  0.00    -0.273 N 
ATOM      5  H   UNL     1       8.087  -1.236  20.978  0.00  0.00    +0.174 HD
ATOM      6  C   UNL     1       9.409  -0.605  22.388  0.00  0.00    +0.289 A 
ATOM      7  O   UNL     1       9.664   0.465  21.848  0.00  0.00    -0.265 OA
ATOM      8  C   UNL     1      10.012  -1.024  23.665  0.00  0.00    +0.204 A 
ATOM      9  F   UNL     1      10.922  -0.206  24.225  0.00  0.00    -0.198 F 
ATOM     10  C   UNL     1       9.647  -2.181  24.221  0.00  0.00    +0.134 A 
ENDROOT
BRANCH   1  11
ATOM     11  C   UNL     1       8.339  -4.265  24.297  0.00  0.00    +0.156 C 
BRANCH  11  12
ATOM     12  CA  UNL     1       8.998  -4.499  25.673  0.00  0.00    +0.181 C 
BRANCH  12  13
ATOM     13  N   UNL     1       9.965  -5.638  25.746  0.00  0.00    -0.317 NA
ATOM     14  H1  UNL     1       9.588  -6.410  25.181  0.00  0.00    +0.119 HD
ATOM     15  H2  UNL     1      10.792  -5.374  25.196  0.00  0.00    +0.119 HD
ENDBRANCH  12  13
BRANCH  12  16
ATOM     16  C   UNL     1       7.946  -4.686  26.774  0.00  0.00    +0.323 C 
ATOM     17  OXT UNL     1       7.094  -3.871  27.089  0.00  0.00    -0.249 OA
BRANCH  16  18
ATOM     18  O   UNL     1       8.107  -5.881  27.403  0.00  0.00    -0.479 OA
ATOM     19  H   UNL     1       7.785  -5.750  28.331  0.00  0.00    +0.295 HD
ENDBRANCH  16  18
ENDBRANCH  12  16
ENDBRANCH  11  12
ENDBRANCH   1  11
TORSDOF 5
ENDMDL
MODEL 3
REMARK VINA RESULT:      -5.4      3.516      5.799
REMARK  Name = 
REMARK  5 active torsions:
REMARK  status: ('A' for Active; 'I' for Inactive)
REMARK    1  A    between atoms: N_1  and  CA_2
REMARK    2  A    between atoms: CA_2  and  C_4
REMARK    3  A    between atoms: CA_2  and  C_14
REMARK    4  A    between atoms: C_4  and  N_5
REMARK    5  A    between atoms: C_14  and  O_15
REMARK                            x       y       z     vdW  Elec       q    Type
REMARK                         _______ _______ _______ _____ _____    ______ ____
ROOT
ATOM      1  N   UNL     1       7.710  -4.433  24.628  0.00  0.00    -0.296 N 
ATOM      2  C   UNL     1       8.797  -5.018  25.269  0.00  0.00    +0.330 A 
ATOM      3  O   UNL     1       9.944  -4.977  24.829  0.00  0.00    -0.246 OA
ATOM      4  N   UNL     1       8.530  -5.620  26.472  0.00  0.00    -0.273 N 
ATOM      5  H   UNL     1       9.309  -6.029  26.961  0.00  0.00    +0.174 HD
ATOM      6  C   UNL     1       7.320  -5.637  27.118  0.00  0.00    +0.289 A 
ATOM      7  O   UNL     1       7.185  -6.127  28.233  0.00  0.00    -0.265 OA
ATOM      8  C   UNL     1       6.211  -5.015  26.376  0.00  0.00    +0.204 A 
ATOM      9  F   UNL     1       4.989  -5.039  26.939  0.00  0.00    -0.198 F 
ATOM     10  C   UNL     1       6.443  -4.454  25.187  0.00  0.00    +0.134 A 
ENDROOT
BRANCH   1  11
ATOM     11  C   UNL     1       7.901  -3.794  23.317  0.00  0.00    +0.156 C 
BRANCH  11  12
ATOM     12  CA  UNL     1       8.149  -2.271  23.354  0.00  0.00    +0.181 C 
BRANCH  12  13
ATOM     13  N   UNL     1       7.027  -1.418  22.854  0.00  0.00    -0.317 NA
ATOM     14  H1  UNL     1       7.310  -1.019  21.950  0.00  0.00    +0.119 HD
ATOM     15  H2  UNL     1       6.267  -2.048  22.565  0.00  0.00    +0.119 HD
ENDBRANCH  12  13
BRANCH  12  16
ATOM     16  C   UNL     1       9.423  -1.891  22.588  0.00  0.00    +0.323 C 
ATOM     17  OXT UNL     1       9.480  -1.129  21.638  0.00  0.00    -0.249 OA
BRANCH  16  18
ATOM     18  O   UNL     1      10.503  -2.557  23.079  0.00  0.00    -0.479 OA
ATOM     19  H   UNL     1      10.957  -1.927  23.695  0.00  0.00    +0.295 HD
ENDBRANCH  16  18
ENDBRANCH  12  16
ENDBRANCH  11  12
ENDBRANCH   1  11
TORSDOF 5
ENDMDL
MODEL 4
REMARK VINA RESULT:      -5.3      3.223      3.793
REMARK  Name = 
REMARK  5 active torsions:
REMARK  status: ('A' for Active; 'I' for Inactive)
REMARK    1  A    between atoms: N_1  and  CA_2
REMARK    2  A    between atoms: CA_2  and  C_4
REMARK    3  A    between atoms: CA_2  and  C_14
REMARK    4  A    between atoms: C_4  and  N_5
REMARK    5  A    between atoms: C_14  and  O_15
REMARK                            x       y       z     vdW  Elec       q    Type
REMARK                         _______ _______ _______ _____ _____    ______ ____
ROOT
ATOM      1  N   UNL     1       8.140  -3.182  23.220  0.00  0.00    -0.296 N 
ATOM      2  C   UNL     1       9.300  -3.218  23.987  0.00  0.00    +0.330 A 
ATOM      3  O   UNL     1       9.709  -4.232  24.548  0.00  0.00    -0.246 OA
ATOM      4  N   UNL     1      10.011  -2.047  24.051  0.00  0.00    -0.273 N 
ATOM      5  H   UNL     1      10.866  -2.060  24.584  0.00  0.00    +0.174 HD
ATOM      6  C   UNL     1       9.720  -0.884  23.385  0.00  0.00    +0.289 A 
ATOM      7  O   UNL     1      10.456   0.095  23.432  0.00  0.00    -0.265 OA
ATOM      8  C   UNL     1       8.470  -0.912  22.605  0.00  0.00    +0.204 A 
ATOM      9  F   UNL     1       8.109   0.214  21.964  0.00  0.00    -0.198 F 
ATOM     10  C   UNL     1       7.745  -2.031  22.558  0.00  0.00    +0.134 A 
ENDROOT
BRANCH   1  11
ATOM     11  C   UNL     1       7.299  -4.385  23.124  0.00  0.00    +0.156 C 
BRANCH  11  12
ATOM     12  CA  UNL     1       6.187  -4.329  22.055  0.00  0.00    +0.181 C 
BRANCH  12  13
ATOM     13  N   UNL     1       4.806  -4.068  22.567  0.00  0.00    -0.317 NA
ATOM     14  H1  UNL     1       4.183  -3.954  21.757  0.00  0.00    +0.119 HD
ATOM     15  H2  UNL     1       4.455  -4.948  22.966  0.00  0.00    +0.119 HD
ENDBRANCH  12  13
BRANCH  12  16
ATOM     16  C   UNL     1       6.155  -5.610  21.211  0.00  0.00    +0.323 C 
ATOM     17  OXT UNL     1       5.991  -5.661  20.003  0.00  0.00    -0.249 OA
BRANCH  16  18
ATOM     18  O   UNL     1       6.291  -6.713  21.995  0.00  0.00    -0.479 OA
ATOM     19  H   UNL     1       6.349  -6.383  22.928  0.00  0.00    +0.295 HD
ENDBRANCH  16  18
ENDBRANCH  12  16
ENDBRANCH  11  12
ENDBRANCH   1  11
TORSDOF 5
ENDMDL
MODEL 5
REMARK VINA RESULT:      -5.2      2.940      5.705
REMARK  Name = 
REMARK  5 active torsions:
REMARK  status: ('A' for Active; 'I' for Inactive)
REMARK    1  A    between atoms: N_1  and  CA_2
REMARK    2  A    between atoms: CA_2  and  C_4
REMARK    3  A    between atoms: CA_2  and  C_14
REMARK    4  A    between atoms: C_4  and  N_5
REMARK    5  A    between atoms: C_14  and  O_15
REMARK                            x       y       z     vdW  Elec       q    Type
REMARK                         _______ _______ _______ _____ _____    ______ ____
ROOT
ATOM      1  N   UNL     1       7.946  -2.201  23.410  0.00  0.00    -0.296 N 
ATOM      2  C   UNL     1       8.688  -3.336  23.720  0.00  0.00    +0.330 A 
ATOM      3  O   UNL     1       9.852  -3.297  24.112  0.00  0.00    -0.246 OA
ATOM      4  N   UNL     1       8.027  -4.532  23.609  0.00  0.00    -0.273 N 
ATOM      5  H   UNL     1       8.542  -5.363  23.851  0.00  0.00    +0.174 HD
ATOM      6  C   UNL     1       6.704  -4.700  23.289  0.00  0.00    +0.289 A 
ATOM      7  O   UNL     1       6.168  -5.802  23.291  0.00  0.00    -0.265 OA
ATOM      8  C   UNL     1       5.983  -3.459  22.957  0.00  0.00    +0.204 A 
ATOM      9  F   UNL     1       4.692  -3.563  22.592  0.00  0.00    -0.198 F 
ATOM     10  C   UNL     1       6.618  -2.287  23.025  0.00  0.00    +0.134 A 
ENDROOT
BRANCH   1  11
ATOM     11  C   UNL     1       8.587  -0.879  23.471  0.00  0.00    +0.156 C 
BRANCH  11  12
ATOM     12  CA  UNL     1       9.181  -0.371  22.140  0.00  0.00    +0.181 C 
BRANCH  12  13
ATOM     13  N   UNL     1      10.121  -1.306  21.449  0.00  0.00    -0.317 NA
ATOM     14  H1  UNL     1      10.178  -1.026  20.461  0.00  0.00    +0.119 HD
ATOM     15  H2  UNL     1      11.070  -1.084  21.775  0.00  0.00    +0.119 HD
ENDBRANCH  12  13
BRANCH  12  16
ATOM     16  C   UNL     1       9.887   0.979  22.320  0.00  0.00    +0.323 C 
ATOM     17  OXT UNL     1      10.587   1.294  23.268  0.00  0.00    -0.249 OA
BRANCH  16  18
ATOM     18  O   UNL     1       9.599   1.821  21.291  0.00  0.00    -0.479 OA
ATOM     19  H   UNL     1      10.113   1.490  20.511  0.00  0.00    +0.295 HD
ENDBRANCH  16  18
ENDBRANCH  12  16
ENDBRANCH  11  12
ENDBRANCH   1  11
TORSDOF 5
ENDMDL
MODEL 6
REMARK VINA RESULT:      -5.2      2.582      5.740
REMARK  Name = 
REMARK  5 active torsions:
REMARK  status: ('A' for Active; 'I' for Inactive)
REMARK    1  A    between atoms: N_1  and  CA_2
REMARK    2  A    between atoms: CA_2  and  C_4
REMARK    3  A    between atoms: CA_2  and  C_14
REMARK    4  A    between atoms: C_4  and  N_5
REMARK    5  A    between atoms: C_14  and  O_15
REMARK                            x       y       z     vdW  Elec       q    Type
REMARK                         _______ _______ _______ _____ _____    ______ ____
ROOT
ATOM      1  N   UNL     1       9.932  -0.602  24.163  0.00  0.00    -0.296 N 
ATOM      2  C   UNL     1      10.019  -1.749  23.381  0.00  0.00    +0.330 A 
ATOM      3  O   UNL     1      10.673  -1.812  22.343  0.00  0.00    -0.246 OA
ATOM      4  N   UNL     1       9.360  -2.852  23.862  0.00  0.00    -0.273 N 
ATOM      5  H   UNL     1       9.431  -3.698  23.321  0.00  0.00    +0.174 HD
ATOM      6  C   UNL     1       8.691  -2.939  25.056  0.00  0.00    +0.289 A 
ATOM      7  O   UNL     1       8.199  -3.990  25.450  0.00  0.00    -0.265 OA
ATOM      8  C   UNL     1       8.625  -1.684  25.824  0.00  0.00    +0.204 A 
ATOM      9  F   UNL     1       7.944  -1.696  26.984  0.00  0.00    -0.198 F 
ATOM     10  C   UNL     1       9.230  -0.590  25.357  0.00  0.00    +0.134 A 
ENDROOT
BRANCH   1  11
ATOM     11  C   UNL     1      10.582   0.636  23.705  0.00  0.00    +0.156 C 
BRANCH  11  12
ATOM     12  CA  UNL     1       9.650   1.655  23.016  0.00  0.00    +0.181 C 
BRANCH  12  13
ATOM     13  N   UNL     1      10.020   2.033  21.617  0.00  0.00    -0.317 NA
ATOM     14  H1  UNL     1      10.935   2.500  21.647  0.00  0.00    +0.119 HD
ATOM     15  H2  UNL     1      10.255   1.166  21.117  0.00  0.00    +0.119 HD
ENDBRANCH  12  13
BRANCH  12  16
ATOM     16  C   UNL     1       9.514   2.940  23.844  0.00  0.00    +0.323 C 
ATOM     17  OXT UNL     1       8.881   3.054  24.880  0.00  0.00    -0.249 OA
BRANCH  16  18
ATOM     18  O   UNL     1      10.165   3.975  23.247  0.00  0.00    -0.479 OA
ATOM     19  H   UNL     1      10.364   4.626  23.966  0.00  0.00    +0.295 HD
ENDBRANCH  16  18
ENDBRANCH  12  16
ENDBRANCH  11  12
ENDBRANCH   1  11
TORSDOF 5
ENDMDL
MODEL 7
REMARK VINA RESULT:      -5.1      2.580      2.889
REMARK  Name = 
REMARK  5 active torsions:
REMARK  status: ('A' for Active; 'I' for Inactive)
REMARK    1  A    between atoms: N_1  and  CA_2
REMARK    2  A    between atoms: CA_2  and  C_4
REMARK    3  A    between atoms: CA_2  and  C_14
REMARK    4  A    between atoms: C_4  and  N_5
REMARK    5  A    between atoms: C_14  and  O_15
REMARK                            x       y       z     vdW  Elec       q    Type
REMARK                         _______ _______ _______ _____ _____    ______ ____
ROOT
ATOM      1  N   UNL     1       8.368  -2.730  23.750  0.00  0.00    -0.296 N 
ATOM      2  C   UNL     1       9.471  -1.997  23.323  0.00  0.00    +0.330 A 
ATOM      3  O   UNL     1      10.542  -2.509  23.007  0.00  0.00    -0.246 OA
ATOM      4  N   UNL     1       9.286  -0.642  23.223  0.00  0.00    -0.273 N 
ATOM      5  H   UNL     1      10.067  -0.097  22.894  0.00  0.00    +0.174 HD
ATOM      6  C   UNL     1       8.113   0.034  23.441  0.00  0.00    +0.289 A 
ATOM      7  O   UNL     1       8.012   1.240  23.249  0.00  0.00    -0.265 OA
ATOM      8  C   UNL     1       6.992  -0.801  23.906  0.00  0.00    +0.204 A 
ATOM      9  F   UNL     1       5.826  -0.187  24.178  0.00  0.00    -0.198 F 
ATOM     10  C   UNL     1       7.161  -2.118  24.042  0.00  0.00    +0.134 A 
ENDROOT
BRANCH   1  11
ATOM     11  C   UNL     1       8.488  -4.187  23.916  0.00  0.00    +0.156 C 
BRANCH  11  12
ATOM     12  CA  UNL     1       8.905  -4.658  25.325  0.00  0.00    +0.181 C 
BRANCH  12  13
ATOM     13  N   UNL     1      10.076  -5.587  25.379  0.00  0.00    -0.317 NA
ATOM     14  H1  UNL     1       9.939  -6.225  26.173  0.00  0.00    +0.119 HD
ATOM     15  H2  UNL     1       9.991  -6.235  24.585  0.00  0.00    +0.119 HD
ENDBRANCH  12  13
BRANCH  12  16
ATOM     16  C   UNL     1       7.734  -5.314  26.067  0.00  0.00    +0.323 C 
ATOM     17  OXT UNL     1       6.558  -5.230  25.753  0.00  0.00    -0.249 OA
BRANCH  16  18
ATOM     18  O   UNL     1       8.167  -5.983  27.169  0.00  0.00    -0.479 OA
ATOM     19  H   UNL     1       7.415  -5.968  27.814  0.00  0.00    +0.295 HD
ENDBRANCH  16  18
ENDBRANCH  12  16
ENDBRANCH  11  12
ENDBRANCH   1  11
TORSDOF 5
ENDMDL
MODEL 8
REMARK VINA RESULT:      -5.1      2.976      5.782
REMARK  Name = 
REMARK  5 active torsions:
REMARK  status: ('A' for Active; 'I' for Inactive)
REMARK    1  A    between atoms: N_1  and  CA_2
REMARK    2  A    between atoms: CA_2  and  C_4
REMARK    3  A    between atoms: CA_2  and  C_14
REMARK    4  A    between atoms: C_4  and  N_5
REMARK    5  A    between atoms: C_14  and  O_15
REMARK                            x       y       z     vdW  Elec       q    Type
REMARK                         _______ _______ _______ _____ _____    ______ ____
ROOT
ATOM      1  N   UNL     1       9.748  -0.749  23.738  0.00  0.00    -0.296 N 
ATOM      2  C   UNL     1       9.458  -1.005  22.402  0.00  0.00    +0.330 A 
ATOM      3  O   UNL     1       9.920  -0.349  21.471  0.00  0.00    -0.246 OA
ATOM      4  N   UNL     1       8.647  -2.085  22.162  0.00  0.00    -0.273 N 
ATOM      5  H   UNL     1       8.444  -2.299  21.199  0.00  0.00    +0.174 HD
ATOM      6  C   UNL     1       8.159  -2.956  23.102  0.00  0.00    +0.289 A 
ATOM      7  O   UNL     1       7.507  -3.947  22.795  0.00  0.00    -0.265 OA
ATOM      8  C   UNL     1       8.491  -2.616  24.497  0.00  0.00    +0.204 A 
ATOM      9  F   UNL     1       8.005  -3.410  25.467  0.00  0.00    -0.198 F 
ATOM     10  C   UNL     1       9.251  -1.549  24.753  0.00  0.00    +0.134 A 
ENDROOT
BRANCH   1  11
ATOM     11  C   UNL     1      10.585   0.410  24.087  0.00  0.00    +0.156 C 
BRANCH  11  12
ATOM     12  CA  UNL     1       9.875   1.779  24.025  0.00  0.00    +0.181 C 
BRANCH  12  13
ATOM     13  N   UNL     1       8.424   1.743  23.662  0.00  0.00    -0.317 NA
ATOM     14  H1  UNL     1       8.346   1.911  22.651  0.00  0.00    +0.119 HD
ATOM     15  H2  UNL     1       8.116   0.765  23.727  0.00  0.00    +0.119 HD
ENDBRANCH  12  13
BRANCH  12  16
ATOM     16  C   UNL     1      10.590   2.738  23.064  0.00  0.00    +0.323 C 
ATOM     17  OXT UNL     1      11.329   3.652  23.391  0.00  0.00    -0.249 OA
BRANCH  16  18
ATOM     18  O   UNL     1      10.258   2.470  21.772  0.00  0.00    -0.479 OA
ATOM     19  H   UNL     1      10.063   1.499  21.734  0.00  0.00    +0.295 HD
ENDBRANCH  16  18
ENDBRANCH  12  16
ENDBRANCH  11  12
ENDBRANCH   1  11
TORSDOF 5
ENDMDL
MODEL 9
REMARK VINA RESULT:      -5.0      1.483      1.744
REMARK  Name = 
REMARK  5 active torsions:
REMARK  status: ('A' for Active; 'I' for Inactive)
REMARK    1  A    between atoms: N_1  and  CA_2
REMARK    2  A    between atoms: CA_2  and  C_4
REMARK    3  A    between atoms: CA_2  and  C_14
REMARK    4  A    between atoms: C_4  and  N_5
REMARK    5  A    between atoms: C_14  and  O_15
REMARK                            x       y       z     vdW  Elec       q    Type
REMARK                         _______ _______ _______ _____ _____    ______ ____
ROOT
ATOM      1  N   UNL     1       9.712  -0.914  24.094  0.00  0.00    -0.296 N 
ATOM      2  C   UNL     1       9.460  -0.184  25.251  0.00  0.00    +0.330 A 
ATOM      3  O   UNL     1       9.245  -0.703  26.344  0.00  0.00    -0.246 OA
ATOM      4  N   UNL     1       9.510   1.180  25.121  0.00  0.00    -0.273 N 
ATOM      5  H   UNL     1       9.352   1.725  25.953  0.00  0.00    +0.174 HD
ATOM      6  C   UNL     1       9.845   1.874  23.986  0.00  0.00    +0.289 A 
ATOM      7  O   UNL     1       9.947   3.095  23.977  0.00  0.00    -0.265 OA
ATOM      8  C   UNL     1      10.083   1.040  22.796  0.00  0.00    +0.204 A 
ATOM      9  F   UNL     1      10.374   1.666  21.641  0.00  0.00    -0.198 F 
ATOM     10  C   UNL     1      10.006  -0.289  22.893  0.00  0.00    +0.134 A 
ENDROOT
BRANCH   1  11
ATOM     11  C   UNL     1       9.646  -2.383  24.136  0.00  0.00    +0.156 C 
BRANCH  11  12
ATOM     12  CA  UNL     1       8.252  -2.989  23.872  0.00  0.00    +0.181 C 
BRANCH  12  13
ATOM     13  N   UNL     1       7.166  -2.550  24.802  0.00  0.00    -0.317 NA
ATOM     14  H1  UNL     1       7.519  -2.633  25.764  0.00  0.00    +0.119 HD
ATOM     15  H2  UNL     1       7.076  -1.530  24.709  0.00  0.00    +0.119 HD
ENDBRANCH  12  13
BRANCH  12  16
ATOM     16  C   UNL     1       8.298  -4.523  23.873  0.00  0.00    +0.323 C 
ATOM     17  OXT UNL     1       7.462  -5.259  23.375  0.00  0.00    -0.249 OA
BRANCH  16  18
ATOM     18  O   UNL     1       9.386  -4.977  24.550  0.00  0.00    -0.479 OA
ATOM     19  H   UNL     1      10.151  -4.427  24.243  0.00  0.00    +0.295 HD
ENDBRANCH  16  18
ENDBRANCH  12  16
ENDBRANCH  11  12
ENDBRANCH   1  11
TORSDOF 5
ENDMDL
