MODEL 1
REMARK VINA RESULT:      -6.4      0.000      0.000
REMARK  Name = 
REMARK  8 active torsions:
REMARK  status: ('A' for Active; 'I' for Inactive)
REMARK    1  A    between atoms: C_1  and  C_2
REMARK    2  A    between atoms: C_2  and  C_3
REMARK    3  A    between atoms: C_2  and  N_21
REMARK    4  A    between atoms: C_3  and  N_4
REMARK    5  A    between atoms: C_15  and  C_18
REMARK    6  A    between atoms: C_18  and  C_19
REMARK    7  A    between atoms: N_21  and  C_22
REMARK    8  A    between atoms: N_21  and  C_23
REMARK                            x       y       z     vdW  Elec       q    Type
REMARK                         _______ _______ _______ _____ _____    ______ ____
ROOT
ATOM      1  N   UNL     1       8.613  -0.982  25.117  0.00  0.00    -0.297 N 
ATOM      2  C   UNL     1       8.234  -2.330  24.821  0.00  0.00    +0.049 A 
ATOM      3  C   UNL     1       7.825  -3.247  25.818  0.00  0.00    +0.036 A 
ATOM      4  C   UNL     1       7.421  -4.566  25.529  0.00  0.00    +0.019 A 
ATOM      5  C   UNL     1       7.515  -5.043  24.230  0.00  0.00    +0.012 A 
ATOM      6  C   UNL     1       7.930  -4.177  23.225  0.00  0.00    +0.017 A 
ATOM      7  C   UNL     1       8.254  -2.833  23.504  0.00  0.00    +0.034 A 
ATOM      8  S   UNL     1       8.613  -1.849  22.073  0.00  0.00    -0.086 S 
ATOM      9  C   UNL     1       9.192  -0.335  22.793  0.00  0.00    +0.034 A 
ATOM     10  C   UNL     1       9.671   0.613  21.862  0.00  0.00    +0.017 A 
ATOM     11  C   UNL     1      10.205   1.823  22.279  0.00  0.00    +0.001 A 
ATOM     12  C   UNL     1      10.314   2.069  23.634  0.00  0.00    +0.002 A 
ATOM     13  C   UNL     1       9.836   1.131  24.560  0.00  0.00    +0.024 A 
ATOM     14  C   UNL     1       9.200  -0.074  24.179  0.00  0.00    +0.048 A 
ENDROOT
BRANCH   4  15
ATOM     15  C   UNL     1       6.890  -5.405  26.642  0.00  0.00    +0.160 C 
ATOM     16  O   UNL     1       7.593  -5.623  27.626  0.00  0.00    -0.292 OA
ATOM     17  C   UNL     1       5.476  -5.938  26.564  0.00  0.00    +0.091 C 
ENDBRANCH   4  15
BRANCH   1  18
ATOM     18  C   UNL     1       8.429  -0.508  26.522  0.00  0.00    +0.129 C 
BRANCH  18  20
ATOM     19  C   UNL     1       7.073   0.751  28.278  0.00  0.00    +0.026 C 
ATOM     20  C   UNL     1       7.267   0.523  26.767  0.00  0.00    +0.071 C 
BRANCH  20  21
ATOM     21  N   UNL     1       5.979   0.070  26.136  0.00  0.00    -0.304 NA
ATOM     22  C   UNL     1       5.561   0.933  25.022  0.00  0.00    +0.104 C 
ATOM     23  C   UNL     1       4.879   0.001  27.106  0.00  0.00    +0.104 C 
ENDBRANCH  20  21
ENDBRANCH  18  20
ENDBRANCH   1  18
TORSDOF 4
ENDMDL
MODEL 2
REMARK VINA RESULT:      -5.8      2.424      5.576
REMARK  Name = 
REMARK  8 active torsions:
REMARK  status: ('A' for Active; 'I' for Inactive)
REMARK    1  A    between atoms: C_1  and  C_2
REMARK    2  A    between atoms: C_2  and  C_3
REMARK    3  A    between atoms: C_2  and  N_21
REMARK    4  A    between atoms: C_3  and  N_4
REMARK    5  A    between atoms: C_15  and  C_18
REMARK    6  A    between atoms: C_18  and  C_19
REMARK    7  A    between atoms: N_21  and  C_22
REMARK    8  A    between atoms: N_21  and  C_23
REMARK                            x       y       z     vdW  Elec       q    Type
REMARK                         _______ _______ _______ _____ _____    ______ ____
ROOT
ATOM      1  N   UNL     1       8.396  -0.889  25.054  0.00  0.00    -0.297 N 
ATOM      2  C   UNL     1       8.923  -0.051  24.020  0.00  0.00    +0.049 A 
ATOM      3  C   UNL     1       9.282   1.300  24.238  0.00  0.00    +0.036 A 
ATOM      4  C   UNL     1       9.831   2.121  23.232  0.00  0.00    +0.019 A 
ATOM      5  C   UNL     1       9.941   1.637  21.936  0.00  0.00    +0.012 A 
ATOM      6  C   UNL     1       9.582   0.319  21.679  0.00  0.00    +0.017 A 
ATOM      7  C   UNL     1       9.111  -0.526  22.706  0.00  0.00    +0.034 A 
ATOM      8  S   UNL     1       8.850  -2.210  22.214  0.00  0.00    -0.086 S 
ATOM      9  C   UNL     1       8.057  -2.901  23.643  0.00  0.00    +0.034 A 
ATOM     10  C   UNL     1       7.618  -4.233  23.484  0.00  0.00    +0.017 A 
ATOM     11  C   UNL     1       6.934  -4.890  24.497  0.00  0.00    +0.001 A 
ATOM     12  C   UNL     1       6.636  -4.197  25.654  0.00  0.00    +0.002 A 
ATOM     13  C   UNL     1       7.074  -2.874  25.815  0.00  0.00    +0.024 A 
ATOM     14  C   UNL     1       7.854  -2.198  24.848  0.00  0.00    +0.048 A 
ENDROOT
BRANCH   4  15
ATOM     15  C   UNL     1      10.289   3.490  23.604  0.00  0.00    +0.160 C 
ATOM     16  O   UNL     1      11.462   3.807  23.423  0.00  0.00    -0.292 OA
ATOM     17  C   UNL     1       9.292   4.485  24.156  0.00  0.00    +0.091 C 
ENDBRANCH   4  15
BRANCH   1  18
ATOM     18  C   UNL     1       8.361  -0.332  26.440  0.00  0.00    +0.129 C 
BRANCH  18  20
ATOM     19  C   UNL     1       7.022   0.860  28.254  0.00  0.00    +0.026 C 
ATOM     20  C   UNL     1       7.252   0.742  26.736  0.00  0.00    +0.071 C 
BRANCH  20  21
ATOM     21  N   UNL     1       5.961   0.416  26.036  0.00  0.00    -0.304 NA
ATOM     22  C   UNL     1       5.556   1.458  25.082  0.00  0.00    +0.104 C 
ATOM     23  C   UNL     1       4.856   0.197  26.978  0.00  0.00    +0.104 C 
ENDBRANCH  20  21
ENDBRANCH  18  20
ENDBRANCH   1  18
TORSDOF 4
ENDMDL
MODEL 3
REMARK VINA RESULT:      -5.7      1.415      2.014
REMARK  Name = 
REMARK  8 active torsions:
REMARK  status: ('A' for Active; 'I' for Inactive)
REMARK    1  A    between atoms: C_1  and  C_2
REMARK    2  A    between atoms: C_2  and  C_3
REMARK    3  A    between atoms: C_2  and  N_21
REMARK    4  A    between atoms: C_3  and  N_4
REMARK    5  A    between atoms: C_15  and  C_18
REMARK    6  A    between atoms: C_18  and  C_19
REMARK    7  A    between atoms: N_21  and  C_22
REMARK    8  A    between atoms: N_21  and  C_23
REMARK                            x       y       z     vdW  Elec       q    Type
REMARK                         _______ _______ _______ _____ _____    ______ ____
ROOT
ATOM      1  N   UNL     1       7.992   0.083  25.273  0.00  0.00    -0.297 N 
ATOM      2  C   UNL     1       8.415  -1.272  25.092  0.00  0.00    +0.049 A 
ATOM      3  C   UNL     1       7.829  -2.356  25.788  0.00  0.00    +0.036 A 
ATOM      4  C   UNL     1       8.220  -3.696  25.592  0.00  0.00    +0.019 A 
ATOM      5  C   UNL     1       9.292  -3.983  24.759  0.00  0.00    +0.012 A 
ATOM      6  C   UNL     1       9.904  -2.942  24.070  0.00  0.00    +0.017 A 
ATOM      7  C   UNL     1       9.457  -1.611  24.206  0.00  0.00    +0.034 A 
ATOM      8  S   UNL     1      10.263  -0.450  23.135  0.00  0.00    -0.086 S 
ATOM      9  C   UNL     1       9.643   1.103  23.727  0.00  0.00    +0.034 A 
ATOM     10  C   UNL     1      10.221   2.238  23.118  0.00  0.00    +0.017 A 
ATOM     11  C   UNL     1       9.875   3.521  23.515  0.00  0.00    +0.001 A 
ATOM     12  C   UNL     1       8.988   3.676  24.563  0.00  0.00    +0.002 A 
ATOM     13  C   UNL     1       8.410   2.549  25.167  0.00  0.00    +0.024 A 
ATOM     14  C   UNL     1       8.662   1.227  24.733  0.00  0.00    +0.048 A 
ENDROOT
BRANCH   4  15
ATOM     15  C   UNL     1       7.451  -4.769  26.285  0.00  0.00    +0.160 C 
ATOM     16  O   UNL     1       7.740  -5.073  27.439  0.00  0.00    -0.292 OA
ATOM     17  C   UNL     1       6.293  -5.435  25.573  0.00  0.00    +0.091 C 
ENDBRANCH   4  15
BRANCH   1  18
ATOM     18  C   UNL     1       6.793   0.321  26.132  0.00  0.00    +0.129 C 
BRANCH  18  20
ATOM     19  C   UNL     1       4.986   1.703  24.978  0.00  0.00    +0.026 C 
ATOM     20  C   UNL     1       5.396   0.283  25.412  0.00  0.00    +0.071 C 
BRANCH  20  21
ATOM     21  N   UNL     1       4.335  -0.323  26.289  0.00  0.00    -0.304 NA
ATOM     22  C   UNL     1       4.452   0.098  27.692  0.00  0.00    +0.104 C 
ATOM     23  C   UNL     1       4.347  -1.790  26.243  0.00  0.00    +0.104 C 
ENDBRANCH  20  21
ENDBRANCH  18  20
ENDBRANCH   1  18
TORSDOF 4
ENDMDL
MODEL 4
REMARK VINA RESULT:      -5.7      1.518      2.044
REMARK  Name = 
REMARK  8 active torsions:
REMARK  status: ('A' for Active; 'I' for Inactive)
REMARK    1  A    between atoms: C_1  and  C_2
REMARK    2  A    between atoms: C_2  and  C_3
REMARK    3  A    between atoms: C_2  and  N_21
REMARK    4  A    between atoms: C_3  and  N_4
REMARK    5  A    between atoms: C_15  and  C_18
REMARK    6  A    between atoms: C_18  and  C_19
REMARK    7  A    between atoms: N_21  and  C_22
REMARK    8  A    between atoms: N_21  and  C_23
REMARK                            x       y       z     vdW  Elec       q    Type
REMARK                         _______ _______ _______ _____ _____    ______ ____
ROOT
ATOM      1  N   UNL     1       7.085  -1.059  24.296  0.00  0.00    -0.297 N 
ATOM      2  C   UNL     1       7.670  -2.247  24.839  0.00  0.00    +0.049 A 
ATOM      3  C   UNL     1       7.077  -2.978  25.895  0.00  0.00    +0.036 A 
ATOM      4  C   UNL     1       7.632  -4.166  26.413  0.00  0.00    +0.019 A 
ATOM      5  C   UNL     1       8.865  -4.605  25.952  0.00  0.00    +0.012 A 
ATOM      6  C   UNL     1       9.487  -3.903  24.926  0.00  0.00    +0.017 A 
ATOM      7  C   UNL     1       8.889  -2.761  24.353  0.00  0.00    +0.034 A 
ATOM      8  S   UNL     1       9.760  -2.094  22.959  0.00  0.00    -0.086 S 
ATOM      9  C   UNL     1       8.885  -0.581  22.656  0.00  0.00    +0.034 A 
ATOM     10  C   UNL     1       9.449   0.232  21.650  0.00  0.00    +0.017 A 
ATOM     11  C   UNL     1       8.906   1.471  21.339  0.00  0.00    +0.001 A 
ATOM     12  C   UNL     1       7.827   1.925  22.072  0.00  0.00    +0.002 A 
ATOM     13  C   UNL     1       7.263   1.116  23.070  0.00  0.00    +0.024 A 
ATOM     14  C   UNL     1       7.725  -0.189  23.357  0.00  0.00    +0.048 A 
ENDROOT
BRANCH   4  15
ATOM     15  C   UNL     1       6.859  -4.922  27.440  0.00  0.00    +0.160 C 
ATOM     16  O   UNL     1       7.334  -5.947  27.923  0.00  0.00    -0.292 OA
ATOM     17  C   UNL     1       5.521  -4.390  27.907  0.00  0.00    +0.091 C 
ENDBRANCH   4  15
BRANCH   1  18
ATOM     18  C   UNL     1       5.728  -0.673  24.788  0.00  0.00    +0.129 C 
BRANCH  18  20
ATOM     19  C   UNL     1       4.728   1.410  25.867  0.00  0.00    +0.026 C 
ATOM     20  C   UNL     1       5.679   0.218  26.082  0.00  0.00    +0.071 C 
BRANCH  20  21
ATOM     21  N   UNL     1       7.047   0.704  26.474  0.00  0.00    -0.304 NA
ATOM     22  C   UNL     1       7.493   0.159  27.764  0.00  0.00    +0.104 C 
ATOM     23  C   UNL     1       7.119   2.169  26.543  0.00  0.00    +0.104 C 
ENDBRANCH  20  21
ENDBRANCH  18  20
ENDBRANCH   1  18
TORSDOF 4
ENDMDL
MODEL 5
REMARK VINA RESULT:      -5.7      2.871      5.884
REMARK  Name = 
REMARK  8 active torsions:
REMARK  status: ('A' for Active; 'I' for Inactive)
REMARK    1  A    between atoms: C_1  and  C_2
REMARK    2  A    between atoms: C_2  and  C_3
REMARK    3  A    between atoms: C_2  and  N_21
REMARK    4  A    between atoms: C_3  and  N_4
REMARK    5  A    between atoms: C_15  and  C_18
REMARK    6  A    between atoms: C_18  and  C_19
REMARK    7  A    between atoms: N_21  and  C_22
REMARK    8  A    between atoms: N_21  and  C_23
REMARK                            x       y       z     vdW  Elec       q    Type
REMARK                         _______ _______ _______ _____ _____    ______ ____
ROOT
ATOM      1  N   UNL     1       6.770  -0.578  23.871  0.00  0.00    -0.297 N 
ATOM      2  C   UNL     1       7.777   0.273  23.312  0.00  0.00    +0.049 A 
ATOM      3  C   UNL     1       7.807   1.670  23.533  0.00  0.00    +0.036 A 
ATOM      4  C   UNL     1       8.813   2.509  23.010  0.00  0.00    +0.019 A 
ATOM      5  C   UNL     1       9.771   1.981  22.157  0.00  0.00    +0.012 A 
ATOM      6  C   UNL     1       9.763   0.614  21.902  0.00  0.00    +0.017 A 
ATOM      7  C   UNL     1       8.805  -0.235  22.492  0.00  0.00    +0.034 A 
ATOM      8  S   UNL     1       9.050  -1.962  22.168  0.00  0.00    -0.086 S 
ATOM      9  C   UNL     1       7.577  -2.685  22.840  0.00  0.00    +0.034 A 
ATOM     10  C   UNL     1       7.446  -4.072  22.611  0.00  0.00    +0.017 A 
ATOM     11  C   UNL     1       6.321  -4.767  23.031  0.00  0.00    +0.001 A 
ATOM     12  C   UNL     1       5.294  -4.066  23.634  0.00  0.00    +0.002 A 
ATOM     13  C   UNL     1       5.424  -2.688  23.865  0.00  0.00    +0.024 A 
ATOM     14  C   UNL     1       6.590  -1.958  23.538  0.00  0.00    +0.048 A 
ENDROOT
BRANCH   4  15
ATOM     15  C   UNL     1       8.817   3.945  23.409  0.00  0.00    +0.160 C 
ATOM     16  O   UNL     1       9.737   4.381  24.098  0.00  0.00    -0.292 OA
ATOM     17  C   UNL     1       7.713   4.858  22.922  0.00  0.00    +0.091 C 
ENDBRANCH   4  15
BRANCH   1  18
ATOM     18  C   UNL     1       5.806   0.037  24.832  0.00  0.00    +0.129 C 
BRANCH  18  20
ATOM     19  C   UNL     1       4.796   0.159  27.171  0.00  0.00    +0.026 C 
ATOM     20  C   UNL     1       6.010  -0.314  26.351  0.00  0.00    +0.071 C 
BRANCH  20  21
ATOM     21  N   UNL     1       7.276   0.289  26.896  0.00  0.00    -0.304 NA
ATOM     22  C   UNL     1       8.379  -0.680  26.967  0.00  0.00    +0.104 C 
ATOM     23  C   UNL     1       7.086   0.872  28.230  0.00  0.00    +0.104 C 
ENDBRANCH  20  21
ENDBRANCH  18  20
ENDBRANCH   1  18
TORSDOF 4
ENDMDL
MODEL 6
REMARK VINA RESULT:      -5.5      2.459      4.455
REMARK  Name = 
REMARK  8 active torsions:
REMARK  status: ('A' for Active; 'I' for Inactive)
REMARK    1  A    between atoms: C_1  and  C_2
REMARK    2  A    between atoms: C_2  and  C_3
REMARK    3  A    between atoms: C_2  and  N_21
REMARK    4  A    between atoms: C_3  and  N_4
REMARK    5  A    between atoms: C_15  and  C_18
REMARK    6  A    between atoms: C_18  and  C_19
REMARK    7  A    between atoms: N_21  and  C_22
REMARK    8  A    between atoms: N_21  and  C_23
REMARK                            x       y       z     vdW  Elec       q    Type
REMARK                         _______ _______ _______ _____ _____    ______ ____
ROOT
ATOM      1  N   UNL     1       6.952  -0.653  23.628  0.00  0.00    -0.297 N 
ATOM      2  C   UNL     1       6.432  -1.982  23.740  0.00  0.00    +0.049 A 
ATOM      3  C   UNL     1       6.838  -3.037  22.891  0.00  0.00    +0.036 A 
ATOM      4  C   UNL     1       6.352  -4.355  23.016  0.00  0.00    +0.019 A 
ATOM      5  C   UNL     1       5.357  -4.633  23.941  0.00  0.00    +0.012 A 
ATOM      6  C   UNL     1       4.919  -3.617  24.782  0.00  0.00    +0.017 A 
ATOM      7  C   UNL     1       5.466  -2.319  24.710  0.00  0.00    +0.034 A 
ATOM      8  S   UNL     1       4.889  -1.204  25.963  0.00  0.00    -0.086 S 
ATOM      9  C   UNL     1       5.578   0.343  25.437  0.00  0.00    +0.034 A 
ATOM     10  C   UNL     1       5.173   1.457  26.204  0.00  0.00    +0.017 A 
ATOM     11  C   UNL     1       5.588   2.741  25.881  0.00  0.00    +0.001 A 
ATOM     12  C   UNL     1       6.365   2.923  24.754  0.00  0.00    +0.002 A 
ATOM     13  C   UNL     1       6.771   1.817  23.992  0.00  0.00    +0.024 A 
ATOM     14  C   UNL     1       6.450   0.484  24.338  0.00  0.00    +0.048 A 
ENDROOT
BRANCH   4  15
ATOM     15  C   UNL     1       6.943  -5.414  22.150  0.00  0.00    +0.160 C 
ATOM     16  O   UNL     1       7.982  -5.972  22.496  0.00  0.00    -0.292 OA
ATOM     17  C   UNL     1       6.229  -5.822  20.879  0.00  0.00    +0.091 C 
ENDBRANCH   4  15
BRANCH   1  18
ATOM     18  C   UNL     1       8.067  -0.430  22.659  0.00  0.00    +0.129 C 
BRANCH  18  20
ATOM     19  C   UNL     1       9.481  -0.975  24.710  0.00  0.00    +0.026 C 
ATOM     20  C   UNL     1       9.527  -0.610  23.216  0.00  0.00    +0.071 C 
BRANCH  20  21
ATOM     21  N   UNL     1      10.358   0.625  23.004  0.00  0.00    -0.304 NA
ATOM     22  C   UNL     1      10.473   1.445  24.218  0.00  0.00    +0.104 C 
ATOM     23  C   UNL     1       9.834   1.471  21.923  0.00  0.00    +0.104 C 
ENDBRANCH  20  21
ENDBRANCH  18  20
ENDBRANCH   1  18
TORSDOF 4
ENDMDL
MODEL 7
REMARK VINA RESULT:      -5.5      2.511      4.301
REMARK  Name = 
REMARK  8 active torsions:
REMARK  status: ('A' for Active; 'I' for Inactive)
REMARK    1  A    between atoms: C_1  and  C_2
REMARK    2  A    between atoms: C_2  and  C_3
REMARK    3  A    between atoms: C_2  and  N_21
REMARK    4  A    between atoms: C_3  and  N_4
REMARK    5  A    between atoms: C_15  and  C_18
REMARK    6  A    between atoms: C_18  and  C_19
REMARK    7  A    between atoms: N_21  and  C_22
REMARK    8  A    between atoms: N_21  and  C_23
REMARK                            x       y       z     vdW  Elec       q    Type
REMARK                         _______ _______ _______ _____ _____    ______ ____
ROOT
ATOM      1  N   UNL     1       7.165   0.283  23.141  0.00  0.00    -0.297 N 
ATOM      2  C   UNL     1       6.604  -0.727  23.987  0.00  0.00    +0.049 A 
ATOM      3  C   UNL     1       6.906  -2.101  23.843  0.00  0.00    +0.036 A 
ATOM      4  C   UNL     1       6.381  -3.096  24.692  0.00  0.00    +0.019 A 
ATOM      5  C   UNL     1       5.446  -2.751  25.657  0.00  0.00    +0.012 A 
ATOM      6  C   UNL     1       5.111  -1.412  25.818  0.00  0.00    +0.017 A 
ATOM      7  C   UNL     1       5.700  -0.408  25.021  0.00  0.00    +0.034 A 
ATOM      8  S   UNL     1       5.260   1.248  25.476  0.00  0.00    -0.086 S 
ATOM      9  C   UNL     1       5.967   2.202  24.158  0.00  0.00    +0.034 A 
ATOM     10  C   UNL     1       5.663   3.580  24.202  0.00  0.00    +0.017 A 
ATOM     11  C   UNL     1       6.101   4.444  23.209  0.00  0.00    +0.001 A 
ATOM     12  C   UNL     1       6.800   3.924  22.137  0.00  0.00    +0.002 A 
ATOM     13  C   UNL     1       7.106   2.555  22.094  0.00  0.00    +0.024 A 
ATOM     14  C   UNL     1       6.761   1.655  23.128  0.00  0.00    +0.048 A 
ENDROOT
BRANCH   4  15
ATOM     15  C   UNL     1       6.865  -4.497  24.528  0.00  0.00    +0.160 C 
ATOM     16  O   UNL     1       6.077  -5.431  24.661  0.00  0.00    -0.292 OA
ATOM     17  C   UNL     1       8.310  -4.748  24.153  0.00  0.00    +0.091 C 
ENDBRANCH   4  15
BRANCH   1  18
ATOM     18  C   UNL     1       8.213  -0.143  22.165  0.00  0.00    +0.129 C 
BRANCH  18  20
ATOM     19  C   UNL     1      10.401  -1.304  22.776  0.00  0.00    +0.026 C 
ATOM     20  C   UNL     1       9.708   0.061  22.608  0.00  0.00    +0.071 C 
BRANCH  20  21
ATOM     21  N   UNL     1       9.807   0.858  23.880  0.00  0.00    -0.304 NA
ATOM     22  C   UNL     1      10.568   2.104  23.709  0.00  0.00    +0.104 C 
ATOM     23  C   UNL     1      10.418   0.090  24.972  0.00  0.00    +0.104 C 
ENDBRANCH  20  21
ENDBRANCH  18  20
ENDBRANCH   1  18
TORSDOF 4
ENDMDL
MODEL 8
REMARK VINA RESULT:      -5.5      2.885      6.829
REMARK  Name = 
REMARK  8 active torsions:
REMARK  status: ('A' for Active; 'I' for Inactive)
REMARK    1  A    between atoms: C_1  and  C_2
REMARK    2  A    between atoms: C_2  and  C_3
REMARK    3  A    between atoms: C_2  and  N_21
REMARK    4  A    between atoms: C_3  and  N_4
REMARK    5  A    between atoms: C_15  and  C_18
REMARK    6  A    between atoms: C_18  and  C_19
REMARK    7  A    between atoms: N_21  and  C_22
REMARK    8  A    between atoms: N_21  and  C_23
REMARK                            x       y       z     vdW  Elec       q    Type
REMARK                         _______ _______ _______ _____ _____    ______ ____
ROOT
ATOM      1  N   UNL     1       7.112  -3.907  25.105  0.00  0.00    -0.297 N 
ATOM      2  C   UNL     1       7.623  -2.595  25.362  0.00  0.00    +0.049 A 
ATOM      3  C   UNL     1       8.707  -2.042  24.641  0.00  0.00    +0.036 A 
ATOM      4  C   UNL     1       9.196  -0.739  24.868  0.00  0.00    +0.019 A 
ATOM      5  C   UNL     1       8.673   0.018  25.906  0.00  0.00    +0.012 A 
ATOM      6  C   UNL     1       7.618  -0.499  26.649  0.00  0.00    +0.017 A 
ATOM      7  C   UNL     1       7.076  -1.770  26.366  0.00  0.00    +0.034 A 
ATOM      8  S   UNL     1       5.641  -2.190  27.319  0.00  0.00    -0.086 S 
ATOM      9  C   UNL     1       5.384  -3.891  26.886  0.00  0.00    +0.034 A 
ATOM     10  C   UNL     1       4.352  -4.531  27.605  0.00  0.00    +0.017 A 
ATOM     11  C   UNL     1       4.070  -5.875  27.413  0.00  0.00    +0.001 A 
ATOM     12  C   UNL     1       4.856  -6.601  26.540  0.00  0.00    +0.002 A 
ATOM     13  C   UNL     1       5.880  -5.966  25.822  0.00  0.00    +0.024 A 
ATOM     14  C   UNL     1       6.142  -4.579  25.916  0.00  0.00    +0.048 A 
ENDROOT
BRANCH   4  15
ATOM     15  C   UNL     1      10.259  -0.212  23.965  0.00  0.00    +0.160 C 
ATOM     16  O   UNL     1      10.546  -0.829  22.941  0.00  0.00    -0.292 OA
ATOM     17  C   UNL     1      10.938   1.099  24.298  0.00  0.00    +0.091 C 
ENDBRANCH   4  15
BRANCH   1  18
ATOM     18  C   UNL     1       7.671  -4.647  23.934  0.00  0.00    +0.129 C 
BRANCH  18  20
ATOM     19  C   UNL     1       5.942  -3.282  22.649  0.00  0.00    +0.026 C 
ATOM     20  C   UNL     1       6.911  -4.475  22.568  0.00  0.00    +0.071 C 
BRANCH  20  21
ATOM     21  N   UNL     1       6.171  -5.727  22.183  0.00  0.00    -0.304 NA
ATOM     22  C   UNL     1       6.192  -5.973  20.734  0.00  0.00    +0.104 C 
ATOM     23  C   UNL     1       4.772  -5.705  22.628  0.00  0.00    +0.104 C 
ENDBRANCH  20  21
ENDBRANCH  18  20
ENDBRANCH   1  18
TORSDOF 4
ENDMDL
MODEL 9
REMARK VINA RESULT:      -5.5      2.971      5.622
REMARK  Name = 
REMARK  8 active torsions:
REMARK  status: ('A' for Active; 'I' for Inactive)
REMARK    1  A    between atoms: C_1  and  C_2
REMARK    2  A    between atoms: C_2  and  C_3
REMARK    3  A    between atoms: C_2  and  N_21
REMARK    4  A    between atoms: C_3  and  N_4
REMARK    5  A    between atoms: C_15  and  C_18
REMARK    6  A    between atoms: C_18  and  C_19
REMARK    7  A    between atoms: N_21  and  C_22
REMARK    8  A    between atoms: N_21  and  C_23
REMARK                            x       y       z     vdW  Elec       q    Type
REMARK                         _______ _______ _______ _____ _____    ______ ____
ROOT
ATOM      1  N   UNL     1       7.025  -1.185  24.488  0.00  0.00    -0.297 N 
ATOM      2  C   UNL     1       7.552  -0.216  23.577  0.00  0.00    +0.049 A 
ATOM      3  C   UNL     1       6.873   0.983  23.257  0.00  0.00    +0.036 A 
ATOM      4  C   UNL     1       7.401   1.956  22.384  0.00  0.00    +0.019 A 
ATOM      5  C   UNL     1       8.592   1.705  21.718  0.00  0.00    +0.012 A 
ATOM      6  C   UNL     1       9.280   0.529  21.993  0.00  0.00    +0.017 A 
ATOM      7  C   UNL     1       8.790  -0.405  22.929  0.00  0.00    +0.034 A 
ATOM      8  S   UNL     1       9.881  -1.764  23.255  0.00  0.00    -0.086 S 
ATOM      9  C   UNL     1       8.873  -2.824  24.260  0.00  0.00    +0.034 A 
ATOM     10  C   UNL     1       9.462  -4.067  24.576  0.00  0.00    +0.017 A 
ATOM     11  C   UNL     1       8.774  -5.022  25.310  0.00  0.00    +0.001 A 
ATOM     12  C   UNL     1       7.470  -4.759  25.685  0.00  0.00    +0.002 A 
ATOM     13  C   UNL     1       6.885  -3.523  25.374  0.00  0.00    +0.024 A 
ATOM     14  C   UNL     1       7.580  -2.486  24.710  0.00  0.00    +0.048 A 
ENDROOT
BRANCH   4  15
ATOM     15  C   UNL     1       6.658   3.237  22.216  0.00  0.00    +0.160 C 
ATOM     16  O   UNL     1       7.270   4.258  21.908  0.00  0.00    -0.292 OA
ATOM     17  C   UNL     1       5.154   3.255  22.381  0.00  0.00    +0.091 C 
ENDBRANCH   4  15
BRANCH   1  18
ATOM     18  C   UNL     1       5.773  -0.830  25.222  0.00  0.00    +0.129 C 
BRANCH  18  20
ATOM     19  C   UNL     1       4.998  -0.999  27.646  0.00  0.00    +0.026 C 
ATOM     20  C   UNL     1       5.950  -0.270  26.681  0.00  0.00    +0.071 C 
BRANCH  20  21
ATOM     21  N   UNL     1       5.717   1.215  26.738  0.00  0.00    -0.304 NA
ATOM     22  C   UNL     1       6.963   1.977  26.906  0.00  0.00    +0.104 C 
ATOM     23  C   UNL     1       4.795   1.593  27.816  0.00  0.00    +0.104 C 
ENDBRANCH  20  21
ENDBRANCH  18  20
ENDBRANCH   1  18
TORSDOF 4
ENDMDL
