MODEL 1
REMARK VINA RESULT:      -7.3      0.000      0.000
REMARK  Name = 
REMARK  8 active torsions:
REMARK  status: ('A' for Active; 'I' for Inactive)
REMARK    1  A    between atoms: C_2  and  N_3
REMARK    2  A    between atoms: C_2  and  C_4
REMARK    3  A    between atoms: C_2  and  C_13
REMARK    4  A    between atoms: C_13  and  C_15
REMARK    5  A    between atoms: C_13  and  C_20
REMARK    6  A    between atoms: N_17  and  C_18
REMARK    7  A    between atoms: N_17  and  C_19
REMARK    8  A    between atoms: C_24  and  C_28
REMARK                            x       y       z     vdW  Elec       q    Type
REMARK                         _______ _______ _______ _____ _____    ______ ____
ROOT
ATOM      1  C   UNL     1       6.906  -4.377  24.714  0.00  0.00    +0.104 C 
ENDROOT
BRANCH   1   2
ATOM      2  C   UNL     1       8.176  -3.508  24.429  0.00  0.00    +0.003 C 
ATOM      3  C   UNL     1       8.630  -2.733  25.694  0.00  0.00    +0.005 C 
ATOM      4  C   UNL     1       7.686  -1.581  26.078  0.00  0.00    +0.010 C 
ATOM      5  C   UNL     1       7.420  -0.576  24.928  0.00  0.00    +0.038 C 
ATOM      6  C   UNL     1       6.995  -1.381  23.677  0.00  0.00    +0.010 C 
ATOM      7  C   UNL     1       8.004  -2.470  23.310  0.00  0.00    +0.005 C 
BRANCH   5   8
ATOM      8  C   UNL     1       8.563   0.395  24.615  0.00  0.00    +0.048 A 
ATOM      9  N   UNL     1       8.221   1.659  24.073  0.00  0.00    -0.217 N 
ATOM     10  C   UNL     1       9.175   2.581  23.622  0.00  0.00    +0.156 A 
ATOM     11  N   UNL     1       8.587   3.632  23.096  0.00  0.00    -0.215 NA
ATOM     12  C   UNL     1       7.268   3.357  23.276  0.00  0.00    +0.246 A 
ATOM     13  C   UNL     1      10.545   2.247  23.770  0.00  0.00    +0.048 A 
ATOM     14  C   UNL     1      10.883   1.088  24.357  0.00  0.00    +0.005 A 
ATOM     15  N   UNL     1       6.988   2.207  23.885  0.00  0.00    -0.153 NA
ATOM     16  C   UNL     1       9.878   0.141  24.806  0.00  0.00    +0.024 A 
ENDBRANCH   5   8
ENDBRANCH   1   2
BRANCH   1  17
ATOM     17  C   UNL     1       7.107  -5.142  26.033  0.00  0.00    +0.220 C 
ATOM     18  N   UNL     1       6.197  -5.007  27.067  0.00  0.00    -0.307 N 
ATOM     19  C   UNL     1       6.390  -5.820  28.260  0.00  0.00    +0.131 C 
ATOM     20  C   UNL     1       4.969  -4.224  27.043  0.00  0.00    +0.131 C 
ATOM     21  O   UNL     1       8.052  -5.937  26.122  0.00  0.00    -0.275 OA
ENDBRANCH   1  17
BRANCH   1  22
ATOM     22  C   UNL     1       6.527  -5.455  23.657  0.00  0.00    +0.150 C 
BRANCH  22  23
ATOM     23  C   UNL     1       5.069  -5.318  23.111  0.00  0.00    +0.233 C 
ATOM     24  N   UNL     1       4.012  -6.012  23.668  0.00  0.00    -0.297 N 
ATOM     25  C   UNL     1       4.057  -7.101  24.642  0.00  0.00    +0.144 C 
ATOM     26  C   UNL     1       2.632  -7.627  24.758  0.00  0.00    +0.185 C 
ATOM     27  F   UNL     1       2.310  -7.837  26.059  0.00  0.00    -0.244 F 
ATOM     28  C   UNL     1       1.772  -6.510  24.195  0.00  0.00    +0.057 C 
ATOM     29  C   UNL     1       2.663  -5.872  23.142  0.00  0.00    +0.111 C 
ATOM     30  O   UNL     1       4.873  -4.528  22.177  0.00  0.00    -0.274 OA
ENDBRANCH  22  23
BRANCH  22  31
ATOM     31  N   UNL     1       7.559  -5.653  22.619  0.00  0.00    -0.319 NA
ATOM     32  H   UNL     1       7.118  -5.619  21.693  0.00  0.00    +0.119 HD
ATOM     33  H   UNL     1       8.193  -4.855  22.647  0.00  0.00    +0.119 HD
ENDBRANCH  22  31
ENDBRANCH   1  22
TORSDOF 6
ENDMDL
MODEL 2
REMARK VINA RESULT:      -7.0      2.224      3.070
REMARK  Name = 
REMARK  8 active torsions:
REMARK  status: ('A' for Active; 'I' for Inactive)
REMARK    1  A    between atoms: C_2  and  N_3
REMARK    2  A    between atoms: C_2  and  C_4
REMARK    3  A    between atoms: C_2  and  C_13
REMARK    4  A    between atoms: C_13  and  C_15
REMARK    5  A    between atoms: C_13  and  C_20
REMARK    6  A    between atoms: N_17  and  C_18
REMARK    7  A    between atoms: N_17  and  C_19
REMARK    8  A    between atoms: C_24  and  C_28
REMARK                            x       y       z     vdW  Elec       q    Type
REMARK                         _______ _______ _______ _____ _____    ______ ____
ROOT
ATOM      1  C   UNL     1       6.752  -3.922  26.422  0.00  0.00    +0.104 C 
ENDROOT
BRANCH   1   2
ATOM      2  C   UNL     1       7.280  -2.484  26.740  0.00  0.00    +0.003 C 
ATOM      3  C   UNL     1       6.157  -1.424  26.602  0.00  0.00    +0.005 C 
ATOM      4  C   UNL     1       5.738  -1.161  25.145  0.00  0.00    +0.010 C 
ATOM      5  C   UNL     1       6.915  -0.786  24.210  0.00  0.00    +0.038 C 
ATOM      6  C   UNL     1       8.028  -1.847  24.390  0.00  0.00    +0.010 C 
ATOM      7  C   UNL     1       8.444  -2.017  25.852  0.00  0.00    +0.005 C 
BRANCH   5   8
ATOM      8  C   UNL     1       7.461   0.637  24.365  0.00  0.00    +0.048 A 
ATOM      9  N   UNL     1       8.425   1.077  23.423  0.00  0.00    -0.217 N 
ATOM     10  C   UNL     1       9.096   2.302  23.531  0.00  0.00    +0.156 A 
ATOM     11  N   UNL     1       9.989   2.425  22.575  0.00  0.00    -0.215 NA
ATOM     12  C   UNL     1       9.818   1.281  21.860  0.00  0.00    +0.246 A 
ATOM     13  C   UNL     1       8.748   3.159  24.606  0.00  0.00    +0.048 A 
ATOM     14  C   UNL     1       7.778   2.790  25.459  0.00  0.00    +0.005 A 
ATOM     15  N   UNL     1       8.874   0.453  22.299  0.00  0.00    -0.153 NA
ATOM     16  C   UNL     1       7.104   1.510  25.335  0.00  0.00    +0.024 A 
ENDBRANCH   5   8
ENDBRANCH   1   2
BRANCH   1  17
ATOM     17  C   UNL     1       5.883  -4.409  27.593  0.00  0.00    +0.220 C 
ATOM     18  N   UNL     1       4.502  -4.395  27.495  0.00  0.00    -0.307 N 
ATOM     19  C   UNL     1       3.732  -4.947  28.601  0.00  0.00    +0.131 C 
ATOM     20  C   UNL     1       3.721  -4.001  26.331  0.00  0.00    +0.131 C 
ATOM     21  O   UNL     1       6.441  -4.885  28.592  0.00  0.00    -0.275 OA
ENDBRANCH   1  17
BRANCH   1  22
ATOM     22  C   UNL     1       7.814  -5.038  26.195  0.00  0.00    +0.150 C 
BRANCH  22  23
ATOM     23  C   UNL     1       8.178  -5.267  24.692  0.00  0.00    +0.233 C 
ATOM     24  N   UNL     1       7.207  -5.452  23.726  0.00  0.00    -0.297 N 
ATOM     25  C   UNL     1       5.777  -5.688  23.912  0.00  0.00    +0.144 C 
ATOM     26  C   UNL     1       5.217  -6.017  22.536  0.00  0.00    +0.185 C 
ATOM     27  F   UNL     1       4.046  -5.362  22.332  0.00  0.00    -0.244 F 
ATOM     28  C   UNL     1       6.265  -5.497  21.569  0.00  0.00    +0.057 C 
ATOM     29  C   UNL     1       7.568  -5.666  22.333  0.00  0.00    +0.111 C 
ATOM     30  O   UNL     1       9.375  -5.237  24.376  0.00  0.00    -0.274 OA
ENDBRANCH  22  23
BRANCH  22  31
ATOM     31  N   UNL     1       8.974  -4.943  27.103  0.00  0.00    -0.319 NA
ATOM     32  H   UNL     1       8.981  -5.754  27.731  0.00  0.00    +0.119 HD
ATOM     33  H   UNL     1       9.823  -5.025  26.543  0.00  0.00    +0.119 HD
ENDBRANCH  22  31
ENDBRANCH   1  22
TORSDOF 6
ENDMDL
MODEL 3
REMARK VINA RESULT:      -7.0      3.080      4.309
REMARK  Name = 
REMARK  8 active torsions:
REMARK  status: ('A' for Active; 'I' for Inactive)
REMARK    1  A    between atoms: C_2  and  N_3
REMARK    2  A    between atoms: C_2  and  C_4
REMARK    3  A    between atoms: C_2  and  C_13
REMARK    4  A    between atoms: C_13  and  C_15
REMARK    5  A    between atoms: C_13  and  C_20
REMARK    6  A    between atoms: N_17  and  C_18
REMARK    7  A    between atoms: N_17  and  C_19
REMARK    8  A    between atoms: C_24  and  C_28
REMARK                            x       y       z     vdW  Elec       q    Type
REMARK                         _______ _______ _______ _____ _____    ______ ____
ROOT
ATOM      1  C   UNL     1       8.700  -1.164  24.471  0.00  0.00    +0.104 C 
ENDROOT
BRANCH   1   2
ATOM      2  C   UNL     1       9.359   0.209  24.830  0.00  0.00    +0.003 C 
ATOM      3  C   UNL     1       8.324   1.197  25.428  0.00  0.00    +0.005 C 
ATOM      4  C   UNL     1       7.316   1.728  24.395  0.00  0.00    +0.010 C 
ATOM      5  C   UNL     1       7.973   2.368  23.147  0.00  0.00    +0.038 C 
ATOM      6  C   UNL     1       9.017   1.370  22.589  0.00  0.00    +0.010 C 
ATOM      7  C   UNL     1      10.028   0.928  23.648  0.00  0.00    +0.005 C 
BRANCH   5   8
ATOM      8  C   UNL     1       8.577   3.761  23.352  0.00  0.00    +0.048 A 
ATOM      9  N   UNL     1       7.766   4.880  23.035  0.00  0.00    -0.217 N 
ATOM     10  C   UNL     1       8.243   6.198  23.052  0.00  0.00    +0.156 A 
ATOM     11  N   UNL     1       7.312   7.030  22.642  0.00  0.00    -0.215 NA
ATOM     12  C   UNL     1       6.253   6.206  22.421  0.00  0.00    +0.246 A 
ATOM     13  C   UNL     1       9.583   6.416  23.461  0.00  0.00    +0.048 A 
ATOM     14  C   UNL     1      10.336   5.371  23.843  0.00  0.00    +0.005 A 
ATOM     15  N   UNL     1       6.454   4.915  22.671  0.00  0.00    -0.153 NA
ATOM     16  C   UNL     1       9.826   4.012  23.805  0.00  0.00    +0.024 A 
ENDBRANCH   5   8
ENDBRANCH   1   2
BRANCH   1  17
ATOM     17  C   UNL     1       8.009  -1.731  25.721  0.00  0.00    +0.220 C 
ATOM     18  N   UNL     1       6.632  -1.868  25.760  0.00  0.00    -0.307 N 
ATOM     19  C   UNL     1       6.038  -2.490  26.936  0.00  0.00    +0.131 C 
ATOM     20  C   UNL     1       5.702  -1.572  24.679  0.00  0.00    +0.131 C 
ATOM     21  O   UNL     1       8.711  -2.135  26.659  0.00  0.00    -0.275 OA
ENDBRANCH   1  17
BRANCH   1  22
ATOM     22  C   UNL     1       9.641  -2.296  23.961  0.00  0.00    +0.150 C 
BRANCH  22  23
ATOM     23  C   UNL     1       8.982  -3.714  23.966  0.00  0.00    +0.233 C 
ATOM     24  N   UNL     1       7.954  -4.044  23.104  0.00  0.00    -0.297 N 
ATOM     25  C   UNL     1       7.171  -3.156  22.246  0.00  0.00    +0.144 C 
ATOM     26  C   UNL     1       6.049  -4.006  21.665  0.00  0.00    +0.185 C 
ATOM     27  F   UNL     1       5.899  -3.750  20.341  0.00  0.00    -0.244 F 
ATOM     28  C   UNL     1       6.523  -5.435  21.855  0.00  0.00    +0.057 C 
ATOM     29  C   UNL     1       7.353  -5.368  23.127  0.00  0.00    +0.111 C 
ATOM     30  O   UNL     1       9.439  -4.561  24.745  0.00  0.00    -0.274 OA
ENDBRANCH  22  23
BRANCH  22  31
ATOM     31  N   UNL     1      10.356  -1.952  22.716  0.00  0.00    -0.319 NA
ATOM     32  H   UNL     1       9.674  -1.785  21.968  0.00  0.00    +0.119 HD
ATOM     33  H   UNL     1      10.828  -1.059  22.858  0.00  0.00    +0.119 HD
ENDBRANCH  22  31
ENDBRANCH   1  22
TORSDOF 6
ENDMDL
MODEL 4
REMARK VINA RESULT:      -6.9      2.433      3.741
REMARK  Name = 
REMARK  8 active torsions:
REMARK  status: ('A' for Active; 'I' for Inactive)
REMARK    1  A    between atoms: C_2  and  N_3
REMARK    2  A    between atoms: C_2  and  C_4
REMARK    3  A    between atoms: C_2  and  C_13
REMARK    4  A    between atoms: C_13  and  C_15
REMARK    5  A    between atoms: C_13  and  C_20
REMARK    6  A    between atoms: N_17  and  C_18
REMARK    7  A    between atoms: N_17  and  C_19
REMARK    8  A    between atoms: C_24  and  C_28
REMARK                            x       y       z     vdW  Elec       q    Type
REMARK                         _______ _______ _______ _____ _____    ______ ____
ROOT
ATOM      1  C   UNL     1       8.589  -1.228  24.357  0.00  0.00    +0.104 C 
ENDROOT
BRANCH   1   2
ATOM      2  C   UNL     1       9.748  -0.208  24.606  0.00  0.00    +0.003 C 
ATOM      3  C   UNL     1       9.290   0.962  25.516  0.00  0.00    +0.005 C 
ATOM      4  C   UNL     1       8.320   1.934  24.823  0.00  0.00    +0.010 C 
ATOM      5  C   UNL     1       8.851   2.503  23.483  0.00  0.00    +0.038 C 
ATOM      6  C   UNL     1       9.322   1.315  22.610  0.00  0.00    +0.010 C 
ATOM      7  C   UNL     1      10.332   0.423  23.332  0.00  0.00    +0.005 C 
BRANCH   5   8
ATOM      8  C   UNL     1       9.932   3.583  23.600  0.00  0.00    +0.048 A 
ATOM      9  N   UNL     1       9.535   4.860  24.071  0.00  0.00    -0.217 N 
ATOM     10  C   UNL     1      10.396   5.965  24.099  0.00  0.00    +0.156 A 
ATOM     11  N   UNL     1       9.755   7.038  24.503  0.00  0.00    -0.215 NA
ATOM     12  C   UNL     1       8.509   6.560  24.765  0.00  0.00    +0.246 A 
ATOM     13  C   UNL     1      11.739   5.774  23.686  0.00  0.00    +0.048 A 
ATOM     14  C   UNL     1      12.149   4.549  23.316  0.00  0.00    +0.005 A 
ATOM     15  N   UNL     1       8.327   5.259  24.558  0.00  0.00    -0.153 NA
ATOM     16  C   UNL     1      11.236   3.420  23.283  0.00  0.00    +0.024 A 
ENDBRANCH   5   8
ENDBRANCH   1   2
BRANCH   1  17
ATOM     17  C   UNL     1       7.911  -1.556  25.698  0.00  0.00    +0.220 C 
ATOM     18  N   UNL     1       6.566  -1.289  25.888  0.00  0.00    -0.307 N 
ATOM     19  C   UNL     1       5.958  -1.698  27.146  0.00  0.00    +0.131 C 
ATOM     20  C   UNL     1       5.643  -0.751  24.899  0.00  0.00    +0.131 C 
ATOM     21  O   UNL     1       8.571  -2.133  26.573  0.00  0.00    -0.275 OA
ENDBRANCH   1  17
BRANCH   1  22
ATOM     22  C   UNL     1       8.969  -2.603  23.732  0.00  0.00    +0.150 C 
BRANCH  22  23
ATOM     23  C   UNL     1       7.933  -3.128  22.686  0.00  0.00    +0.233 C 
ATOM     24  N   UNL     1       6.957  -4.046  23.022  0.00  0.00    -0.297 N 
ATOM     25  C   UNL     1       6.837  -4.831  24.250  0.00  0.00    +0.144 C 
ATOM     26  C   UNL     1       5.702  -5.818  24.014  0.00  0.00    +0.185 C 
ATOM     27  F   UNL     1       4.894  -5.879  25.103  0.00  0.00    -0.244 F 
ATOM     28  C   UNL     1       4.933  -5.235  22.843  0.00  0.00    +0.057 C 
ATOM     29  C   UNL     1       6.004  -4.525  22.032  0.00  0.00    +0.111 C 
ATOM     30  O   UNL     1       7.983  -2.664  21.539  0.00  0.00    -0.274 OA
ENDBRANCH  22  23
BRANCH  22  31
ATOM     31  N   UNL     1      10.378  -2.684  23.299  0.00  0.00    -0.319 NA
ATOM     32  H   UNL     1      10.520  -3.551  22.768  0.00  0.00    +0.119 HD
ATOM     33  H   UNL     1      10.551  -1.928  22.637  0.00  0.00    +0.119 HD
ENDBRANCH  22  31
ENDBRANCH   1  22
TORSDOF 6
ENDMDL
MODEL 5
REMARK VINA RESULT:      -6.9      3.423      8.009
REMARK  Name = 
REMARK  8 active torsions:
REMARK  status: ('A' for Active; 'I' for Inactive)
REMARK    1  A    between atoms: C_2  and  N_3
REMARK    2  A    between atoms: C_2  and  C_4
REMARK    3  A    between atoms: C_2  and  C_13
REMARK    4  A    between atoms: C_13  and  C_15
REMARK    5  A    between atoms: C_13  and  C_20
REMARK    6  A    between atoms: N_17  and  C_18
REMARK    7  A    between atoms: N_17  and  C_19
REMARK    8  A    between atoms: C_24  and  C_28
REMARK                            x       y       z     vdW  Elec       q    Type
REMARK                         _______ _______ _______ _____ _____    ______ ____
ROOT
ATOM      1  C   UNL     1       7.506  -4.299  24.369  0.00  0.00    +0.104 C 
ENDROOT
BRANCH   1   2
ATOM      2  C   UNL     1       7.178  -5.244  25.572  0.00  0.00    +0.003 C 
ATOM      3  C   UNL     1       5.809  -5.948  25.385  0.00  0.00    +0.005 C 
ATOM      4  C   UNL     1       4.606  -5.002  25.546  0.00  0.00    +0.010 C 
ATOM      5  C   UNL     1       4.600  -4.215  26.880  0.00  0.00    +0.038 C 
ATOM      6  C   UNL     1       5.986  -3.546  27.049  0.00  0.00    +0.010 C 
ATOM      7  C   UNL     1       7.136  -4.548  26.942  0.00  0.00    +0.005 C 
BRANCH   5   8
ATOM      8  C   UNL     1       4.203  -5.016  28.124  0.00  0.00    +0.048 A 
ATOM      9  N   UNL     1       2.820  -5.212  28.366  0.00  0.00    -0.217 N 
ATOM     10  C   UNL     1       2.325  -5.810  29.532  0.00  0.00    +0.156 A 
ATOM     11  N   UNL     1       1.011  -5.794  29.535  0.00  0.00    -0.215 NA
ATOM     12  C   UNL     1       0.717  -5.223  28.338  0.00  0.00    +0.246 A 
ATOM     13  C   UNL     1       3.261  -6.288  30.484  0.00  0.00    +0.048 A 
ATOM     14  C   UNL     1       4.575  -6.183  30.229  0.00  0.00    +0.005 A 
ATOM     15  N   UNL     1       1.757  -4.885  27.580  0.00  0.00    -0.153 NA
ATOM     16  C   UNL     1       5.067  -5.548  29.019  0.00  0.00    +0.024 A 
ENDBRANCH   5   8
ENDBRANCH   1   2
BRANCH   1  17
ATOM     17  C   UNL     1       7.301  -5.069  23.055  0.00  0.00    +0.220 C 
ATOM     18  N   UNL     1       6.336  -4.664  22.148  0.00  0.00    -0.307 N 
ATOM     19  C   UNL     1       6.244  -5.379  20.882  0.00  0.00    +0.131 C 
ATOM     20  C   UNL     1       5.473  -3.497  22.265  0.00  0.00    +0.131 C 
ATOM     21  O   UNL     1       8.064  -6.008  22.789  0.00  0.00    -0.275 OA
ENDBRANCH   1  17
BRANCH   1  22
ATOM     22  C   UNL     1       8.947  -3.714  24.293  0.00  0.00    +0.150 C 
BRANCH  22  23
ATOM     23  C   UNL     1       9.041  -2.210  24.710  0.00  0.00    +0.233 C 
ATOM     24  N   UNL     1       9.199  -1.202  23.779  0.00  0.00    -0.297 N 
ATOM     25  C   UNL     1       9.521  -1.324  22.358  0.00  0.00    +0.144 C 
ATOM     26  C   UNL     1       9.771   0.091  21.855  0.00  0.00    +0.185 C 
ATOM     27  F   UNL     1       9.161   0.282  20.658  0.00  0.00    -0.244 F 
ATOM     28  C   UNL     1       9.126   0.981  22.902  0.00  0.00    +0.057 C 
ATOM     29  C   UNL     1       9.287   0.191  24.190  0.00  0.00    +0.111 C 
ATOM     30  O   UNL     1       8.927  -1.936  25.913  0.00  0.00    -0.274 OA
ENDBRANCH  22  23
BRANCH  22  31
ATOM     31  N   UNL     1       9.971  -4.588  24.898  0.00  0.00    -0.319 NA
ATOM     32  H   UNL     1       9.675  -4.853  25.844  0.00  0.00    +0.119 HD
ATOM     33  H   UNL     1       9.999  -5.459  24.369  0.00  0.00    +0.119 HD
ENDBRANCH  22  31
ENDBRANCH   1  22
TORSDOF 6
ENDMDL
MODEL 6
REMARK VINA RESULT:      -6.9      1.949      2.362
REMARK  Name = 
REMARK  8 active torsions:
REMARK  status: ('A' for Active; 'I' for Inactive)
REMARK    1  A    between atoms: C_2  and  N_3
REMARK    2  A    between atoms: C_2  and  C_4
REMARK    3  A    between atoms: C_2  and  C_13
REMARK    4  A    between atoms: C_13  and  C_15
REMARK    5  A    between atoms: C_13  and  C_20
REMARK    6  A    between atoms: N_17  and  C_18
REMARK    7  A    between atoms: N_17  and  C_19
REMARK    8  A    between atoms: C_24  and  C_28
REMARK                            x       y       z     vdW  Elec       q    Type
REMARK                         _______ _______ _______ _____ _____    ______ ____
ROOT
ATOM      1  C   UNL     1       6.907  -2.992  23.956  0.00  0.00    +0.104 C 
ENDROOT
BRANCH   1   2
ATOM      2  C   UNL     1       7.587  -1.771  23.252  0.00  0.00    +0.003 C 
ATOM      3  C   UNL     1       9.030  -1.545  23.775  0.00  0.00    +0.005 C 
ATOM      4  C   UNL     1       9.082  -0.997  25.211  0.00  0.00    +0.010 C 
ATOM      5  C   UNL     1       8.251   0.294  25.422  0.00  0.00    +0.038 C 
ATOM      6  C   UNL     1       6.828   0.045  24.868  0.00  0.00    +0.010 C 
ATOM      7  C   UNL     1       6.840  -0.438  23.417  0.00  0.00    +0.005 C 
BRANCH   5   8
ATOM      8  C   UNL     1       8.862   1.579  24.853  0.00  0.00    +0.048 A 
ATOM      9  N   UNL     1       8.344   2.814  25.319  0.00  0.00    -0.217 N 
ATOM     10  C   UNL     1       8.724   4.052  24.783  0.00  0.00    +0.156 A 
ATOM     11  N   UNL     1       8.036   5.024  25.339  0.00  0.00    -0.215 NA
ATOM     12  C   UNL     1       7.270   4.365  26.249  0.00  0.00    +0.246 A 
ATOM     13  C   UNL     1       9.713   4.063  23.767  0.00  0.00    +0.048 A 
ATOM     14  C   UNL     1      10.271   2.906  23.375  0.00  0.00    +0.005 A 
ATOM     15  N   UNL     1       7.436   3.047  26.307  0.00  0.00    -0.153 NA
ATOM     16  C   UNL     1       9.854   1.633  23.935  0.00  0.00    +0.024 A 
ENDBRANCH   5   8
ENDBRANCH   1   2
BRANCH   1  17
ATOM     17  C   UNL     1       7.933  -4.129  24.091  0.00  0.00    +0.220 C 
ATOM     18  N   UNL     1       8.360  -4.544  25.341  0.00  0.00    -0.307 N 
ATOM     19  C   UNL     1       9.267  -5.682  25.412  0.00  0.00    +0.131 C 
ATOM     20  C   UNL     1       7.892  -4.043  26.625  0.00  0.00    +0.131 C 
ATOM     21  O   UNL     1       8.309  -4.717  23.067  0.00  0.00    -0.275 OA
ENDBRANCH   1  17
BRANCH   1  22
ATOM     22  C   UNL     1       5.670  -3.624  23.252  0.00  0.00    +0.150 C 
BRANCH  22  23
ATOM     23  C   UNL     1       4.360  -3.561  24.102  0.00  0.00    +0.233 C 
ATOM     24  N   UNL     1       3.431  -4.584  24.089  0.00  0.00    -0.297 N 
ATOM     25  C   UNL     1       3.360  -5.730  23.185  0.00  0.00    +0.144 C 
ATOM     26  C   UNL     1       2.039  -6.427  23.485  0.00  0.00    +0.185 C 
ATOM     27  F   UNL     1       2.215  -7.771  23.538  0.00  0.00    -0.244 F 
ATOM     28  C   UNL     1       1.646  -5.912  24.857  0.00  0.00    +0.057 C 
ATOM     29  C   UNL     1       2.216  -4.504  24.886  0.00  0.00    +0.111 C 
ATOM     30  O   UNL     1       4.190  -2.575  24.832  0.00  0.00    -0.274 OA
ENDBRANCH  22  23
BRANCH  22  31
ATOM     31  N   UNL     1       5.513  -3.204  21.845  0.00  0.00    -0.319 NA
ATOM     32  H   UNL     1       4.720  -2.558  21.771  0.00  0.00    +0.119 HD
ATOM     33  H   UNL     1       6.334  -2.658  21.584  0.00  0.00    +0.119 HD
ENDBRANCH  22  31
ENDBRANCH   1  22
TORSDOF 6
ENDMDL
MODEL 7
REMARK VINA RESULT:      -6.8      2.507      4.726
REMARK  Name = 
REMARK  8 active torsions:
REMARK  status: ('A' for Active; 'I' for Inactive)
REMARK    1  A    between atoms: C_2  and  N_3
REMARK    2  A    between atoms: C_2  and  C_4
REMARK    3  A    between atoms: C_2  and  C_13
REMARK    4  A    between atoms: C_13  and  C_15
REMARK    5  A    between atoms: C_13  and  C_20
REMARK    6  A    between atoms: N_17  and  C_18
REMARK    7  A    between atoms: N_17  and  C_19
REMARK    8  A    between atoms: C_24  and  C_28
REMARK                            x       y       z     vdW  Elec       q    Type
REMARK                         _______ _______ _______ _____ _____    ______ ____
ROOT
ATOM      1  C   UNL     1       7.608  -0.914  24.769  0.00  0.00    +0.104 C 
ENDROOT
BRANCH   1   2
ATOM      2  C   UNL     1       7.312   0.620  24.852  0.00  0.00    +0.003 C 
ATOM      3  C   UNL     1       7.088   1.232  23.445  0.00  0.00    +0.005 C 
ATOM      4  C   UNL     1       8.374   1.326  22.605  0.00  0.00    +0.010 C 
ATOM      5  C   UNL     1       9.532   2.075  23.312  0.00  0.00    +0.038 C 
ATOM      6  C   UNL     1       9.713   1.458  24.720  0.00  0.00    +0.010 C 
ATOM      7  C   UNL     1       8.415   1.450  25.527  0.00  0.00    +0.005 C 
BRANCH   5   8
ATOM      8  C   UNL     1       9.399   3.600  23.375  0.00  0.00    +0.048 A 
ATOM      9  N   UNL     1      10.594   4.361  23.441  0.00  0.00    -0.217 N 
ATOM     10  C   UNL     1      10.605   5.749  23.635  0.00  0.00    +0.156 A 
ATOM     11  N   UNL     1      11.839   6.188  23.738  0.00  0.00    -0.215 NA
ATOM     12  C   UNL     1      12.574   5.059  23.557  0.00  0.00    +0.246 A 
ATOM     13  C   UNL     1       9.359   6.421  23.712  0.00  0.00    +0.048 A 
ATOM     14  C   UNL     1       8.221   5.722  23.568  0.00  0.00    +0.005 A 
ATOM     15  N   UNL     1      11.885   3.942  23.341  0.00  0.00    -0.153 NA
ATOM     16  C   UNL     1       8.232   4.283  23.381  0.00  0.00    +0.024 A 
ENDBRANCH   5   8
ENDBRANCH   1   2
BRANCH   1  17
ATOM     17  C   UNL     1       6.467  -1.605  24.005  0.00  0.00    +0.220 C 
ATOM     18  N   UNL     1       6.723  -2.280  22.823  0.00  0.00    -0.307 N 
ATOM     19  C   UNL     1       5.620  -2.988  22.187  0.00  0.00    +0.131 C 
ATOM     20  C   UNL     1       8.025  -2.473  22.201  0.00  0.00    +0.131 C 
ATOM     21  O   UNL     1       5.334  -1.613  24.505  0.00  0.00    -0.275 OA
ENDBRANCH   1  17
BRANCH   1  22
ATOM     22  C   UNL     1       7.744  -1.689  26.113  0.00  0.00    +0.150 C 
BRANCH  22  23
ATOM     23  C   UNL     1       7.869  -3.237  25.939  0.00  0.00    +0.233 C 
ATOM     24  N   UNL     1       6.882  -4.103  26.370  0.00  0.00    -0.297 N 
ATOM     25  C   UNL     1       5.726  -3.809  27.214  0.00  0.00    +0.144 C 
ATOM     26  C   UNL     1       5.085  -5.151  27.540  0.00  0.00    +0.185 C 
ATOM     27  F   UNL     1       3.736  -5.073  27.419  0.00  0.00    -0.244 F 
ATOM     28  C   UNL     1       5.635  -6.096  26.487  0.00  0.00    +0.057 C 
ATOM     29  C   UNL     1       7.021  -5.541  26.201  0.00  0.00    +0.111 C 
ATOM     30  O   UNL     1       8.872  -3.675  25.359  0.00  0.00    -0.274 OA
ENDBRANCH  22  23
BRANCH  22  31
ATOM     31  N   UNL     1       8.723  -1.091  27.042  0.00  0.00    -0.319 NA
ATOM     32  H   UNL     1       8.628  -0.070  27.024  0.00  0.00    +0.119 HD
ATOM     33  H   UNL     1       8.471  -1.370  27.991  0.00  0.00    +0.119 HD
ENDBRANCH  22  31
ENDBRANCH   1  22
TORSDOF 6
ENDMDL
MODEL 8
REMARK VINA RESULT:      -6.5      4.424      8.959
REMARK  Name = 
REMARK  8 active torsions:
REMARK  status: ('A' for Active; 'I' for Inactive)
REMARK    1  A    between atoms: C_2  and  N_3
REMARK    2  A    between atoms: C_2  and  C_4
REMARK    3  A    between atoms: C_2  and  C_13
REMARK    4  A    between atoms: C_13  and  C_15
REMARK    5  A    between atoms: C_13  and  C_20
REMARK    6  A    between atoms: N_17  and  C_18
REMARK    7  A    between atoms: N_17  and  C_19
REMARK    8  A    between atoms: C_24  and  C_28
REMARK                            x       y       z     vdW  Elec       q    Type
REMARK                         _______ _______ _______ _____ _____    ______ ____
ROOT
ATOM      1  C   UNL     1       8.074   1.760  23.369  0.00  0.00    +0.104 C 
ENDROOT
BRANCH   1   2
ATOM      2  C   UNL     1       8.286   0.240  23.064  0.00  0.00    +0.003 C 
ATOM      3  C   UNL     1       7.068  -0.606  23.520  0.00  0.00    +0.005 C 
ATOM      4  C   UNL     1       6.945  -0.728  25.049  0.00  0.00    +0.010 C 
ATOM      5  C   UNL     1       8.226  -1.257  25.742  0.00  0.00    +0.038 C 
ATOM      6  C   UNL     1       9.424  -0.410  25.248  0.00  0.00    +0.010 C 
ATOM      7  C   UNL     1       9.528  -0.379  23.723  0.00  0.00    +0.005 C 
BRANCH   5   8
ATOM      8  C   UNL     1       8.494  -2.758  25.591  0.00  0.00    +0.048 A 
ATOM      9  N   UNL     1       7.674  -3.648  26.330  0.00  0.00    -0.217 N 
ATOM     10  C   UNL     1       7.901  -5.030  26.381  0.00  0.00    +0.156 A 
ATOM     11  N   UNL     1       7.048  -5.606  27.198  0.00  0.00    -0.215 NA
ATOM     12  C   UNL     1       6.273  -4.565  27.603  0.00  0.00    +0.246 A 
ATOM     13  C   UNL     1       8.968  -5.559  25.612  0.00  0.00    +0.048 A 
ATOM     14  C   UNL     1       9.700  -4.736  24.843  0.00  0.00    +0.005 A 
ATOM     15  N   UNL     1       6.578  -3.376  27.090  0.00  0.00    -0.153 NA
ATOM     16  C   UNL     1       9.456  -3.305  24.815  0.00  0.00    +0.024 A 
ENDBRANCH   5   8
ENDBRANCH   1   2
BRANCH   1  17
ATOM     17  C   UNL     1       6.614   2.135  23.064  0.00  0.00    +0.220 C 
ATOM     18  N   UNL     1       5.778   2.574  24.076  0.00  0.00    -0.307 N 
ATOM     19  C   UNL     1       4.431   2.997  23.715  0.00  0.00    +0.131 C 
ATOM     20  C   UNL     1       6.142   2.790  25.469  0.00  0.00    +0.131 C 
ATOM     21  O   UNL     1       6.226   2.110  21.888  0.00  0.00    -0.275 OA
ENDBRANCH   1  17
BRANCH   1  22
ATOM     22  C   UNL     1       8.943   2.776  22.571  0.00  0.00    +0.150 C 
BRANCH  22  23
ATOM     23  C   UNL     1       9.742   3.769  23.476  0.00  0.00    +0.233 C 
ATOM     24  N   UNL     1       9.173   4.929  23.967  0.00  0.00    -0.297 N 
ATOM     25  C   UNL     1       7.901   5.542  23.592  0.00  0.00    +0.144 C 
ATOM     26  C   UNL     1       7.859   6.896  24.288  0.00  0.00    +0.185 C 
ATOM     27  F   UNL     1       6.636   7.108  24.836  0.00  0.00    -0.244 F 
ATOM     28  C   UNL     1       8.897   6.784  25.389  0.00  0.00    +0.057 C 
ATOM     29  C   UNL     1       9.936   5.842  24.804  0.00  0.00    +0.111 C 
ATOM     30  O   UNL     1      10.904   3.467  23.781  0.00  0.00    -0.274 OA
ENDBRANCH  22  23
BRANCH  22  31
ATOM     31  N   UNL     1       9.733   2.155  21.489  0.00  0.00    -0.319 NA
ATOM     32  H   UNL     1      10.601   2.686  21.356  0.00  0.00    +0.119 HD
ATOM     33  H   UNL     1      10.027   1.229  21.802  0.00  0.00    +0.119 HD
ENDBRANCH  22  31
ENDBRANCH   1  22
TORSDOF 6
ENDMDL
MODEL 9
REMARK VINA RESULT:      -6.5      1.765      2.488
REMARK  Name = 
REMARK  8 active torsions:
REMARK  status: ('A' for Active; 'I' for Inactive)
REMARK    1  A    between atoms: C_2  and  N_3
REMARK    2  A    between atoms: C_2  and  C_4
REMARK    3  A    between atoms: C_2  and  C_13
REMARK    4  A    between atoms: C_13  and  C_15
REMARK    5  A    between atoms: C_13  and  C_20
REMARK    6  A    between atoms: N_17  and  C_18
REMARK    7  A    between atoms: N_17  and  C_19
REMARK    8  A    between atoms: C_24  and  C_28
REMARK                            x       y       z     vdW  Elec       q    Type
REMARK                         _______ _______ _______ _____ _____    ______ ____
ROOT
ATOM      1  C   UNL     1       6.747  -4.366  23.777  0.00  0.00    +0.104 C 
ENDROOT
BRANCH   1   2
ATOM      2  C   UNL     1       7.040  -3.201  22.774  0.00  0.00    +0.003 C 
ATOM      3  C   UNL     1       8.427  -2.559  23.039  0.00  0.00    +0.005 C 
ATOM      4  C   UNL     1       8.479  -1.724  24.330  0.00  0.00    +0.010 C 
ATOM      5  C   UNL     1       7.382  -0.632  24.417  0.00  0.00    +0.038 C 
ATOM      6  C   UNL     1       6.017  -1.299  24.123  0.00  0.00    +0.010 C 
ATOM      7  C   UNL     1       6.010  -2.061  22.798  0.00  0.00    +0.005 C 
BRANCH   5   8
ATOM      8  C   UNL     1       7.606   0.607  23.544  0.00  0.00    +0.048 A 
ATOM      9  N   UNL     1       8.878   1.230  23.602  0.00  0.00    -0.217 N 
ATOM     10  C   UNL     1       9.166   2.441  22.957  0.00  0.00    +0.156 A 
ATOM     11  N   UNL     1      10.387   2.833  23.239  0.00  0.00    -0.215 NA
ATOM     12  C   UNL     1      10.851   1.825  24.024  0.00  0.00    +0.246 A 
ATOM     13  C   UNL     1       8.148   3.033  22.167  0.00  0.00    +0.048 A 
ATOM     14  C   UNL     1       6.965   2.410  22.038  0.00  0.00    +0.005 A 
ATOM     15  N   UNL     1      10.005   0.822  24.247  0.00  0.00    -0.153 NA
ATOM     16  C   UNL     1       6.684   1.162  22.725  0.00  0.00    +0.024 A 
ENDBRANCH   5   8
ENDBRANCH   1   2
BRANCH   1  17
ATOM     17  C   UNL     1       8.077  -5.007  24.205  0.00  0.00    +0.220 C 
ATOM     18  N   UNL     1       8.521  -4.896  25.511  0.00  0.00    -0.307 N 
ATOM     19  C   UNL     1       9.744  -5.595  25.881  0.00  0.00    +0.131 C 
ATOM     20  C   UNL     1       7.817  -4.253  26.612  0.00  0.00    +0.131 C 
ATOM     21  O   UNL     1       8.704  -5.688  23.380  0.00  0.00    -0.275 OA
ENDBRANCH   1  17
BRANCH   1  22
ATOM     22  C   UNL     1       5.860  -5.540  23.267  0.00  0.00    +0.150 C 
BRANCH  22  23
ATOM     23  C   UNL     1       4.361  -5.431  23.698  0.00  0.00    +0.233 C 
ATOM     24  N   UNL     1       3.944  -5.749  24.976  0.00  0.00    -0.297 N 
ATOM     25  C   UNL     1       4.697  -6.417  26.035  0.00  0.00    +0.144 C 
ATOM     26  C   UNL     1       3.704  -6.691  27.156  0.00  0.00    +0.185 C 
ATOM     27  F   UNL     1       4.252  -6.384  28.359  0.00  0.00    -0.244 F 
ATOM     28  C   UNL     1       2.547  -5.753  26.871  0.00  0.00    +0.057 C 
ATOM     29  C   UNL     1       2.543  -5.643  25.355  0.00  0.00    +0.111 C 
ATOM     30  O   UNL     1       3.550  -5.008  22.864  0.00  0.00    -0.274 OA
ENDBRANCH  22  23
BRANCH  22  31
ATOM     31  N   UNL     1       6.071  -5.864  21.842  0.00  0.00    -0.319 NA
ATOM     32  H   UNL     1       5.348  -6.524  21.534  0.00  0.00    +0.119 HD
ATOM     33  H   UNL     1       5.914  -5.016  21.298  0.00  0.00    +0.119 HD
ENDBRANCH  22  31
ENDBRANCH   1  22
TORSDOF 6
ENDMDL
