MODEL 1
REMARK VINA RESULT:      -5.6      0.000      0.000
REMARK  Name = 
REMARK  10 active torsions:
REMARK  status: ('A' for Active; 'I' for Inactive)
REMARK    1  A    between atoms: C_1  and  C_2
REMARK    2  A    between atoms: C_2  and  C_3
REMARK    3  A    between atoms: C_2  and  C_4
REMARK    4  A    between atoms: C_2  and  C_5
REMARK    5  A    between atoms: C_7  and  O_8
REMARK    6  A    between atoms: C_9  and  C_13
REMARK    7  A    between atoms: C_11  and  O_12
REMARK    8  A    between atoms: C_13  and  C_14
REMARK    9  A    between atoms: C_13  and  C_15
REMARK   10  A    between atoms: C_13  and  C_16
REMARK                            x       y       z     vdW  Elec       q    Type
REMARK                         _______ _______ _______ _____ _____    ______ ____
ROOT
ATOM      1  C   UNL     1       8.666  -0.467  23.516  0.00  0.00    +0.003 A 
ATOM      2  C   UNL     1       7.327  -0.560  23.113  0.00  0.00    +0.121 A 
ATOM      3  C   UNL     1       6.641  -1.786  23.073  0.00  0.00    +0.053 A 
ATOM      4  C   UNL     1       7.260  -3.003  23.403  0.00  0.00    +0.003 A 
ATOM      5  C   UNL     1       8.590  -2.907  23.838  0.00  0.00    +0.121 A 
ATOM      6  C   UNL     1       9.273  -1.679  23.895  0.00  0.00    +0.053 A 
ENDROOT
BRANCH   1   8
ATOM      7  C   UNL     1      10.842   0.562  24.137  0.00  0.00    +0.015 C 
ATOM      8  C   UNL     1       9.495   0.837  23.436  0.00  0.00    -0.009 C 
ATOM      9  C   UNL     1       9.775   1.330  21.996  0.00  0.00    +0.015 C 
ATOM     10  C   UNL     1       8.820   2.035  24.154  0.00  0.00    +0.015 C 
ENDBRANCH   1   8
BRANCH   4  11
ATOM     11  C   UNL     1       6.530  -4.351  23.232  0.00  0.00    -0.009 C 
ATOM     12  C   UNL     1       5.055  -4.105  22.842  0.00  0.00    +0.015 C 
ATOM     13  C   UNL     1       6.493  -5.204  24.528  0.00  0.00    +0.015 C 
ATOM     14  C   UNL     1       7.216  -5.227  22.161  0.00  0.00    +0.015 C 
ENDBRANCH   4  11
BRANCH   2  15
ATOM     15  O   UNL     1       6.657   0.554  22.691  0.00  0.00    -0.506 OA
ATOM     16  H   UNL     1       6.340   1.052  23.461  0.00  0.00    +0.292 HD
ENDBRANCH   2  15
BRANCH   5  17
ATOM     17  O   UNL     1       9.270  -4.041  24.191  0.00  0.00    -0.506 OA
ATOM     18  H   UNL     1       9.220  -4.160  25.154  0.00  0.00    +0.292 HD
ENDBRANCH   5  17
TORSDOF 4
ENDMDL
MODEL 2
REMARK VINA RESULT:      -5.5      0.169      5.636
REMARK  Name = 
REMARK  10 active torsions:
REMARK  status: ('A' for Active; 'I' for Inactive)
REMARK    1  A    between atoms: C_1  and  C_2
REMARK    2  A    between atoms: C_2  and  C_3
REMARK    3  A    between atoms: C_2  and  C_4
REMARK    4  A    between atoms: C_2  and  C_5
REMARK    5  A    between atoms: C_7  and  O_8
REMARK    6  A    between atoms: C_9  and  C_13
REMARK    7  A    between atoms: C_11  and  O_12
REMARK    8  A    between atoms: C_13  and  C_14
REMARK    9  A    between atoms: C_13  and  C_15
REMARK   10  A    between atoms: C_13  and  C_16
REMARK                            x       y       z     vdW  Elec       q    Type
REMARK                         _______ _______ _______ _____ _____    ______ ____
ROOT
ATOM      1  C   UNL     1       7.307  -3.102  23.550  0.00  0.00    +0.003 A 
ATOM      2  C   UNL     1       8.645  -2.980  23.950  0.00  0.00    +0.121 A 
ATOM      3  C   UNL     1       9.314  -1.744  23.960  0.00  0.00    +0.053 A 
ATOM      4  C   UNL     1       8.698  -0.555  23.537  0.00  0.00    +0.003 A 
ATOM      5  C   UNL     1       7.351  -0.669  23.167  0.00  0.00    +0.121 A 
ATOM      6  C   UNL     1       6.674  -1.902  23.174  0.00  0.00    +0.053 A 
ENDROOT
BRANCH   1   8
ATOM      7  C   UNL     1       5.176  -4.157  22.830  0.00  0.00    +0.015 C 
ATOM      8  C   UNL     1       6.582  -4.458  23.390  0.00  0.00    -0.009 C 
ATOM      9  C   UNL     1       7.291  -5.456  22.443  0.00  0.00    +0.015 C 
ATOM     10  C   UNL     1       6.408  -5.220  24.729  0.00  0.00    +0.015 C 
ENDBRANCH   1   8
BRANCH   4  11
ATOM     11  C   UNL     1       9.486   0.768  23.433  0.00  0.00    -0.009 C 
ATOM     12  C   UNL     1      10.832   0.639  24.183  0.00  0.00    +0.015 C 
ATOM     13  C   UNL     1       8.754   1.976  24.073  0.00  0.00    +0.015 C 
ATOM     14  C   UNL     1       9.743   1.152  21.960  0.00  0.00    +0.015 C 
ENDBRANCH   4  11
BRANCH   2  15
ATOM     15  O   UNL     1       9.361  -4.090  24.302  0.00  0.00    -0.506 OA
ATOM     16  H   UNL     1       8.753  -4.827  24.476  0.00  0.00    +0.292 HD
ENDBRANCH   2  15
BRANCH   5  17
ATOM     17  O   UNL     1       6.666   0.441  22.751  0.00  0.00    -0.506 OA
ATOM     18  H   UNL     1       6.521   1.032  23.508  0.00  0.00    +0.292 HD
ENDBRANCH   5  17
TORSDOF 4
ENDMDL
MODEL 3
REMARK VINA RESULT:      -5.4      1.417      2.403
REMARK  Name = 
REMARK  10 active torsions:
REMARK  status: ('A' for Active; 'I' for Inactive)
REMARK    1  A    between atoms: C_1  and  C_2
REMARK    2  A    between atoms: C_2  and  C_3
REMARK    3  A    between atoms: C_2  and  C_4
REMARK    4  A    between atoms: C_2  and  C_5
REMARK    5  A    between atoms: C_7  and  O_8
REMARK    6  A    between atoms: C_9  and  C_13
REMARK    7  A    between atoms: C_11  and  O_12
REMARK    8  A    between atoms: C_13  and  C_14
REMARK    9  A    between atoms: C_13  and  C_15
REMARK   10  A    between atoms: C_13  and  C_16
REMARK                            x       y       z     vdW  Elec       q    Type
REMARK                         _______ _______ _______ _____ _____    ______ ____
ROOT
ATOM      1  C   UNL     1       8.590  -0.485  23.035  0.00  0.00    +0.003 A 
ATOM      2  C   UNL     1       9.024  -1.581  22.276  0.00  0.00    +0.121 A 
ATOM      3  C   UNL     1       8.317  -2.797  22.245  0.00  0.00    +0.053 A 
ATOM      4  C   UNL     1       7.149  -3.004  22.997  0.00  0.00    +0.003 A 
ATOM      5  C   UNL     1       6.697  -1.899  23.730  0.00  0.00    +0.121 A 
ATOM      6  C   UNL     1       7.392  -0.676  23.750  0.00  0.00    +0.053 A 
ENDROOT
BRANCH   1   8
ATOM      7  C   UNL     1       8.518   1.817  23.968  0.00  0.00    +0.015 C 
ATOM      8  C   UNL     1       9.412   0.813  23.208  0.00  0.00    -0.009 C 
ATOM      9  C   UNL     1      10.735   0.635  23.991  0.00  0.00    +0.015 C 
ATOM     10  C   UNL     1       9.819   1.463  21.860  0.00  0.00    +0.015 C 
ENDBRANCH   1   8
BRANCH   4  11
ATOM     11  C   UNL     1       6.460  -4.384  23.049  0.00  0.00    -0.009 C 
ATOM     12  C   UNL     1       7.099  -5.332  22.009  0.00  0.00    +0.015 C 
ATOM     13  C   UNL     1       4.947  -4.333  22.709  0.00  0.00    +0.015 C 
ATOM     14  C   UNL     1       6.563  -5.008  24.458  0.00  0.00    +0.015 C 
ENDBRANCH   4  11
BRANCH   2  15
ATOM     15  O   UNL     1      10.194  -1.512  21.574  0.00  0.00    -0.506 OA
ATOM     16  H   UNL     1      10.052  -1.009  20.756  0.00  0.00    +0.292 HD
ENDBRANCH   2  15
BRANCH   5  17
ATOM     17  O   UNL     1       5.559  -2.006  24.485  0.00  0.00    -0.506 OA
ATOM     18  H   UNL     1       5.767  -1.805  25.411  0.00  0.00    +0.292 HD
ENDBRANCH   5  17
TORSDOF 4
ENDMDL
MODEL 4
REMARK VINA RESULT:      -5.4      1.380      5.333
REMARK  Name = 
REMARK  10 active torsions:
REMARK  status: ('A' for Active; 'I' for Inactive)
REMARK    1  A    between atoms: C_1  and  C_2
REMARK    2  A    between atoms: C_2  and  C_3
REMARK    3  A    between atoms: C_2  and  C_4
REMARK    4  A    between atoms: C_2  and  C_5
REMARK    5  A    between atoms: C_7  and  O_8
REMARK    6  A    between atoms: C_9  and  C_13
REMARK    7  A    between atoms: C_11  and  O_12
REMARK    8  A    between atoms: C_13  and  C_14
REMARK    9  A    between atoms: C_13  and  C_15
REMARK   10  A    between atoms: C_13  and  C_16
REMARK                            x       y       z     vdW  Elec       q    Type
REMARK                         _______ _______ _______ _____ _____    ______ ____
ROOT
ATOM      1  C   UNL     1       7.131  -2.953  23.097  0.00  0.00    +0.003 A 
ATOM      2  C   UNL     1       6.726  -1.845  23.853  0.00  0.00    +0.121 A 
ATOM      3  C   UNL     1       7.469  -0.652  23.890  0.00  0.00    +0.053 A 
ATOM      4  C   UNL     1       8.683  -0.504  23.199  0.00  0.00    +0.003 A 
ATOM      5  C   UNL     1       9.073  -1.600  22.417  0.00  0.00    +0.121 A 
ATOM      6  C   UNL     1       8.322  -2.788  22.365  0.00  0.00    +0.053 A 
ENDROOT
BRANCH   1   8
ATOM      7  C   UNL     1       7.103  -5.226  22.093  0.00  0.00    +0.015 C 
ATOM      8  C   UNL     1       6.420  -4.326  23.144  0.00  0.00    -0.009 C 
ATOM      9  C   UNL     1       6.481  -5.033  24.519  0.00  0.00    +0.015 C 
ATOM     10  C   UNL     1       4.911  -4.245  22.793  0.00  0.00    +0.015 C 
ENDBRANCH   1   8
BRANCH   4  11
ATOM     11  C   UNL     1       9.548   0.765  23.353  0.00  0.00    -0.009 C 
ATOM     12  C   UNL     1      10.842   0.429  24.129  0.00  0.00    +0.015 C 
ATOM     13  C   UNL     1       8.850   1.896  24.154  0.00  0.00    +0.015 C 
ATOM     14  C   UNL     1       9.904   1.370  21.978  0.00  0.00    +0.015 C 
ENDBRANCH   4  11
BRANCH   2  15
ATOM     15  O   UNL     1       5.602  -1.914  24.627  0.00  0.00    -0.506 OA
ATOM     16  H   UNL     1       5.200  -1.033  24.695  0.00  0.00    +0.292 HD
ENDBRANCH   2  15
BRANCH   5  17
ATOM     17  O   UNL     1      10.238  -1.541  21.701  0.00  0.00    -0.506 OA
ATOM     18  H   UNL     1      10.066  -1.124  20.840  0.00  0.00    +0.292 HD
ENDBRANCH   5  17
TORSDOF 4
ENDMDL
MODEL 5
REMARK VINA RESULT:      -5.1      1.683      2.545
REMARK  Name = 
REMARK  10 active torsions:
REMARK  status: ('A' for Active; 'I' for Inactive)
REMARK    1  A    between atoms: C_1  and  C_2
REMARK    2  A    between atoms: C_2  and  C_3
REMARK    3  A    between atoms: C_2  and  C_4
REMARK    4  A    between atoms: C_2  and  C_5
REMARK    5  A    between atoms: C_7  and  O_8
REMARK    6  A    between atoms: C_9  and  C_13
REMARK    7  A    between atoms: C_11  and  O_12
REMARK    8  A    between atoms: C_13  and  C_14
REMARK    9  A    between atoms: C_13  and  C_15
REMARK   10  A    between atoms: C_13  and  C_16
REMARK                            x       y       z     vdW  Elec       q    Type
REMARK                         _______ _______ _______ _____ _____    ______ ____
ROOT
ATOM      1  C   UNL     1       8.504  -0.301  23.114  0.00  0.00    +0.003 A 
ATOM      2  C   UNL     1       9.432  -1.094  23.803  0.00  0.00    +0.121 A 
ATOM      3  C   UNL     1       9.204  -2.456  24.065  0.00  0.00    +0.053 A 
ATOM      4  C   UNL     1       8.017  -3.104  23.685  0.00  0.00    +0.003 A 
ATOM      5  C   UNL     1       7.102  -2.320  22.968  0.00  0.00    +0.121 A 
ATOM      6  C   UNL     1       7.337  -0.962  22.689  0.00  0.00    +0.053 A 
ENDROOT
BRANCH   1   8
ATOM      7  C   UNL     1       7.381   1.726  22.217  0.00  0.00    +0.015 C 
ATOM      8  C   UNL     1       8.654   1.228  22.933  0.00  0.00    -0.009 C 
ATOM      9  C   UNL     1       8.823   2.016  24.254  0.00  0.00    +0.015 C 
ATOM     10  C   UNL     1       9.875   1.623  22.062  0.00  0.00    +0.015 C 
ENDBRANCH   1   8
BRANCH   4  11
ATOM     11  C   UNL     1       7.730  -4.564  24.093  0.00  0.00    -0.009 C 
ATOM     12  C   UNL     1       6.496  -4.618  25.022  0.00  0.00    +0.015 C 
ATOM     13  C   UNL     1       8.890  -5.226  24.883  0.00  0.00    +0.015 C 
ATOM     14  C   UNL     1       7.492  -5.455  22.854  0.00  0.00    +0.015 C 
ENDBRANCH   4  11
BRANCH   2  15
ATOM     15  O   UNL     1      10.583  -0.541  24.290  0.00  0.00    -0.506 OA
ATOM     16  H   UNL     1      11.299  -0.661  23.646  0.00  0.00    +0.292 HD
ENDBRANCH   2  15
BRANCH   5  17
ATOM     17  O   UNL     1       5.922  -2.871  22.546  0.00  0.00    -0.506 OA
ATOM     18  H   UNL     1       5.977  -3.062  21.596  0.00  0.00    +0.292 HD
ENDBRANCH   5  17
TORSDOF 4
ENDMDL
MODEL 6
REMARK VINA RESULT:      -5.0      1.778      2.562
REMARK  Name = 
REMARK  10 active torsions:
REMARK  status: ('A' for Active; 'I' for Inactive)
REMARK    1  A    between atoms: C_1  and  C_2
REMARK    2  A    between atoms: C_2  and  C_3
REMARK    3  A    between atoms: C_2  and  C_4
REMARK    4  A    between atoms: C_2  and  C_5
REMARK    5  A    between atoms: C_7  and  O_8
REMARK    6  A    between atoms: C_9  and  C_13
REMARK    7  A    between atoms: C_11  and  O_12
REMARK    8  A    between atoms: C_13  and  C_14
REMARK    9  A    between atoms: C_13  and  C_15
REMARK   10  A    between atoms: C_13  and  C_16
REMARK                            x       y       z     vdW  Elec       q    Type
REMARK                         _______ _______ _______ _____ _____    ______ ____
ROOT
ATOM      1  C   UNL     1       9.097  -0.083  23.728  0.00  0.00    +0.003 A 
ATOM      2  C   UNL     1       9.188  -0.678  24.994  0.00  0.00    +0.121 A 
ATOM      3  C   UNL     1       8.707  -1.974  25.248  0.00  0.00    +0.053 A 
ATOM      4  C   UNL     1       8.072  -2.745  24.260  0.00  0.00    +0.003 A 
ATOM      5  C   UNL     1       8.008  -2.164  22.986  0.00  0.00    +0.121 A 
ATOM      6  C   UNL     1       8.505  -0.874  22.725  0.00  0.00    +0.053 A 
ENDROOT
BRANCH   1   8
ATOM      7  C   UNL     1       9.414   1.588  21.916  0.00  0.00    +0.015 C 
ATOM      8  C   UNL     1       9.482   1.388  23.445  0.00  0.00    -0.009 C 
ATOM      9  C   UNL     1       8.566   2.433  24.125  0.00  0.00    +0.015 C 
ATOM     10  C   UNL     1      10.920   1.742  23.908  0.00  0.00    +0.015 C 
ENDBRANCH   1   8
BRANCH   4  11
ATOM     11  C   UNL     1       7.436  -4.112  24.590  0.00  0.00    -0.009 C 
ATOM     12  C   UNL     1       7.849  -4.555  26.012  0.00  0.00    +0.015 C 
ATOM     13  C   UNL     1       7.889  -5.251  23.638  0.00  0.00    +0.015 C 
ATOM     14  C   UNL     1       5.897  -4.053  24.487  0.00  0.00    +0.015 C 
ENDBRANCH   4  11
BRANCH   2  15
ATOM     15  O   UNL     1       9.714   0.018  26.045  0.00  0.00    -0.506 OA
ATOM     16  H   UNL     1       9.035   0.136  26.729  0.00  0.00    +0.292 HD
ENDBRANCH   2  15
BRANCH   5  17
ATOM     17  O   UNL     1       7.416  -2.847  21.958  0.00  0.00    -0.506 OA
ATOM     18  H   UNL     1       6.815  -2.253  21.480  0.00  0.00    +0.292 HD
ENDBRANCH   5  17
TORSDOF 4
ENDMDL
MODEL 7
REMARK VINA RESULT:      -4.9      1.728      5.409
REMARK  Name = 
REMARK  10 active torsions:
REMARK  status: ('A' for Active; 'I' for Inactive)
REMARK    1  A    between atoms: C_1  and  C_2
REMARK    2  A    between atoms: C_2  and  C_3
REMARK    3  A    between atoms: C_2  and  C_4
REMARK    4  A    between atoms: C_2  and  C_5
REMARK    5  A    between atoms: C_7  and  O_8
REMARK    6  A    between atoms: C_9  and  C_13
REMARK    7  A    between atoms: C_11  and  O_12
REMARK    8  A    between atoms: C_13  and  C_14
REMARK    9  A    between atoms: C_13  and  C_15
REMARK   10  A    between atoms: C_13  and  C_16
REMARK                            x       y       z     vdW  Elec       q    Type
REMARK                         _______ _______ _______ _____ _____    ______ ____
ROOT
ATOM      1  C   UNL     1       7.983  -2.826  24.218  0.00  0.00    +0.003 A 
ATOM      2  C   UNL     1       8.007  -2.242  22.943  0.00  0.00    +0.121 A 
ATOM      3  C   UNL     1       8.569  -0.974  22.711  0.00  0.00    +0.053 A 
ATOM      4  C   UNL     1       9.111  -0.194  23.745  0.00  0.00    +0.003 A 
ATOM      5  C   UNL     1       9.117  -0.790  25.014  0.00  0.00    +0.121 A 
ATOM      6  C   UNL     1       8.572  -2.066  25.246  0.00  0.00    +0.053 A 
ENDROOT
BRANCH   1   8
ATOM      7  C   UNL     1       5.737  -3.851  24.492  0.00  0.00    +0.015 C 
ATOM      8  C   UNL     1       7.250  -4.149  24.538  0.00  0.00    -0.009 C 
ATOM      9  C   UNL     1       7.559  -5.307  23.559  0.00  0.00    +0.015 C 
ATOM     10  C   UNL     1       7.583  -4.706  25.947  0.00  0.00    +0.015 C 
ENDBRANCH   1   8
BRANCH   4  11
ATOM     11  C   UNL     1       9.606   1.246  23.493  0.00  0.00    -0.009 C 
ATOM     12  C   UNL     1       9.676   1.520  21.973  0.00  0.00    +0.015 C 
ATOM     13  C   UNL     1      11.032   1.515  24.043  0.00  0.00    +0.015 C 
ATOM     14  C   UNL     1       8.682   2.281  24.169  0.00  0.00    +0.015 C 
ENDBRANCH   4  11
BRANCH   2  15
ATOM     15  O   UNL     1       7.430  -2.883  21.883  0.00  0.00    -0.506 OA
ATOM     16  H   UNL     1       6.473  -2.951  22.027  0.00  0.00    +0.292 HD
ENDBRANCH   2  15
BRANCH   5  17
ATOM     17  O   UNL     1       9.637  -0.107  26.081  0.00  0.00    -0.506 OA
ATOM     18  H   UNL     1      10.108  -0.726  26.661  0.00  0.00    +0.292 HD
ENDBRANCH   5  17
TORSDOF 4
ENDMDL
MODEL 8
REMARK VINA RESULT:      -4.6      3.005      7.166
REMARK  Name = 
REMARK  10 active torsions:
REMARK  status: ('A' for Active; 'I' for Inactive)
REMARK    1  A    between atoms: C_1  and  C_2
REMARK    2  A    between atoms: C_2  and  C_3
REMARK    3  A    between atoms: C_2  and  C_4
REMARK    4  A    between atoms: C_2  and  C_5
REMARK    5  A    between atoms: C_7  and  O_8
REMARK    6  A    between atoms: C_9  and  C_13
REMARK    7  A    between atoms: C_11  and  O_12
REMARK    8  A    between atoms: C_13  and  C_14
REMARK    9  A    between atoms: C_13  and  C_15
REMARK   10  A    between atoms: C_13  and  C_16
REMARK                            x       y       z     vdW  Elec       q    Type
REMARK                         _______ _______ _______ _____ _____    ______ ____
ROOT
ATOM      1  C   UNL     1       8.651   1.682  23.359  0.00  0.00    +0.003 A 
ATOM      2  C   UNL     1       8.677   2.041  24.714  0.00  0.00    +0.121 A 
ATOM      3  C   UNL     1       8.400   3.350  25.147  0.00  0.00    +0.053 A 
ATOM      4  C   UNL     1       8.113   4.391  24.249  0.00  0.00    +0.003 A 
ATOM      5  C   UNL     1       8.056   4.026  22.896  0.00  0.00    +0.121 A 
ATOM      6  C   UNL     1       8.315   2.714  22.463  0.00  0.00    +0.053 A 
ENDROOT
BRANCH   1   8
ATOM      7  C   UNL     1       9.201   0.405  21.299  0.00  0.00    +0.015 C 
ATOM      8  C   UNL     1       9.088   0.295  22.835  0.00  0.00    -0.009 C 
ATOM      9  C   UNL     1      10.440  -0.207  23.397  0.00  0.00    +0.015 C 
ATOM     10  C   UNL     1       8.069  -0.829  23.158  0.00  0.00    +0.015 C 
ENDBRANCH   1   8
BRANCH   4  11
ATOM     11  C   UNL     1       7.939   5.847  24.732  0.00  0.00    -0.009 C 
ATOM     12  C   UNL     1       8.974   6.760  24.037  0.00  0.00    +0.015 C 
ATOM     13  C   UNL     1       8.165   6.024  26.256  0.00  0.00    +0.015 C 
ATOM     14  C   UNL     1       6.511   6.363  24.446  0.00  0.00    +0.015 C 
ENDBRANCH   4  11
BRANCH   2  15
ATOM     15  O   UNL     1       9.027   1.122  25.663  0.00  0.00    -0.506 OA
ATOM     16  H   UNL     1       9.890   0.739  25.441  0.00  0.00    +0.292 HD
ENDBRANCH   2  15
BRANCH   5  17
ATOM     17  O   UNL     1       7.771   4.974  21.950  0.00  0.00    -0.506 OA
ATOM     18  H   UNL     1       6.878   4.823  21.601  0.00  0.00    +0.292 HD
ENDBRANCH   5  17
TORSDOF 4
ENDMDL
MODEL 9
REMARK VINA RESULT:      -4.6      1.717      2.866
REMARK  Name = 
REMARK  10 active torsions:
REMARK  status: ('A' for Active; 'I' for Inactive)
REMARK    1  A    between atoms: C_1  and  C_2
REMARK    2  A    between atoms: C_2  and  C_3
REMARK    3  A    between atoms: C_2  and  C_4
REMARK    4  A    between atoms: C_2  and  C_5
REMARK    5  A    between atoms: C_7  and  O_8
REMARK    6  A    between atoms: C_9  and  C_13
REMARK    7  A    between atoms: C_11  and  O_12
REMARK    8  A    between atoms: C_13  and  C_14
REMARK    9  A    between atoms: C_13  and  C_15
REMARK   10  A    between atoms: C_13  and  C_16
REMARK                            x       y       z     vdW  Elec       q    Type
REMARK                         _______ _______ _______ _____ _____    ______ ____
ROOT
ATOM      1  C   UNL     1       7.987  -1.603  23.724  0.00  0.00    +0.003 A 
ATOM      2  C   UNL     1       7.960  -2.523  24.781  0.00  0.00    +0.121 A 
ATOM      3  C   UNL     1       7.162  -3.681  24.746  0.00  0.00    +0.053 A 
ATOM      4  C   UNL     1       6.315  -3.975  23.665  0.00  0.00    +0.003 A 
ATOM      5  C   UNL     1       6.365  -3.072  22.593  0.00  0.00    +0.121 A 
ATOM      6  C   UNL     1       7.175  -1.923  22.619  0.00  0.00    +0.053 A 
ENDROOT
BRANCH   1   8
ATOM      7  C   UNL     1       8.493   0.463  22.439  0.00  0.00    +0.015 C 
ATOM      8  C   UNL     1       8.736  -0.252  23.785  0.00  0.00    -0.009 C 
ATOM      9  C   UNL     1       8.283   0.681  24.933  0.00  0.00    +0.015 C 
ATOM     10  C   UNL     1      10.268  -0.412  23.970  0.00  0.00    +0.015 C 
ENDBRANCH   1   8
BRANCH   4  11
ATOM     11  C   UNL     1       5.353  -5.181  23.700  0.00  0.00    -0.009 C 
ATOM     12  C   UNL     1       5.735  -6.191  22.593  0.00  0.00    +0.015 C 
ATOM     13  C   UNL     1       3.872  -4.800  23.440  0.00  0.00    +0.015 C 
ATOM     14  C   UNL     1       5.382  -5.879  25.077  0.00  0.00    +0.015 C 
ENDBRANCH   4  11
BRANCH   2  15
ATOM     15  O   UNL     1       8.684  -2.289  25.915  0.00  0.00    -0.506 OA
ATOM     16  H   UNL     1       8.314  -2.805  26.649  0.00  0.00    +0.292 HD
ENDBRANCH   2  15
BRANCH   5  17
ATOM     17  O   UNL     1       5.581  -3.285  21.491  0.00  0.00    -0.506 OA
ATOM     18  H   UNL     1       6.103  -3.124  20.688  0.00  0.00    +0.292 HD
ENDBRANCH   5  17
TORSDOF 4
ENDMDL
