MODEL 1
REMARK VINA RESULT:      -6.6      0.000      0.000
REMARK  Name = 
REMARK  10 active torsions:
REMARK  status: ('A' for Active; 'I' for Inactive)
REMARK    1  A    between atoms: N_10  and  C_11
REMARK    2  A    between atoms: C_14  and  C_16
REMARK    3  A    between atoms: C_16  and  O_17
REMARK    4  A    between atoms: O_17  and  C_18
REMARK    5  A    between atoms: C_18  and  C_20
REMARK    6  A    between atoms: C_20  and  P_21
REMARK    7  A    between atoms: P_21  and  O_22
REMARK    8  A    between atoms: P_21  and  O_23
REMARK    9  A    between atoms: C_25  and  O_27
REMARK   10  A    between atoms: C_28  and  O_30
REMARK                            x       y       z     vdW  Elec       q    Type
REMARK                         _______ _______ _______ _____ _____    ______ ____
ROOT
ATOM      1  C   UNL     1       7.494  -3.121  24.191  0.00  0.00    +0.253 C 
ATOM      2  C   UNL     1       8.101  -4.406  23.610  0.00  0.00    +0.195 C 
ATOM      3  C   UNL     1       8.558  -5.206  24.831  0.00  0.00    +0.179 C 
ATOM      4  C   UNL     1       7.941  -4.469  26.018  0.00  0.00    +0.189 C 
ATOM      5  O   UNL     1       6.967  -3.551  25.468  0.00  0.00    -0.345 OA
ENDROOT
BRANCH   1  13
ATOM      6  N   UNL     1      10.894   1.905  23.941  0.00  0.00    -0.341 N 
ATOM      7  H   UNL     1      10.648   2.098  24.905  0.00  0.00    +0.144 HD
ATOM      8  H   UNL     1      10.964   2.688  23.306  0.00  0.00    +0.144 HD
ATOM      9  C   UNL     1      10.177   0.852  23.383  0.00  0.00    +0.147 A 
ATOM     10  C   UNL     1       9.539  -0.142  24.145  0.00  0.00    +0.147 A 
ATOM     11  N   UNL     1       9.417  -0.338  25.505  0.00  0.00    -0.231 NA
ATOM     12  C   UNL     1       8.683  -1.424  25.623  0.00  0.00    +0.203 A 
ATOM     13  N   UNL     1       8.346  -1.968  24.401  0.00  0.00    -0.286 N 
ATOM     14  C   UNL     1       8.857  -1.128  23.445  0.00  0.00    +0.167 A 
ATOM     15  N   UNL     1       8.723  -1.214  22.111  0.00  0.00    -0.216 NA
ATOM     16  C   UNL     1       9.374  -0.211  21.486  0.00  0.00    +0.225 A 
ATOM     17  N   UNL     1      10.076   0.802  22.036  0.00  0.00    -0.219 NA
ENDBRANCH   1  13
BRANCH   2  18
ATOM     18  O   UNL     1       7.070  -5.159  22.931  0.00  0.00    -0.385 OA
ATOM     19  H   UNL     1       6.209  -4.926  23.322  0.00  0.00    +0.210 HD
ENDBRANCH   2  18
BRANCH   3  20
ATOM     20  O   UNL     1       9.980  -5.205  24.927  0.00  0.00    -0.386 OA
ATOM     21  H   UNL     1      10.228  -5.347  25.859  0.00  0.00    +0.210 HD
ENDBRANCH   3  20
BRANCH   4  22
ATOM     22  C   UNL     1       7.253  -5.404  27.009  0.00  0.00    +0.266 C 
BRANCH  22  23
ATOM     23  O   UNL     1       6.319  -6.250  26.313  0.00  0.00    -0.462 OA
BRANCH  23  24
ATOM     24  C   UNL     1       5.001  -6.015  26.546  0.00  0.00    +0.319 C 
ATOM     25  O   UNL     1       4.565  -5.128  27.264  0.00  0.00    -0.250 OA
BRANCH  24  26
ATOM     26  C   UNL     1       4.140  -7.029  25.865  0.00  0.00    +0.247 C 
BRANCH  26  27
ATOM     27  P   UNL     1       3.750  -6.369  24.204  0.00  0.00    +0.338 P 
ATOM     28  O   UNL     1       3.421  -5.810  22.798  0.00  0.00    -0.258 OA
BRANCH  27  29
ATOM     29  O   UNL     1       5.044  -7.207  23.632  0.00  0.00    -0.324 OA
ATOM     30  H   UNL     1       5.852  -6.693  23.835  0.00  0.00    +0.220 HD
ENDBRANCH  27  29
BRANCH  27  31
ATOM     31  O   UNL     1       4.613  -5.040  24.649  0.00  0.00    -0.324 OA
ATOM     32  H   UNL     1       5.476  -5.027  24.193  0.00  0.00    +0.220 HD
ENDBRANCH  27  31
ENDBRANCH  26  27
ENDBRANCH  24  26
ENDBRANCH  23  24
ENDBRANCH  22  23
ENDBRANCH   4  22
TORSDOF 10
ENDMDL
MODEL 2
REMARK VINA RESULT:      -6.6      4.184      7.329
REMARK  Name = 
REMARK  10 active torsions:
REMARK  status: ('A' for Active; 'I' for Inactive)
REMARK    1  A    between atoms: N_10  and  C_11
REMARK    2  A    between atoms: C_14  and  C_16
REMARK    3  A    between atoms: C_16  and  O_17
REMARK    4  A    between atoms: O_17  and  C_18
REMARK    5  A    between atoms: C_18  and  C_20
REMARK    6  A    between atoms: C_20  and  P_21
REMARK    7  A    between atoms: P_21  and  O_22
REMARK    8  A    between atoms: P_21  and  O_23
REMARK    9  A    between atoms: C_25  and  O_27
REMARK   10  A    between atoms: C_28  and  O_30
REMARK                            x       y       z     vdW  Elec       q    Type
REMARK                         _______ _______ _______ _____ _____    ______ ____
ROOT
ATOM      1  C   UNL     1       6.962  -2.026  24.070  0.00  0.00    +0.253 C 
ATOM      2  C   UNL     1       8.116  -2.175  25.072  0.00  0.00    +0.195 C 
ATOM      3  C   UNL     1       9.339  -2.496  24.211  0.00  0.00    +0.179 C 
ATOM      4  C   UNL     1       8.871  -2.237  22.780  0.00  0.00    +0.189 C 
ATOM      5  O   UNL     1       7.617  -1.522  22.882  0.00  0.00    -0.345 OA
ENDROOT
BRANCH   1  13
ATOM      6  N   UNL     1       3.799  -7.197  23.693  0.00  0.00    -0.341 N 
ATOM      7  H   UNL     1       3.243  -6.782  22.954  0.00  0.00    +0.144 HD
ATOM      8  H   UNL     1       3.328  -7.795  24.358  0.00  0.00    +0.144 HD
ATOM      9  C   UNL     1       4.649  -6.294  24.324  0.00  0.00    +0.147 A 
ATOM     10  C   UNL     1       5.066  -5.084  23.743  0.00  0.00    +0.147 A 
ATOM     11  N   UNL     1       4.775  -4.483  22.536  0.00  0.00    -0.231 NA
ATOM     12  C   UNL     1       5.439  -3.346  22.560  0.00  0.00    +0.203 A 
ATOM     13  N   UNL     1       6.178  -3.192  23.714  0.00  0.00    -0.286 N 
ATOM     14  C   UNL     1       5.913  -4.284  24.498  0.00  0.00    +0.167 A 
ATOM     15  N   UNL     1       6.354  -4.538  25.741  0.00  0.00    -0.216 NA
ATOM     16  C   UNL     1       5.892  -5.722  26.195  0.00  0.00    +0.225 A 
ATOM     17  N   UNL     1       5.074  -6.595  25.572  0.00  0.00    -0.219 NA
ENDBRANCH   1  13
BRANCH   2  18
ATOM     18  O   UNL     1       8.343  -0.909  25.733  0.00  0.00    -0.385 OA
ATOM     19  H   UNL     1       8.968  -1.051  26.467  0.00  0.00    +0.210 HD
ENDBRANCH   2  18
BRANCH   3  20
ATOM     20  O   UNL     1       9.721  -3.859  24.373  0.00  0.00    -0.386 OA
ATOM     21  H   UNL     1       9.100  -4.283  24.993  0.00  0.00    +0.210 HD
ENDBRANCH   3  20
BRANCH   4  22
ATOM     22  C   UNL     1       9.863  -1.407  21.970  0.00  0.00    +0.266 C 
BRANCH  22  23
ATOM     23  O   UNL     1      10.160  -0.184  22.668  0.00  0.00    -0.462 OA
BRANCH  23  24
ATOM     24  C   UNL     1       9.683   0.961  22.113  0.00  0.00    +0.319 C 
ATOM     25  O   UNL     1       9.016   1.017  21.090  0.00  0.00    -0.250 OA
BRANCH  24  26
ATOM     26  C   UNL     1      10.134   2.164  22.876  0.00  0.00    +0.247 C 
BRANCH  26  27
ATOM     27  P   UNL     1       9.071   2.286  24.360  0.00  0.00    +0.338 P 
ATOM     28  O   UNL     1       8.171   2.389  25.615  0.00  0.00    -0.258 OA
BRANCH  27  29
ATOM     29  O   UNL     1      10.004   1.124  25.053  0.00  0.00    -0.324 OA
ATOM     30  H   UNL     1       9.844   0.283  24.578  0.00  0.00    +0.220 HD
ENDBRANCH  27  29
BRANCH  27  31
ATOM     31  O   UNL     1       8.064   1.235  23.591  0.00  0.00    -0.324 OA
ATOM     32  H   UNL     1       8.262   1.213  22.635  0.00  0.00    +0.220 HD
ENDBRANCH  27  31
ENDBRANCH  26  27
ENDBRANCH  24  26
ENDBRANCH  23  24
ENDBRANCH  22  23
ENDBRANCH   4  22
TORSDOF 10
ENDMDL
MODEL 3
REMARK VINA RESULT:      -6.6      1.751      2.226
REMARK  Name = 
REMARK  10 active torsions:
REMARK  status: ('A' for Active; 'I' for Inactive)
REMARK    1  A    between atoms: N_10  and  C_11
REMARK    2  A    between atoms: C_14  and  C_16
REMARK    3  A    between atoms: C_16  and  O_17
REMARK    4  A    between atoms: O_17  and  C_18
REMARK    5  A    between atoms: C_18  and  C_20
REMARK    6  A    between atoms: C_20  and  P_21
REMARK    7  A    between atoms: P_21  and  O_22
REMARK    8  A    between atoms: P_21  and  O_23
REMARK    9  A    between atoms: C_25  and  O_27
REMARK   10  A    between atoms: C_28  and  O_30
REMARK                            x       y       z     vdW  Elec       q    Type
REMARK                         _______ _______ _______ _____ _____    ______ ____
ROOT
ATOM      1  C   UNL     1       7.297  -2.822  23.216  0.00  0.00    +0.253 C 
ATOM      2  C   UNL     1       7.835  -4.258  23.304  0.00  0.00    +0.195 C 
ATOM      3  C   UNL     1       8.458  -4.354  24.698  0.00  0.00    +0.179 C 
ATOM      4  C   UNL     1       7.997  -3.081  25.407  0.00  0.00    +0.189 C 
ATOM      5  O   UNL     1       6.949  -2.513  24.587  0.00  0.00    -0.345 OA
ENDROOT
BRANCH   1  13
ATOM      6  N   UNL     1      10.113   2.287  21.529  0.00  0.00    -0.341 N 
ATOM      7  H   UNL     1      11.000   1.803  21.606  0.00  0.00    +0.144 HD
ATOM      8  H   UNL     1      10.076   3.253  21.825  0.00  0.00    +0.144 HD
ATOM      9  C   UNL     1       9.035   1.557  22.019  0.00  0.00    +0.147 A 
ATOM     10  C   UNL     1       9.047   0.159  22.167  0.00  0.00    +0.147 A 
ATOM     11  N   UNL     1      10.017  -0.793  21.930  0.00  0.00    -0.231 NA
ATOM     12  C   UNL     1       9.459  -1.932  22.281  0.00  0.00    +0.203 A 
ATOM     13  N   UNL     1       8.156  -1.774  22.705  0.00  0.00    -0.286 N 
ATOM     14  C   UNL     1       7.896  -0.428  22.674  0.00  0.00    +0.167 A 
ATOM     15  N   UNL     1       6.779   0.208  23.064  0.00  0.00    -0.216 NA
ATOM     16  C   UNL     1       6.881   1.540  22.877  0.00  0.00    +0.225 A 
ATOM     17  N   UNL     1       7.928   2.239  22.392  0.00  0.00    -0.219 NA
ENDBRANCH   1  13
BRANCH   2  18
ATOM     18  O   UNL     1       6.730  -5.188  23.234  0.00  0.00    -0.385 OA
ATOM     19  H   UNL     1       7.090  -6.086  23.116  0.00  0.00    +0.210 HD
ENDBRANCH   2  18
BRANCH   3  20
ATOM     20  O   UNL     1       9.880  -4.387  24.609  0.00  0.00    -0.386 OA
ATOM     21  H   UNL     1      10.130  -4.948  23.852  0.00  0.00    +0.210 HD
ENDBRANCH   3  20
BRANCH   4  22
ATOM     22  C   UNL     1       7.458  -3.343  26.810  0.00  0.00    +0.266 C 
BRANCH  22  23
ATOM     23  O   UNL     1       7.711  -4.710  27.183  0.00  0.00    -0.462 OA
BRANCH  23  24
ATOM     24  C   UNL     1       6.705  -5.357  27.829  0.00  0.00    +0.319 C 
ATOM     25  O   UNL     1       6.848  -6.341  28.538  0.00  0.00    -0.250 OA
BRANCH  24  26
ATOM     26  C   UNL     1       5.377  -4.752  27.507  0.00  0.00    +0.247 C 
BRANCH  26  27
ATOM     27  P   UNL     1       4.569  -5.854  26.290  0.00  0.00    +0.338 P 
ATOM     28  O   UNL     1       3.886  -6.786  25.259  0.00  0.00    -0.258 OA
BRANCH  27  29
ATOM     29  O   UNL     1       6.057  -6.459  25.938  0.00  0.00    -0.324 OA
ATOM     30  H   UNL     1       6.083  -6.663  24.981  0.00  0.00    +0.220 HD
ENDBRANCH  27  29
BRANCH  27  31
ATOM     31  O   UNL     1       4.667  -4.588  25.242  0.00  0.00    -0.324 OA
ATOM     32  H   UNL     1       4.539  -4.896  24.325  0.00  0.00    +0.220 HD
ENDBRANCH  27  31
ENDBRANCH  26  27
ENDBRANCH  24  26
ENDBRANCH  23  24
ENDBRANCH  22  23
ENDBRANCH   4  22
TORSDOF 10
ENDMDL
MODEL 4
REMARK VINA RESULT:      -6.5      4.866      7.672
REMARK  Name = 
REMARK  10 active torsions:
REMARK  status: ('A' for Active; 'I' for Inactive)
REMARK    1  A    between atoms: N_10  and  C_11
REMARK    2  A    between atoms: C_14  and  C_16
REMARK    3  A    between atoms: C_16  and  O_17
REMARK    4  A    between atoms: O_17  and  C_18
REMARK    5  A    between atoms: C_18  and  C_20
REMARK    6  A    between atoms: C_20  and  P_21
REMARK    7  A    between atoms: P_21  and  O_22
REMARK    8  A    between atoms: P_21  and  O_23
REMARK    9  A    between atoms: C_25  and  O_27
REMARK   10  A    between atoms: C_28  and  O_30
REMARK                            x       y       z     vdW  Elec       q    Type
REMARK                         _______ _______ _______ _____ _____    ______ ____
ROOT
ATOM      1  C   UNL     1       9.062  -2.464  23.049  0.00  0.00    +0.253 C 
ATOM      2  C   UNL     1       8.641  -1.469  21.958  0.00  0.00    +0.195 C 
ATOM      3  C   UNL     1       8.154  -0.237  22.724  0.00  0.00    +0.179 C 
ATOM      4  C   UNL     1       8.584  -0.496  24.167  0.00  0.00    +0.189 C 
ATOM      5  O   UNL     1       9.510  -1.607  24.126  0.00  0.00    -0.345 OA
ENDROOT
BRANCH   1  13
ATOM      6  N   UNL     1       5.611  -6.344  26.198  0.00  0.00    -0.341 N 
ATOM      7  H   UNL     1       4.805  -6.025  25.674  0.00  0.00    +0.144 HD
ATOM      8  H   UNL     1       5.484  -6.552  27.179  0.00  0.00    +0.144 HD
ATOM      9  C   UNL     1       6.756  -5.587  25.975  0.00  0.00    +0.147 A 
ATOM     10  C   UNL     1       6.946  -4.783  24.838  0.00  0.00    +0.147 A 
ATOM     11  N   UNL     1       6.148  -4.510  23.747  0.00  0.00    -0.231 NA
ATOM     12  C   UNL     1       6.849  -3.666  23.021  0.00  0.00    +0.203 A 
ATOM     13  N   UNL     1       8.086  -3.399  23.570  0.00  0.00    -0.286 N 
ATOM     14  C   UNL     1       8.141  -4.080  24.758  0.00  0.00    +0.167 A 
ATOM     15  N   UNL     1       9.125  -4.070  25.674  0.00  0.00    -0.216 NA
ATOM     16  C   UNL     1       8.834  -4.875  26.717  0.00  0.00    +0.225 A 
ATOM     17  N   UNL     1       7.724  -5.614  26.920  0.00  0.00    -0.219 NA
ENDBRANCH   1  13
BRANCH   2  18
ATOM     18  O   UNL     1       9.799  -1.093  21.179  0.00  0.00    -0.385 OA
ATOM     19  H   UNL     1       9.981  -0.148  21.331  0.00  0.00    +0.210 HD
ENDBRANCH   2  18
BRANCH   3  20
ATOM     20  O   UNL     1       6.736  -0.122  22.638  0.00  0.00    -0.386 OA
ATOM     21  H   UNL     1       6.383   0.025  23.534  0.00  0.00    +0.210 HD
ENDBRANCH   3  20
BRANCH   4  22
ATOM     22  C   UNL     1       9.266   0.708  24.811  0.00  0.00    +0.266 C 
BRANCH  22  23
ATOM     23  O   UNL     1      10.177   1.312  23.873  0.00  0.00    -0.462 OA
BRANCH  23  24
ATOM     24  C   UNL     1      10.195   2.670  23.837  0.00  0.00    +0.319 C 
ATOM     25  O   UNL     1      11.111   3.346  23.393  0.00  0.00    -0.250 OA
BRANCH  24  26
ATOM     26  C   UNL     1       8.974   3.247  24.478  0.00  0.00    +0.247 C 
BRANCH  26  27
ATOM     27  P   UNL     1       7.981   4.012  23.144  0.00  0.00    +0.338 P 
ATOM     28  O   UNL     1       7.142   4.660  22.016  0.00  0.00    -0.258 OA
BRANCH  27  29
ATOM     29  O   UNL     1       8.764   3.034  22.080  0.00  0.00    -0.324 OA
ATOM     30  H   UNL     1       8.645   2.108  22.375  0.00  0.00    +0.220 HD
ENDBRANCH  27  29
BRANCH  27  31
ATOM     31  O   UNL     1       9.121   5.200  23.127  0.00  0.00    -0.324 OA
ATOM     32  H   UNL     1       8.923   5.849  22.426  0.00  0.00    +0.220 HD
ENDBRANCH  27  31
ENDBRANCH  26  27
ENDBRANCH  24  26
ENDBRANCH  23  24
ENDBRANCH  22  23
ENDBRANCH   4  22
TORSDOF 10
ENDMDL
MODEL 5
REMARK VINA RESULT:      -6.5      4.909      7.558
REMARK  Name = 
REMARK  10 active torsions:
REMARK  status: ('A' for Active; 'I' for Inactive)
REMARK    1  A    between atoms: N_10  and  C_11
REMARK    2  A    between atoms: C_14  and  C_16
REMARK    3  A    between atoms: C_16  and  O_17
REMARK    4  A    between atoms: O_17  and  C_18
REMARK    5  A    between atoms: C_18  and  C_20
REMARK    6  A    between atoms: C_20  and  P_21
REMARK    7  A    between atoms: P_21  and  O_22
REMARK    8  A    between atoms: P_21  and  O_23
REMARK    9  A    between atoms: C_25  and  O_27
REMARK   10  A    between atoms: C_28  and  O_30
REMARK                            x       y       z     vdW  Elec       q    Type
REMARK                         _______ _______ _______ _____ _____    ______ ____
ROOT
ATOM      1  C   UNL     1       9.343  -2.652  23.445  0.00  0.00    +0.253 C 
ATOM      2  C   UNL     1       8.986  -1.769  22.241  0.00  0.00    +0.195 C 
ATOM      3  C   UNL     1       8.574  -0.428  22.852  0.00  0.00    +0.179 C 
ATOM      4  C   UNL     1       8.984  -0.540  24.319  0.00  0.00    +0.189 C 
ATOM      5  O   UNL     1       9.840  -1.702  24.418  0.00  0.00    -0.345 OA
ENDROOT
BRANCH   1  13
ATOM      6  N   UNL     1       4.859  -6.453  24.972  0.00  0.00    -0.341 N 
ATOM      7  H   UNL     1       5.270  -6.539  25.894  0.00  0.00    +0.144 HD
ATOM      8  H   UNL     1       4.453  -7.281  24.557  0.00  0.00    +0.144 HD
ATOM      9  C   UNL     1       5.660  -5.764  24.067  0.00  0.00    +0.147 A 
ATOM     10  C   UNL     1       6.682  -4.879  24.453  0.00  0.00    +0.147 A 
ATOM     11  N   UNL     1       7.163  -4.494  25.687  0.00  0.00    -0.231 NA
ATOM     12  C   UNL     1       8.146  -3.662  25.418  0.00  0.00    +0.203 A 
ATOM     13  N   UNL     1       8.310  -3.458  24.064  0.00  0.00    -0.286 N 
ATOM     14  C   UNL     1       7.400  -4.267  23.434  0.00  0.00    +0.167 A 
ATOM     15  N   UNL     1       7.233  -4.456  22.114  0.00  0.00    -0.216 NA
ATOM     16  C   UNL     1       6.229  -5.321  21.864  0.00  0.00    +0.225 A 
ATOM     17  N   UNL     1       5.451  -5.979  22.749  0.00  0.00    -0.219 NA
ENDBRANCH   1  13
BRANCH   2  18
ATOM     18  O   UNL     1      10.167  -1.559  21.433  0.00  0.00    -0.385 OA
ATOM     19  H   UNL     1      10.936  -1.475  22.026  0.00  0.00    +0.210 HD
ENDBRANCH   2  18
BRANCH   3  20
ATOM     20  O   UNL     1       7.166  -0.238  22.740  0.00  0.00    -0.386 OA
ATOM     21  H   UNL     1       6.837  -0.789  22.007  0.00  0.00    +0.210 HD
ENDBRANCH   3  20
BRANCH   4  22
ATOM     22  C   UNL     1       9.737   0.688  24.823  0.00  0.00    +0.266 C 
BRANCH  22  23
ATOM     23  O   UNL     1      10.379   1.353  23.719  0.00  0.00    -0.462 OA
BRANCH  23  24
ATOM     24  C   UNL     1      10.320   2.711  23.714  0.00  0.00    +0.319 C 
ATOM     25  O   UNL     1      11.183   3.447  23.260  0.00  0.00    -0.250 OA
BRANCH  24  26
ATOM     26  C   UNL     1       9.088   3.203  24.402  0.00  0.00    +0.247 C 
BRANCH  26  27
ATOM     27  P   UNL     1       7.955   3.811  23.099  0.00  0.00    +0.338 P 
ATOM     28  O   UNL     1       6.998   4.326  21.997  0.00  0.00    -0.258 OA
BRANCH  27  29
ATOM     29  O   UNL     1       8.813   2.917  22.018  0.00  0.00    -0.324 OA
ATOM     30  H   UNL     1       9.361   3.529  21.486  0.00  0.00    +0.220 HD
ENDBRANCH  27  29
BRANCH  27  31
ATOM     31  O   UNL     1       8.935   5.132  23.017  0.00  0.00    -0.324 OA
ATOM     32  H   UNL     1       8.401   5.948  22.992  0.00  0.00    +0.220 HD
ENDBRANCH  27  31
ENDBRANCH  26  27
ENDBRANCH  24  26
ENDBRANCH  23  24
ENDBRANCH  22  23
ENDBRANCH   4  22
TORSDOF 10
ENDMDL
MODEL 6
REMARK VINA RESULT:      -6.4      1.666      2.895
REMARK  Name = 
REMARK  10 active torsions:
REMARK  status: ('A' for Active; 'I' for Inactive)
REMARK    1  A    between atoms: N_10  and  C_11
REMARK    2  A    between atoms: C_14  and  C_16
REMARK    3  A    between atoms: C_16  and  O_17
REMARK    4  A    between atoms: O_17  and  C_18
REMARK    5  A    between atoms: C_18  and  C_20
REMARK    6  A    between atoms: C_20  and  P_21
REMARK    7  A    between atoms: P_21  and  O_22
REMARK    8  A    between atoms: P_21  and  O_23
REMARK    9  A    between atoms: C_25  and  O_27
REMARK   10  A    between atoms: C_28  and  O_30
REMARK                            x       y       z     vdW  Elec       q    Type
REMARK                         _______ _______ _______ _____ _____    ______ ____
ROOT
ATOM      1  C   UNL     1       8.872  -3.253  23.997  0.00  0.00    +0.253 C 
ATOM      2  C   UNL     1       8.987  -3.196  25.527  0.00  0.00    +0.195 C 
ATOM      3  C   UNL     1       7.566  -2.902  26.012  0.00  0.00    +0.179 C 
ATOM      4  C   UNL     1       6.697  -3.086  24.769  0.00  0.00    +0.189 C 
ATOM      5  O   UNL     1       7.526  -3.744  23.783  0.00  0.00    -0.345 OA
ENDROOT
BRANCH   1  13
ATOM      6  N   UNL     1      10.234   2.198  21.693  0.00  0.00    -0.341 N 
ATOM      7  H   UNL     1      10.228   1.789  20.766  0.00  0.00    +0.144 HD
ATOM      8  H   UNL     1      10.931   2.903  21.892  0.00  0.00    +0.144 HD
ATOM      9  C   UNL     1      10.142   1.261  22.717  0.00  0.00    +0.147 A 
ATOM     10  C   UNL     1       9.629  -0.035  22.539  0.00  0.00    +0.147 A 
ATOM     11  N   UNL     1       9.147  -0.701  21.432  0.00  0.00    -0.231 NA
ATOM     12  C   UNL     1       8.833  -1.901  21.872  0.00  0.00    +0.203 A 
ATOM     13  N   UNL     1       9.055  -2.040  23.227  0.00  0.00    -0.286 N 
ATOM     14  C   UNL     1       9.604  -0.859  23.656  0.00  0.00    +0.167 A 
ATOM     15  N   UNL     1      10.048  -0.551  24.886  0.00  0.00    -0.216 NA
ATOM     16  C   UNL     1      10.516   0.713  24.939  0.00  0.00    +0.225 A 
ATOM     17  N   UNL     1      10.593   1.618  23.941  0.00  0.00    -0.219 NA
ENDBRANCH   1  13
BRANCH   2  18
ATOM     18  O   UNL     1       9.380  -4.494  26.027  0.00  0.00    -0.385 OA
ATOM     19  H   UNL     1      10.349  -4.571  25.961  0.00  0.00    +0.210 HD
ENDBRANCH   2  18
BRANCH   3  20
ATOM     20  O   UNL     1       7.469  -1.564  26.496  0.00  0.00    -0.386 OA
ATOM     21  H   UNL     1       6.790  -1.096  25.977  0.00  0.00    +0.210 HD
ENDBRANCH   3  20
BRANCH   4  22
ATOM     22  C   UNL     1       5.454  -3.932  25.031  0.00  0.00    +0.266 C 
BRANCH  22  23
ATOM     23  O   UNL     1       5.550  -5.175  24.312  0.00  0.00    -0.462 OA
BRANCH  23  24
ATOM     24  C   UNL     1       4.550  -5.443  23.431  0.00  0.00    +0.319 C 
ATOM     25  O   UNL     1       4.695  -5.564  22.223  0.00  0.00    -0.250 OA
BRANCH  24  26
ATOM     26  C   UNL     1       3.224  -5.504  24.117  0.00  0.00    +0.247 C 
BRANCH  26  27
ATOM     27  P   UNL     1       2.810  -7.275  24.322  0.00  0.00    +0.338 P 
ATOM     28  O   UNL     1       2.460  -8.773  24.494  0.00  0.00    -0.258 OA
BRANCH  27  29
ATOM     29  O   UNL     1       4.399  -7.615  24.074  0.00  0.00    -0.324 OA
ATOM     30  H   UNL     1       4.691  -8.230  24.777  0.00  0.00    +0.220 HD
ENDBRANCH  27  29
BRANCH  27  31
ATOM     31  O   UNL     1       2.407  -7.253  22.726  0.00  0.00    -0.324 OA
ATOM     32  H   UNL     1       1.984  -8.095  22.471  0.00  0.00    +0.220 HD
ENDBRANCH  27  31
ENDBRANCH  26  27
ENDBRANCH  24  26
ENDBRANCH  23  24
ENDBRANCH  22  23
ENDBRANCH   4  22
TORSDOF 10
ENDMDL
MODEL 7
REMARK VINA RESULT:      -6.3      1.668      2.436
REMARK  Name = 
REMARK  10 active torsions:
REMARK  status: ('A' for Active; 'I' for Inactive)
REMARK    1  A    between atoms: N_10  and  C_11
REMARK    2  A    between atoms: C_14  and  C_16
REMARK    3  A    between atoms: C_16  and  O_17
REMARK    4  A    between atoms: O_17  and  C_18
REMARK    5  A    between atoms: C_18  and  C_20
REMARK    6  A    between atoms: C_20  and  P_21
REMARK    7  A    between atoms: P_21  and  O_22
REMARK    8  A    between atoms: P_21  and  O_23
REMARK    9  A    between atoms: C_25  and  O_27
REMARK   10  A    between atoms: C_28  and  O_30
REMARK                            x       y       z     vdW  Elec       q    Type
REMARK                         _______ _______ _______ _____ _____    ______ ____
ROOT
ATOM      1  C   UNL     1       9.317  -3.838  24.768  0.00  0.00    +0.253 C 
ATOM      2  C   UNL     1       9.014  -4.890  25.844  0.00  0.00    +0.195 C 
ATOM      3  C   UNL     1       7.520  -5.181  25.693  0.00  0.00    +0.179 C 
ATOM      4  C   UNL     1       7.133  -4.498  24.383  0.00  0.00    +0.189 C 
ATOM      5  O   UNL     1       8.372  -4.155  23.718  0.00  0.00    -0.345 OA
ENDROOT
BRANCH   1  13
ATOM      6  N   UNL     1       9.011   2.222  25.021  0.00  0.00    -0.341 N 
ATOM      7  H   UNL     1       8.351   2.140  25.786  0.00  0.00    +0.144 HD
ATOM      8  H   UNL     1       8.859   2.958  24.345  0.00  0.00    +0.144 HD
ATOM      9  C   UNL     1       9.307   1.010  24.407  0.00  0.00    +0.147 A 
ATOM     10  C   UNL     1       9.117  -0.239  25.022  0.00  0.00    +0.147 A 
ATOM     11  N   UNL     1       8.618  -0.603  26.255  0.00  0.00    -0.231 NA
ATOM     12  C   UNL     1       8.659  -1.918  26.259  0.00  0.00    +0.203 A 
ATOM     13  N   UNL     1       9.196  -2.432  25.097  0.00  0.00    -0.286 N 
ATOM     14  C   UNL     1       9.455  -1.363  24.280  0.00  0.00    +0.167 A 
ATOM     15  N   UNL     1       9.921  -1.378  23.020  0.00  0.00    -0.216 NA
ATOM     16  C   UNL     1      10.062  -0.127  22.533  0.00  0.00    +0.225 A 
ATOM     17  N   UNL     1       9.781   1.044  23.141  0.00  0.00    -0.219 NA
ENDBRANCH   1  13
BRANCH   2  18
ATOM     18  O   UNL     1       9.747  -6.102  25.550  0.00  0.00    -0.385 OA
ATOM     19  H   UNL     1      10.351  -6.286  26.292  0.00  0.00    +0.210 HD
ENDBRANCH   2  18
BRANCH   3  20
ATOM     20  O   UNL     1       6.789  -4.623  26.782  0.00  0.00    -0.386 OA
ATOM     21  H   UNL     1       7.082  -3.703  26.912  0.00  0.00    +0.210 HD
ENDBRANCH   3  20
BRANCH   4  22
ATOM     22  C   UNL     1       6.299  -5.392  23.469  0.00  0.00    +0.266 C 
BRANCH  22  23
ATOM     23  O   UNL     1       5.220  -5.983  24.217  0.00  0.00    -0.462 OA
BRANCH  23  24
ATOM     24  C   UNL     1       3.965  -5.575  23.894  0.00  0.00    +0.319 C 
ATOM     25  O   UNL     1       3.658  -5.018  22.850  0.00  0.00    -0.250 OA
BRANCH  24  26
ATOM     26  C   UNL     1       3.006  -5.831  25.011  0.00  0.00    +0.247 C 
BRANCH  26  27
ATOM     27  P   UNL     1       2.600  -7.614  24.968  0.00  0.00    +0.338 P 
ATOM     28  O   UNL     1       2.257  -9.124  24.932  0.00  0.00    -0.258 OA
BRANCH  27  29
ATOM     29  O   UNL     1       4.039  -7.900  25.710  0.00  0.00    -0.324 OA
ATOM     30  H   UNL     1       4.603  -8.407  25.092  0.00  0.00    +0.220 HD
ENDBRANCH  27  29
BRANCH  27  31
ATOM     31  O   UNL     1       3.214  -7.607  23.441  0.00  0.00    -0.324 OA
ATOM     32  H   UNL     1       3.887  -8.306  23.342  0.00  0.00    +0.220 HD
ENDBRANCH  27  31
ENDBRANCH  26  27
ENDBRANCH  24  26
ENDBRANCH  23  24
ENDBRANCH  22  23
ENDBRANCH   4  22
TORSDOF 10
ENDMDL
MODEL 8
REMARK VINA RESULT:      -6.3      4.006      6.542
REMARK  Name = 
REMARK  10 active torsions:
REMARK  status: ('A' for Active; 'I' for Inactive)
REMARK    1  A    between atoms: N_10  and  C_11
REMARK    2  A    between atoms: C_14  and  C_16
REMARK    3  A    between atoms: C_16  and  O_17
REMARK    4  A    between atoms: O_17  and  C_18
REMARK    5  A    between atoms: C_18  and  C_20
REMARK    6  A    between atoms: C_20  and  P_21
REMARK    7  A    between atoms: P_21  and  O_22
REMARK    8  A    between atoms: P_21  and  O_23
REMARK    9  A    between atoms: C_25  and  O_27
REMARK   10  A    between atoms: C_28  and  O_30
REMARK                            x       y       z     vdW  Elec       q    Type
REMARK                         _______ _______ _______ _____ _____    ______ ____
ROOT
ATOM      1  C   UNL     1       8.036  -5.109  25.914  0.00  0.00    +0.253 C 
ATOM      2  C   UNL     1       9.175  -4.891  24.907  0.00  0.00    +0.195 C 
ATOM      3  C   UNL     1       9.178  -3.383  24.645  0.00  0.00    +0.179 C 
ATOM      4  C   UNL     1       8.244  -2.813  25.710  0.00  0.00    +0.189 C 
ATOM      5  O   UNL     1       8.019  -3.874  26.669  0.00  0.00    -0.345 OA
ENDROOT
BRANCH   1  13
ATOM      6  N   UNL     1       2.952  -6.347  22.831  0.00  0.00    -0.341 N 
ATOM      7  H   UNL     1       2.568  -6.769  23.669  0.00  0.00    +0.144 HD
ATOM      8  H   UNL     1       2.744  -6.786  21.945  0.00  0.00    +0.144 HD
ATOM      9  C   UNL     1       4.299  -6.019  22.940  0.00  0.00    +0.147 A 
ATOM     10  C   UNL     1       4.956  -5.835  24.169  0.00  0.00    +0.147 A 
ATOM     11  N   UNL     1       4.530  -5.938  25.477  0.00  0.00    -0.231 NA
ATOM     12  C   UNL     1       5.599  -5.678  26.199  0.00  0.00    +0.203 A 
ATOM     13  N   UNL     1       6.699  -5.375  25.423  0.00  0.00    -0.286 N 
ATOM     14  C   UNL     1       6.306  -5.514  24.117  0.00  0.00    +0.167 A 
ATOM     15  N   UNL     1       7.056  -5.387  23.009  0.00  0.00    -0.216 NA
ATOM     16  C   UNL     1       6.322  -5.585  21.894  0.00  0.00    +0.225 A 
ATOM     17  N   UNL     1       5.012  -5.894  21.798  0.00  0.00    -0.219 NA
ENDBRANCH   1  13
BRANCH   2  18
ATOM     18  O   UNL     1      10.433  -5.249  25.522  0.00  0.00    -0.385 OA
ATOM     19  H   UNL     1      10.640  -6.172  25.290  0.00  0.00    +0.210 HD
ENDBRANCH   2  18
BRANCH   3  20
ATOM     20  O   UNL     1       8.678  -3.102  23.340  0.00  0.00    -0.386 OA
ATOM     21  H   UNL     1       9.378  -3.299  22.691  0.00  0.00    +0.210 HD
ENDBRANCH   3  20
BRANCH   4  22
ATOM     22  C   UNL     1       8.827  -1.598  26.426  0.00  0.00    +0.266 C 
BRANCH  22  23
ATOM     23  O   UNL     1       9.572  -0.794  25.494  0.00  0.00    -0.462 OA
BRANCH  23  24
ATOM     24  C   UNL     1       9.069   0.439  25.222  0.00  0.00    +0.319 C 
ATOM     25  O   UNL     1       8.012   0.874  25.654  0.00  0.00    -0.250 OA
BRANCH  24  26
ATOM     26  C   UNL     1       9.943   1.184  24.266  0.00  0.00    +0.247 C 
BRANCH  26  27
ATOM     27  P   UNL     1       9.598   0.518  22.597  0.00  0.00    +0.338 P 
ATOM     28  O   UNL     1       9.305  -0.047  21.185  0.00  0.00    -0.258 OA
BRANCH  27  29
ATOM     29  O   UNL     1       8.246  -0.181  23.219  0.00  0.00    -0.324 OA
ATOM     30  H   UNL     1       8.248  -1.126  22.965  0.00  0.00    +0.220 HD
ENDBRANCH  27  29
BRANCH  27  31
ATOM     31  O   UNL     1      10.608  -0.718  23.000  0.00  0.00    -0.324 OA
ATOM     32  H   UNL     1      10.241  -1.226  23.748  0.00  0.00    +0.220 HD
ENDBRANCH  27  31
ENDBRANCH  26  27
ENDBRANCH  24  26
ENDBRANCH  23  24
ENDBRANCH  22  23
ENDBRANCH   4  22
TORSDOF 10
ENDMDL
MODEL 9
REMARK VINA RESULT:      -6.3      2.250      3.661
REMARK  Name = 
REMARK  10 active torsions:
REMARK  status: ('A' for Active; 'I' for Inactive)
REMARK    1  A    between atoms: N_10  and  C_11
REMARK    2  A    between atoms: C_14  and  C_16
REMARK    3  A    between atoms: C_16  and  O_17
REMARK    4  A    between atoms: O_17  and  C_18
REMARK    5  A    between atoms: C_18  and  C_20
REMARK    6  A    between atoms: C_20  and  P_21
REMARK    7  A    between atoms: P_21  and  O_22
REMARK    8  A    between atoms: P_21  and  O_23
REMARK    9  A    between atoms: C_25  and  O_27
REMARK   10  A    between atoms: C_28  and  O_30
REMARK                            x       y       z     vdW  Elec       q    Type
REMARK                         _______ _______ _______ _____ _____    ______ ____
ROOT
ATOM      1  C   UNL     1       7.792  -0.727  23.054  0.00  0.00    +0.253 C 
ATOM      2  C   UNL     1       8.299  -2.040  22.440  0.00  0.00    +0.195 C 
ATOM      3  C   UNL     1       9.185  -2.658  23.524  0.00  0.00    +0.179 C 
ATOM      4  C   UNL     1       8.907  -1.813  24.766  0.00  0.00    +0.189 C 
ATOM      5  O   UNL     1       7.731  -1.024  24.469  0.00  0.00    -0.345 OA
ENDROOT
BRANCH   1  13
ATOM      6  N   UNL     1      10.561   4.673  23.275  0.00  0.00    -0.341 N 
ATOM      7  H   UNL     1      11.329   4.282  22.741  0.00  0.00    +0.144 HD
ATOM      8  H   UNL     1      10.784   5.331  24.009  0.00  0.00    +0.144 HD
ATOM      9  C   UNL     1       9.635   3.725  23.696  0.00  0.00    +0.147 A 
ATOM     10  C   UNL     1       9.483   2.466  23.091  0.00  0.00    +0.147 A 
ATOM     11  N   UNL     1      10.140   1.850  22.047  0.00  0.00    -0.231 NA
ATOM     12  C   UNL     1       9.578   0.664  21.950  0.00  0.00    +0.203 A 
ATOM     13  N   UNL     1       8.559   0.487  22.863  0.00  0.00    -0.286 N 
ATOM     14  C   UNL     1       8.518   1.624  23.627  0.00  0.00    +0.167 A 
ATOM     15  N   UNL     1       7.731   1.882  24.685  0.00  0.00    -0.216 NA
ATOM     16  C   UNL     1       7.963   3.115  25.183  0.00  0.00    +0.225 A 
ATOM     17  N   UNL     1       8.858   4.032  24.760  0.00  0.00    -0.219 NA
ENDBRANCH   1  13
BRANCH   2  18
ATOM     18  O   UNL     1       7.180  -2.925  22.208  0.00  0.00    -0.385 OA
ATOM     19  H   UNL     1       7.126  -3.112  21.253  0.00  0.00    +0.210 HD
ENDBRANCH   2  18
BRANCH   3  20
ATOM     20  O   UNL     1      10.560  -2.569  23.157  0.00  0.00    -0.386 OA
ATOM     21  H   UNL     1      11.015  -1.994  23.799  0.00  0.00    +0.210 HD
ENDBRANCH   3  20
BRANCH   4  22
ATOM     22  C   UNL     1       8.651  -2.654  26.013  0.00  0.00    +0.266 C 
BRANCH  22  23
ATOM     23  O   UNL     1       8.573  -4.046  25.655  0.00  0.00    -0.462 OA
BRANCH  23  24
ATOM     24  C   UNL     1       7.325  -4.565  25.517  0.00  0.00    +0.319 C 
ATOM     25  O   UNL     1       6.932  -5.193  24.545  0.00  0.00    -0.250 OA
BRANCH  24  26
ATOM     26  C   UNL     1       6.458  -4.213  26.682  0.00  0.00    +0.247 C 
BRANCH  26  27
ATOM     27  P   UNL     1       6.436  -5.667  27.792  0.00  0.00    +0.338 P 
ATOM     28  O   UNL     1       6.418  -6.899  28.730  0.00  0.00    -0.258 OA
BRANCH  27  29
ATOM     29  O   UNL     1       7.951  -6.022  27.260  0.00  0.00    -0.324 OA
ATOM     30  H   UNL     1       7.963  -5.917  26.288  0.00  0.00    +0.220 HD
ENDBRANCH  27  29
BRANCH  27  31
ATOM     31  O   UNL     1       5.658  -6.451  26.571  0.00  0.00    -0.324 OA
ATOM     32  H   UNL     1       6.284  -7.008  26.072  0.00  0.00    +0.220 HD
ENDBRANCH  27  31
ENDBRANCH  26  27
ENDBRANCH  24  26
ENDBRANCH  23  24
ENDBRANCH  22  23
ENDBRANCH   4  22
TORSDOF 10
ENDMDL
