MODEL 1
REMARK VINA RESULT:      -7.4      0.000      0.000
REMARK  Name = 
REMARK  7 active torsions:
REMARK  status: ('A' for Active; 'I' for Inactive)
REMARK    1  A    between atoms: C_2  and  N_20
REMARK    2  A    between atoms: C_8  and  O_10
REMARK    3  A    between atoms: O_10  and  C_11
REMARK    4  A    between atoms: C_11  and  C_13
REMARK    5  A    between atoms: C_16  and  O_17
REMARK    6  A    between atoms: C_21  and  C_23
REMARK    7  A    between atoms: C_26  and  O_27
REMARK                            x       y       z     vdW  Elec       q    Type
REMARK                         _______ _______ _______ _____ _____    ______ ____
ROOT
ATOM      1  C   UNL     1       7.494  -4.313  23.843  0.00  0.00    +0.128 C 
ATOM      2  C   UNL     1       6.744  -4.476  25.187  0.00  0.00    +0.198 C 
ATOM      3  C   UNL     1       5.687  -3.386  25.417  0.00  0.00    +0.048 C 
ATOM      4  C   UNL     1       4.409  -3.430  24.574  0.00  0.00    +0.019 C 
ATOM      5  C   UNL     1       4.387  -4.267  23.300  0.00  0.00    +0.081 C 
ATOM      6  N   UNL     1       5.460  -3.963  22.351  0.00  0.00    -0.314 NA
ATOM      7  H   UNL     1       5.127  -4.241  21.424  0.00  0.00    +0.122 HD
ATOM      8  C   UNL     1       6.666  -4.767  22.621  0.00  0.00    +0.106 C 
ENDROOT
BRANCH   1   9
ATOM      9  N   UNL     1       8.003  -2.958  23.609  0.00  0.00    -0.304 N 
ATOM     10  H   UNL     1       7.333  -2.296  23.232  0.00  0.00    +0.149 HD
ATOM     11  C   UNL     1       9.337  -2.633  23.700  0.00  0.00    +0.244 C 
ATOM     12  O   UNL     1      10.199  -3.410  24.091  0.00  0.00    -0.270 OA
BRANCH  11  13
ATOM     13  C   UNL     1       9.703  -1.289  23.177  0.00  0.00    +0.037 A 
ATOM     14  C   UNL     1       9.333  -0.967  21.865  0.00  0.00    +0.016 A 
ATOM     15  C   UNL     1       9.518   0.332  21.387  0.00  0.00    +0.046 A 
ATOM     16  C   UNL     1      10.084   1.295  22.215  0.00  0.00    +0.117 A 
ATOM     17  C   UNL     1      10.518   0.971  23.499  0.00  0.00    +0.046 A 
ATOM     18  C   UNL     1      10.331  -0.327  23.981  0.00  0.00    +0.016 A 
BRANCH  16  19
ATOM     19  O   UNL     1      10.183   2.566  21.733  0.00  0.00    -0.507 OA
ATOM     20  H   UNL     1      11.122   2.813  21.691  0.00  0.00    +0.292 HD
ENDBRANCH  16  19
ENDBRANCH  11  13
ENDBRANCH   1   9
BRANCH   2  21
ATOM     21  O   UNL     1       6.138  -5.792  25.217  0.00  0.00    -0.456 OA
BRANCH  21  22
ATOM     22  C   UNL     1       5.653  -6.240  26.396  0.00  0.00    +0.340 C 
ATOM     23  O   UNL     1       6.232  -6.206  27.468  0.00  0.00    -0.245 OA
BRANCH  22  24
ATOM     24  C   UNL     1       4.264  -6.757  26.229  0.00  0.00    +0.059 A 
ATOM     25  C   UNL     1       3.291  -6.665  27.237  0.00  0.00    +0.018 A 
ATOM     26  C   UNL     1       2.015  -7.200  27.034  0.00  0.00    +0.046 A 
ATOM     27  C   UNL     1       1.705  -7.811  25.825  0.00  0.00    +0.117 A 
ATOM     28  C   UNL     1       2.653  -7.910  24.813  0.00  0.00    +0.046 A 
ATOM     29  C   UNL     1       3.933  -7.383  25.017  0.00  0.00    +0.018 A 
BRANCH  27  30
ATOM     30  O   UNL     1       0.444  -8.306  25.668  0.00  0.00    -0.507 OA
ATOM     31  H   UNL     1      -0.079  -8.088  26.457  0.00  0.00    +0.292 HD
ENDBRANCH  27  30
ENDBRANCH  22  24
ENDBRANCH  21  22
ENDBRANCH   2  21
TORSDOF 7
ENDMDL
MODEL 2
REMARK VINA RESULT:      -7.4      2.495      3.587
REMARK  Name = 
REMARK  7 active torsions:
REMARK  status: ('A' for Active; 'I' for Inactive)
REMARK    1  A    between atoms: C_2  and  N_20
REMARK    2  A    between atoms: C_8  and  O_10
REMARK    3  A    between atoms: O_10  and  C_11
REMARK    4  A    between atoms: C_11  and  C_13
REMARK    5  A    between atoms: C_16  and  O_17
REMARK    6  A    between atoms: C_21  and  C_23
REMARK    7  A    between atoms: C_26  and  O_27
REMARK                            x       y       z     vdW  Elec       q    Type
REMARK                         _______ _______ _______ _____ _____    ______ ____
ROOT
ATOM      1  C   UNL     1       9.173  -1.479  24.575  0.00  0.00    +0.128 C 
ATOM      2  C   UNL     1       7.897  -2.170  25.113  0.00  0.00    +0.198 C 
ATOM      3  C   UNL     1       6.616  -1.674  24.427  0.00  0.00    +0.048 C 
ATOM      4  C   UNL     1       6.363  -2.094  22.977  0.00  0.00    +0.019 C 
ATOM      5  C   UNL     1       7.524  -2.629  22.145  0.00  0.00    +0.081 C 
ATOM      6  N   UNL     1       8.692  -1.747  22.089  0.00  0.00    -0.314 NA
ATOM      7  H   UNL     1       9.194  -1.971  21.226  0.00  0.00    +0.122 HD
ATOM      8  C   UNL     1       9.625  -2.013  23.199  0.00  0.00    +0.106 C 
ENDROOT
BRANCH   1   9
ATOM      9  N   UNL     1       9.078  -0.016  24.521  0.00  0.00    -0.304 N 
ATOM     10  H   UNL     1       8.167   0.355  24.275  0.00  0.00    +0.149 HD
ATOM     11  C   UNL     1      10.175   0.809  24.600  0.00  0.00    +0.244 C 
ATOM     12  O   UNL     1      11.309   0.410  24.835  0.00  0.00    -0.270 OA
BRANCH  11  13
ATOM     13  C   UNL     1       9.925   2.237  24.266  0.00  0.00    +0.037 A 
ATOM     14  C   UNL     1       8.723   2.815  24.696  0.00  0.00    +0.016 A 
ATOM     15  C   UNL     1       8.514   4.186  24.540  0.00  0.00    +0.046 A 
ATOM     16  C   UNL     1       9.497   4.968  23.944  0.00  0.00    +0.117 A 
ATOM     17  C   UNL     1      10.667   4.395  23.450  0.00  0.00    +0.046 A 
ATOM     18  C   UNL     1      10.881   3.023  23.608  0.00  0.00    +0.016 A 
BRANCH  16  19
ATOM     19  O   UNL     1       9.282   6.313  23.873  0.00  0.00    -0.507 OA
ATOM     20  H   UNL     1       9.540   6.716  24.718  0.00  0.00    +0.292 HD
ENDBRANCH  16  19
ENDBRANCH  11  13
ENDBRANCH   1   9
BRANCH   2  21
ATOM     21  O   UNL     1       8.047  -3.602  24.946  0.00  0.00    -0.456 OA
BRANCH  21  22
ATOM     22  C   UNL     1       7.578  -4.405  25.926  0.00  0.00    +0.340 C 
ATOM     23  O   UNL     1       7.935  -4.398  27.091  0.00  0.00    -0.245 OA
BRANCH  22  24
ATOM     24  C   UNL     1       6.507  -5.301  25.401  0.00  0.00    +0.059 A 
ATOM     25  C   UNL     1       6.258  -5.468  24.030  0.00  0.00    +0.018 A 
ATOM     26  C   UNL     1       5.216  -6.296  23.600  0.00  0.00    +0.046 A 
ATOM     27  C   UNL     1       4.434  -6.966  24.532  0.00  0.00    +0.117 A 
ATOM     28  C   UNL     1       4.666  -6.816  25.895  0.00  0.00    +0.046 A 
ATOM     29  C   UNL     1       5.703  -5.983  26.328  0.00  0.00    +0.018 A 
BRANCH  27  30
ATOM     30  O   UNL     1       3.438  -7.772  24.065  0.00  0.00    -0.507 OA
ATOM     31  H   UNL     1       2.583  -7.347  24.239  0.00  0.00    +0.292 HD
ENDBRANCH  27  30
ENDBRANCH  22  24
ENDBRANCH  21  22
ENDBRANCH   2  21
TORSDOF 7
ENDMDL
MODEL 3
REMARK VINA RESULT:      -7.1      2.749      9.871
REMARK  Name = 
REMARK  7 active torsions:
REMARK  status: ('A' for Active; 'I' for Inactive)
REMARK    1  A    between atoms: C_2  and  N_20
REMARK    2  A    between atoms: C_8  and  O_10
REMARK    3  A    between atoms: O_10  and  C_11
REMARK    4  A    between atoms: C_11  and  C_13
REMARK    5  A    between atoms: C_16  and  O_17
REMARK    6  A    between atoms: C_21  and  C_23
REMARK    7  A    between atoms: C_26  and  O_27
REMARK                            x       y       z     vdW  Elec       q    Type
REMARK                         _______ _______ _______ _____ _____    ______ ____
ROOT
ATOM      1  C   UNL     1       7.501  -0.471  23.122  0.00  0.00    +0.128 C 
ATOM      2  C   UNL     1       7.828   0.765  23.994  0.00  0.00    +0.198 C 
ATOM      3  C   UNL     1       8.700   0.424  25.211  0.00  0.00    +0.048 C 
ATOM      4  C   UNL     1      10.170   0.071  24.970  0.00  0.00    +0.019 C 
ATOM      5  C   UNL     1      10.621  -0.319  23.566  0.00  0.00    +0.081 C 
ATOM      6  N   UNL     1       9.860  -1.417  22.964  0.00  0.00    -0.314 NA
ATOM      7  H   UNL     1      10.470  -1.857  22.271  0.00  0.00    +0.122 HD
ATOM      8  C   UNL     1       8.680  -0.922  22.233  0.00  0.00    +0.106 C 
ENDROOT
BRANCH   1   9
ATOM      9  N   UNL     1       7.002  -1.620  23.886  0.00  0.00    -0.304 N 
ATOM     10  H   UNL     1       7.395  -1.734  24.814  0.00  0.00    +0.149 HD
ATOM     11  C   UNL     1       6.208  -2.598  23.334  0.00  0.00    +0.244 C 
ATOM     12  O   UNL     1       5.754  -2.543  22.197  0.00  0.00    -0.270 OA
BRANCH  11  13
ATOM     13  C   UNL     1       6.015  -3.812  24.172  0.00  0.00    +0.037 A 
ATOM     14  C   UNL     1       7.116  -4.305  24.884  0.00  0.00    +0.016 A 
ATOM     15  C   UNL     1       6.946  -5.345  25.800  0.00  0.00    +0.046 A 
ATOM     16  C   UNL     1       5.683  -5.895  25.988  0.00  0.00    +0.117 A 
ATOM     17  C   UNL     1       4.593  -5.460  25.238  0.00  0.00    +0.046 A 
ATOM     18  C   UNL     1       4.759  -4.416  24.323  0.00  0.00    +0.016 A 
BRANCH  16  19
ATOM     19  O   UNL     1       5.548  -6.861  26.941  0.00  0.00    -0.507 OA
ATOM     20  H   UNL     1       6.027  -6.583  27.739  0.00  0.00    +0.292 HD
ENDBRANCH  16  19
ENDBRANCH  11  13
ENDBRANCH   1   9
BRANCH   2  21
ATOM     21  O   UNL     1       8.477   1.755  23.158  0.00  0.00    -0.456 OA
BRANCH  21  22
ATOM     22  C   UNL     1       8.215   3.059  23.401  0.00  0.00    +0.340 C 
ATOM     23  O   UNL     1       7.110   3.552  23.548  0.00  0.00    -0.245 OA
BRANCH  22  24
ATOM     24  C   UNL     1       9.482   3.837  23.513  0.00  0.00    +0.059 A 
ATOM     25  C   UNL     1      10.740   3.291  23.210  0.00  0.00    +0.018 A 
ATOM     26  C   UNL     1      11.897   4.060  23.368  0.00  0.00    +0.046 A 
ATOM     27  C   UNL     1      11.801   5.373  23.814  0.00  0.00    +0.117 A 
ATOM     28  C   UNL     1      10.564   5.932  24.117  0.00  0.00    +0.046 A 
ATOM     29  C   UNL     1       9.406   5.162  23.967  0.00  0.00    +0.018 A 
BRANCH  27  30
ATOM     30  O   UNL     1      12.955   6.088  23.939  0.00  0.00    -0.507 OA
ATOM     31  H   UNL     1      13.697   5.470  24.040  0.00  0.00    +0.292 HD
ENDBRANCH  27  30
ENDBRANCH  22  24
ENDBRANCH  21  22
ENDBRANCH   2  21
TORSDOF 7
ENDMDL
MODEL 4
REMARK VINA RESULT:      -7.1      1.666      8.934
REMARK  Name = 
REMARK  7 active torsions:
REMARK  status: ('A' for Active; 'I' for Inactive)
REMARK    1  A    between atoms: C_2  and  N_20
REMARK    2  A    between atoms: C_8  and  O_10
REMARK    3  A    between atoms: O_10  and  C_11
REMARK    4  A    between atoms: C_11  and  C_13
REMARK    5  A    between atoms: C_16  and  O_17
REMARK    6  A    between atoms: C_21  and  C_23
REMARK    7  A    between atoms: C_26  and  O_27
REMARK                            x       y       z     vdW  Elec       q    Type
REMARK                         _______ _______ _______ _____ _____    ______ ____
ROOT
ATOM      1  C   UNL     1       7.776  -3.645  25.377  0.00  0.00    +0.128 C 
ATOM      2  C   UNL     1       8.320  -3.101  24.033  0.00  0.00    +0.198 C 
ATOM      3  C   UNL     1       7.213  -2.565  23.114  0.00  0.00    +0.048 C 
ATOM      4  C   UNL     1       6.531  -1.248  23.496  0.00  0.00    +0.019 C 
ATOM      5  C   UNL     1       6.667  -0.727  24.922  0.00  0.00    +0.081 C 
ATOM      6  N   UNL     1       6.267  -1.679  25.961  0.00  0.00    -0.314 NA
ATOM      7  H   UNL     1       5.998  -1.130  26.781  0.00  0.00    +0.122 HD
ATOM      8  C   UNL     1       7.394  -2.532  26.377  0.00  0.00    +0.106 C 
ENDROOT
BRANCH   1   9
ATOM      9  N   UNL     1       6.650  -4.573  25.229  0.00  0.00    -0.304 N 
ATOM     10  H   UNL     1       5.944  -4.302  24.553  0.00  0.00    +0.149 HD
ATOM     11  C   UNL     1       6.444  -5.640  26.072  0.00  0.00    +0.244 C 
ATOM     12  O   UNL     1       7.234  -5.978  26.945  0.00  0.00    -0.270 OA
BRANCH  11  13
ATOM     13  C   UNL     1       5.123  -6.312  25.938  0.00  0.00    +0.037 A 
ATOM     14  C   UNL     1       4.289  -6.358  27.063  0.00  0.00    +0.016 A 
ATOM     15  C   UNL     1       2.984  -6.841  26.944  0.00  0.00    +0.046 A 
ATOM     16  C   UNL     1       2.526  -7.286  25.708  0.00  0.00    +0.117 A 
ATOM     17  C   UNL     1       3.367  -7.309  24.598  0.00  0.00    +0.046 A 
ATOM     18  C   UNL     1       4.673  -6.824  24.714  0.00  0.00    +0.016 A 
BRANCH  16  19
ATOM     19  O   UNL     1       1.225  -7.684  25.621  0.00  0.00    -0.507 OA
ATOM     20  H   UNL     1       0.993  -7.791  24.684  0.00  0.00    +0.292 HD
ENDBRANCH  16  19
ENDBRANCH  11  13
ENDBRANCH   1   9
BRANCH   2  21
ATOM     21  O   UNL     1       9.295  -2.068  24.319  0.00  0.00    -0.456 OA
BRANCH  21  22
ATOM     22  C   UNL     1      10.093  -1.654  23.310  0.00  0.00    +0.340 C 
ATOM     23  O   UNL     1      10.714  -2.374  22.547  0.00  0.00    -0.245 OA
BRANCH  22  24
ATOM     24  C   UNL     1      10.087  -0.166  23.213  0.00  0.00    +0.059 A 
ATOM     25  C   UNL     1       9.893   0.518  22.002  0.00  0.00    +0.018 A 
ATOM     26  C   UNL     1       9.933   1.915  21.969  0.00  0.00    +0.046 A 
ATOM     27  C   UNL     1      10.151   2.630  23.140  0.00  0.00    +0.117 A 
ATOM     28  C   UNL     1      10.343   1.972  24.350  0.00  0.00    +0.046 A 
ATOM     29  C   UNL     1      10.312   0.574  24.384  0.00  0.00    +0.018 A 
BRANCH  27  30
ATOM     30  O   UNL     1      10.168   3.991  23.061  0.00  0.00    -0.507 OA
ATOM     31  H   UNL     1      10.187   4.250  22.125  0.00  0.00    +0.292 HD
ENDBRANCH  27  30
ENDBRANCH  22  24
ENDBRANCH  21  22
ENDBRANCH   2  21
TORSDOF 7
ENDMDL
MODEL 5
REMARK VINA RESULT:      -7.1      2.008      8.669
REMARK  Name = 
REMARK  7 active torsions:
REMARK  status: ('A' for Active; 'I' for Inactive)
REMARK    1  A    between atoms: C_2  and  N_20
REMARK    2  A    between atoms: C_8  and  O_10
REMARK    3  A    between atoms: O_10  and  C_11
REMARK    4  A    between atoms: C_11  and  C_13
REMARK    5  A    between atoms: C_16  and  O_17
REMARK    6  A    between atoms: C_21  and  C_23
REMARK    7  A    between atoms: C_26  and  O_27
REMARK                            x       y       z     vdW  Elec       q    Type
REMARK                         _______ _______ _______ _____ _____    ______ ____
ROOT
ATOM      1  C   UNL     1       6.870  -3.540  24.332  0.00  0.00    +0.128 C 
ATOM      2  C   UNL     1       7.360  -2.947  25.675  0.00  0.00    +0.198 C 
ATOM      3  C   UNL     1       7.605  -4.019  26.747  0.00  0.00    +0.048 C 
ATOM      4  C   UNL     1       8.818  -4.939  26.586  0.00  0.00    +0.019 C 
ATOM      5  C   UNL     1       9.496  -5.043  25.224  0.00  0.00    +0.081 C 
ATOM      6  N   UNL     1       8.599  -5.398  24.121  0.00  0.00    -0.314 NA
ATOM      7  H   UNL     1       9.173  -5.838  23.398  0.00  0.00    +0.122 HD
ATOM      8  C   UNL     1       7.996  -4.201  23.507  0.00  0.00    +0.106 C 
ENDROOT
BRANCH   1   9
ATOM      9  N   UNL     1       5.753  -4.480  24.472  0.00  0.00    -0.304 N 
ATOM     10  H   UNL     1       5.806  -5.109  25.266  0.00  0.00    +0.149 HD
ATOM     11  C   UNL     1       4.793  -4.652  23.501  0.00  0.00    +0.244 C 
ATOM     12  O   UNL     1       4.717  -3.962  22.492  0.00  0.00    -0.270 OA
BRANCH  11  13
ATOM     13  C   UNL     1       3.895  -5.823  23.693  0.00  0.00    +0.037 A 
ATOM     14  C   UNL     1       4.224  -6.751  24.689  0.00  0.00    +0.016 A 
ATOM     15  C   UNL     1       3.333  -7.778  25.006  0.00  0.00    +0.046 A 
ATOM     16  C   UNL     1       2.129  -7.880  24.319  0.00  0.00    +0.117 A 
ATOM     17  C   UNL     1       1.820  -7.005  23.280  0.00  0.00    +0.046 A 
ATOM     18  C   UNL     1       2.708  -5.974  22.963  0.00  0.00    +0.016 A 
BRANCH  16  19
ATOM     19  O   UNL     1       1.258  -8.856  24.707  0.00  0.00    -0.507 OA
ATOM     20  H   UNL     1       1.209  -8.863  25.676  0.00  0.00    +0.292 HD
ENDBRANCH  16  19
ENDBRANCH  11  13
ENDBRANCH   1   9
BRANCH   2  21
ATOM     21  O   UNL     1       8.568  -2.186  25.426  0.00  0.00    -0.456 OA
BRANCH  21  22
ATOM     22  C   UNL     1       8.592  -0.892  25.813  0.00  0.00    +0.340 C 
ATOM     23  O   UNL     1       8.339  -0.473  26.930  0.00  0.00    -0.245 OA
BRANCH  22  24
ATOM     24  C   UNL     1       9.021  -0.015  24.685  0.00  0.00    +0.059 A 
ATOM     25  C   UNL     1       8.312   0.074  23.477  0.00  0.00    +0.018 A 
ATOM     26  C   UNL     1       8.783   0.888  22.442  0.00  0.00    +0.046 A 
ATOM     27  C   UNL     1       9.950   1.622  22.616  0.00  0.00    +0.117 A 
ATOM     28  C   UNL     1      10.665   1.551  23.806  0.00  0.00    +0.046 A 
ATOM     29  C   UNL     1      10.200   0.731  24.839  0.00  0.00    +0.018 A 
BRANCH  27  30
ATOM     30  O   UNL     1      10.363   2.412  21.584  0.00  0.00    -0.507 OA
ATOM     31  H   UNL     1       9.737   2.319  20.847  0.00  0.00    +0.292 HD
ENDBRANCH  27  30
ENDBRANCH  22  24
ENDBRANCH  21  22
ENDBRANCH   2  21
TORSDOF 7
ENDMDL
MODEL 6
REMARK VINA RESULT:      -7.0      2.657      4.298
REMARK  Name = 
REMARK  7 active torsions:
REMARK  status: ('A' for Active; 'I' for Inactive)
REMARK    1  A    between atoms: C_2  and  N_20
REMARK    2  A    between atoms: C_8  and  O_10
REMARK    3  A    between atoms: O_10  and  C_11
REMARK    4  A    between atoms: C_11  and  C_13
REMARK    5  A    between atoms: C_16  and  O_17
REMARK    6  A    between atoms: C_21  and  C_23
REMARK    7  A    between atoms: C_26  and  O_27
REMARK                            x       y       z     vdW  Elec       q    Type
REMARK                         _______ _______ _______ _____ _____    ______ ____
ROOT
ATOM      1  C   UNL     1       8.684  -0.609  23.534  0.00  0.00    +0.128 C 
ATOM      2  C   UNL     1       8.853  -1.705  24.614  0.00  0.00    +0.198 C 
ATOM      3  C   UNL     1       8.244  -1.309  25.966  0.00  0.00    +0.048 C 
ATOM      4  C   UNL     1       6.719  -1.269  26.089  0.00  0.00    +0.019 C 
ATOM      5  C   UNL     1       5.871  -1.225  24.822  0.00  0.00    +0.081 C 
ATOM      6  N   UNL     1       6.208  -0.138  23.900  0.00  0.00    -0.314 NA
ATOM      7  H   UNL     1       5.370   0.055  23.347  0.00  0.00    +0.122 HD
ATOM      8  C   UNL     1       7.257  -0.542  22.946  0.00  0.00    +0.106 C 
ENDROOT
BRANCH   1   9
ATOM      9  N   UNL     1       9.090   0.729  23.978  0.00  0.00    -0.304 N 
ATOM     10  H   UNL     1       8.724   1.022  24.878  0.00  0.00    +0.149 HD
ATOM     11  C   UNL     1       9.755   1.618  23.166  0.00  0.00    +0.244 C 
ATOM     12  O   UNL     1      10.167   1.338  22.047  0.00  0.00    -0.270 OA
BRANCH  11  13
ATOM     13  C   UNL     1       9.853   3.008  23.688  0.00  0.00    +0.037 A 
ATOM     14  C   UNL     1      10.994   3.755  23.367  0.00  0.00    +0.016 A 
ATOM     15  C   UNL     1      11.059   5.108  23.704  0.00  0.00    +0.046 A 
ATOM     16  C   UNL     1       9.993   5.703  24.371  0.00  0.00    +0.117 A 
ATOM     17  C   UNL     1       8.882   4.955  24.755  0.00  0.00    +0.046 A 
ATOM     18  C   UNL     1       8.812   3.601  24.416  0.00  0.00    +0.016 A 
BRANCH  16  19
ATOM     19  O   UNL     1      10.068   7.041  24.619  0.00  0.00    -0.507 OA
ATOM     20  H   UNL     1      10.933   7.366  24.323  0.00  0.00    +0.292 HD
ENDBRANCH  16  19
ENDBRANCH  11  13
ENDBRANCH   1   9
BRANCH   2  21
ATOM     21  O   UNL     1       8.253  -2.929  24.120  0.00  0.00    -0.456 OA
BRANCH  21  22
ATOM     22  C   UNL     1       8.683  -4.099  24.641  0.00  0.00    +0.340 C 
ATOM     23  O   UNL     1       9.831  -4.510  24.629  0.00  0.00    -0.245 OA
BRANCH  22  24
ATOM     24  C   UNL     1       7.557  -4.829  25.290  0.00  0.00    +0.059 A 
ATOM     25  C   UNL     1       7.518  -5.101  26.667  0.00  0.00    +0.018 A 
ATOM     26  C   UNL     1       6.451  -5.821  27.213  0.00  0.00    +0.046 A 
ATOM     27  C   UNL     1       5.418  -6.258  26.392  0.00  0.00    +0.117 A 
ATOM     28  C   UNL     1       5.436  -5.997  25.026  0.00  0.00    +0.046 A 
ATOM     29  C   UNL     1       6.507  -5.284  24.477  0.00  0.00    +0.018 A 
BRANCH  27  30
ATOM     30  O   UNL     1       4.393  -6.944  26.971  0.00  0.00    -0.507 OA
ATOM     31  H   UNL     1       4.346  -7.830  26.576  0.00  0.00    +0.292 HD
ENDBRANCH  27  30
ENDBRANCH  22  24
ENDBRANCH  21  22
ENDBRANCH   2  21
TORSDOF 7
ENDMDL
MODEL 7
REMARK VINA RESULT:      -6.9      1.974      8.873
REMARK  Name = 
REMARK  7 active torsions:
REMARK  status: ('A' for Active; 'I' for Inactive)
REMARK    1  A    between atoms: C_2  and  N_20
REMARK    2  A    between atoms: C_8  and  O_10
REMARK    3  A    between atoms: O_10  and  C_11
REMARK    4  A    between atoms: C_11  and  C_13
REMARK    5  A    between atoms: C_16  and  O_17
REMARK    6  A    between atoms: C_21  and  C_23
REMARK    7  A    between atoms: C_26  and  O_27
REMARK                            x       y       z     vdW  Elec       q    Type
REMARK                         _______ _______ _______ _____ _____    ______ ____
ROOT
ATOM      1  C   UNL     1       7.532  -4.545  23.750  0.00  0.00    +0.128 C 
ATOM      2  C   UNL     1       7.577  -3.018  24.002  0.00  0.00    +0.198 C 
ATOM      3  C   UNL     1       7.063  -2.628  25.395  0.00  0.00    +0.048 C 
ATOM      4  C   UNL     1       7.937  -2.963  26.607  0.00  0.00    +0.019 C 
ATOM      5  C   UNL     1       9.052  -3.992  26.459  0.00  0.00    +0.081 C 
ATOM      6  N   UNL     1       8.620  -5.288  25.930  0.00  0.00    -0.314 NA
ATOM      7  H   UNL     1       9.294  -5.984  26.257  0.00  0.00    +0.122 HD
ATOM      8  C   UNL     1       8.669  -5.315  24.457  0.00  0.00    +0.106 C 
ENDROOT
BRANCH   1   9
ATOM      9  N   UNL     1       6.245  -5.163  24.084  0.00  0.00    -0.304 N 
ATOM     10  H   UNL     1       6.232  -5.720  24.932  0.00  0.00    +0.149 HD
ATOM     11  C   UNL     1       5.171  -5.167  23.225  0.00  0.00    +0.244 C 
ATOM     12  O   UNL     1       5.152  -4.563  22.160  0.00  0.00    -0.270 OA
BRANCH  11  13
ATOM     13  C   UNL     1       4.045  -6.058  23.615  0.00  0.00    +0.037 A 
ATOM     14  C   UNL     1       4.255  -6.970  24.658  0.00  0.00    +0.016 A 
ATOM     15  C   UNL     1       3.186  -7.716  25.158  0.00  0.00    +0.046 A 
ATOM     16  C   UNL     1       1.920  -7.557  24.607  0.00  0.00    +0.117 A 
ATOM     17  C   UNL     1       1.711  -6.704  23.525  0.00  0.00    +0.046 A 
ATOM     18  C   UNL     1       2.778  -5.954  23.025  0.00  0.00    +0.016 A 
BRANCH  16  19
ATOM     19  O   UNL     1       0.891  -8.252  25.171  0.00  0.00    -0.507 OA
ATOM     20  H   UNL     1       1.257  -8.905  25.790  0.00  0.00    +0.292 HD
ENDBRANCH  16  19
ENDBRANCH  11  13
ENDBRANCH   1   9
BRANCH   2  21
ATOM     21  O   UNL     1       8.939  -2.563  23.811  0.00  0.00    -0.456 OA
BRANCH  21  22
ATOM     22  C   UNL     1       9.235  -1.915  22.662  0.00  0.00    +0.340 C 
ATOM     23  O   UNL     1       9.129  -2.370  21.536  0.00  0.00    -0.245 OA
BRANCH  22  24
ATOM     24  C   UNL     1       9.680  -0.520  22.946  0.00  0.00    +0.059 A 
ATOM     25  C   UNL     1      10.068  -0.090  24.225  0.00  0.00    +0.018 A 
ATOM     26  C   UNL     1      10.442   1.240  24.437  0.00  0.00    +0.046 A 
ATOM     27  C   UNL     1      10.444   2.136  23.374  0.00  0.00    +0.117 A 
ATOM     28  C   UNL     1      10.066   1.730  22.100  0.00  0.00    +0.046 A 
ATOM     29  C   UNL     1       9.683   0.401  21.887  0.00  0.00    +0.018 A 
BRANCH  27  30
ATOM     30  O   UNL     1      10.829   3.420  23.626  0.00  0.00    -0.507 OA
ATOM     31  H   UNL     1      11.798   3.472  23.573  0.00  0.00    +0.292 HD
ENDBRANCH  27  30
ENDBRANCH  22  24
ENDBRANCH  21  22
ENDBRANCH   2  21
TORSDOF 7
ENDMDL
MODEL 8
REMARK VINA RESULT:      -6.9      2.848      9.523
REMARK  Name = 
REMARK  7 active torsions:
REMARK  status: ('A' for Active; 'I' for Inactive)
REMARK    1  A    between atoms: C_2  and  N_20
REMARK    2  A    between atoms: C_8  and  O_10
REMARK    3  A    between atoms: O_10  and  C_11
REMARK    4  A    between atoms: C_11  and  C_13
REMARK    5  A    between atoms: C_16  and  O_17
REMARK    6  A    between atoms: C_21  and  C_23
REMARK    7  A    between atoms: C_26  and  O_27
REMARK                            x       y       z     vdW  Elec       q    Type
REMARK                         _______ _______ _______ _____ _____    ______ ____
ROOT
ATOM      1  C   UNL     1       8.754  -1.326  24.362  0.00  0.00    +0.128 C 
ATOM      2  C   UNL     1       8.521  -0.061  23.500  0.00  0.00    +0.198 C 
ATOM      3  C   UNL     1       7.072   0.442  23.558  0.00  0.00    +0.048 C 
ATOM      4  C   UNL     1       6.587   1.102  24.852  0.00  0.00    +0.019 C 
ATOM      5  C   UNL     1       7.381   0.891  26.137  0.00  0.00    +0.081 C 
ATOM      6  N   UNL     1       7.612  -0.512  26.488  0.00  0.00    -0.314 NA
ATOM      7  H   UNL     1       7.753  -0.547  27.501  0.00  0.00    +0.122 HD
ATOM      8  C   UNL     1       8.850  -1.027  25.874  0.00  0.00    +0.106 C 
ENDROOT
BRANCH   1   9
ATOM      9  N   UNL     1       7.766  -2.386  24.138  0.00  0.00    -0.304 N 
ATOM     10  H   UNL     1       6.797  -2.087  24.120  0.00  0.00    +0.149 HD
ATOM     11  C   UNL     1       8.088  -3.724  24.146  0.00  0.00    +0.244 C 
ATOM     12  O   UNL     1       9.236  -4.145  24.226  0.00  0.00    -0.270 OA
BRANCH  11  13
ATOM     13  C   UNL     1       6.931  -4.659  24.165  0.00  0.00    +0.037 A 
ATOM     14  C   UNL     1       6.492  -5.191  22.945  0.00  0.00    +0.016 A 
ATOM     15  C   UNL     1       5.513  -6.186  22.931  0.00  0.00    +0.046 A 
ATOM     16  C   UNL     1       4.969  -6.633  24.131  0.00  0.00    +0.117 A 
ATOM     17  C   UNL     1       5.348  -6.064  25.345  0.00  0.00    +0.046 A 
ATOM     18  C   UNL     1       6.330  -5.070  25.362  0.00  0.00    +0.016 A 
BRANCH  16  19
ATOM     19  O   UNL     1       4.067  -7.654  24.076  0.00  0.00    -0.507 OA
ATOM     20  H   UNL     1       3.683  -7.684  23.185  0.00  0.00    +0.292 HD
ENDBRANCH  16  19
ENDBRANCH  11  13
ENDBRANCH   1   9
BRANCH   2  21
ATOM     21  O   UNL     1       9.440   0.968  23.941  0.00  0.00    -0.456 OA
BRANCH  21  22
ATOM     22  C   UNL     1       9.937   1.814  23.012  0.00  0.00    +0.340 C 
ATOM     23  O   UNL     1      10.249   1.521  21.870  0.00  0.00    -0.245 OA
BRANCH  22  24
ATOM     24  C   UNL     1      10.019   3.201  23.554  0.00  0.00    +0.059 A 
ATOM     25  C   UNL     1       8.988   3.786  24.307  0.00  0.00    +0.018 A 
ATOM     26  C   UNL     1       9.108   5.104  24.760  0.00  0.00    +0.046 A 
ATOM     27  C   UNL     1      10.257   5.831  24.476  0.00  0.00    +0.117 A 
ATOM     28  C   UNL     1      11.291   5.269  23.734  0.00  0.00    +0.046 A 
ATOM     29  C   UNL     1      11.169   3.954  23.273  0.00  0.00    +0.018 A 
BRANCH  27  30
ATOM     30  O   UNL     1      10.335   7.107  24.950  0.00  0.00    -0.507 OA
ATOM     31  H   UNL     1      11.271   7.361  25.017  0.00  0.00    +0.292 HD
ENDBRANCH  27  30
ENDBRANCH  22  24
ENDBRANCH  21  22
ENDBRANCH   2  21
TORSDOF 7
ENDMDL
MODEL 9
REMARK VINA RESULT:      -6.8      2.807      9.319
REMARK  Name = 
REMARK  7 active torsions:
REMARK  status: ('A' for Active; 'I' for Inactive)
REMARK    1  A    between atoms: C_2  and  N_20
REMARK    2  A    between atoms: C_8  and  O_10
REMARK    3  A    between atoms: O_10  and  C_11
REMARK    4  A    between atoms: C_11  and  C_13
REMARK    5  A    between atoms: C_16  and  O_17
REMARK    6  A    between atoms: C_21  and  C_23
REMARK    7  A    between atoms: C_26  and  O_27
REMARK                            x       y       z     vdW  Elec       q    Type
REMARK                         _______ _______ _______ _____ _____    ______ ____
ROOT
ATOM      1  C   UNL     1       7.632  -1.370  25.412  0.00  0.00    +0.128 C 
ATOM      2  C   UNL     1       8.663  -0.744  24.442  0.00  0.00    +0.198 C 
ATOM      3  C   UNL     1       8.168  -0.704  22.990  0.00  0.00    +0.048 C 
ATOM      4  C   UNL     1       7.063   0.292  22.629  0.00  0.00    +0.019 C 
ATOM      5  C   UNL     1       6.226   0.909  23.744  0.00  0.00    +0.081 C 
ATOM      6  N   UNL     1       5.589  -0.061  24.637  0.00  0.00    -0.314 NA
ATOM      7  H   UNL     1       4.768   0.398  25.041  0.00  0.00    +0.122 HD
ATOM      8  C   UNL     1       6.468  -0.418  25.766  0.00  0.00    +0.106 C 
ENDROOT
BRANCH   1   9
ATOM      9  N   UNL     1       7.088  -2.652  24.953  0.00  0.00    -0.304 N 
ATOM     10  H   UNL     1       6.544  -2.617  24.097  0.00  0.00    +0.149 HD
ATOM     11  C   UNL     1       7.131  -3.798  25.712  0.00  0.00    +0.244 C 
ATOM     12  O   UNL     1       7.722  -3.882  26.782  0.00  0.00    -0.270 OA
BRANCH  11  13
ATOM     13  C   UNL     1       6.308  -4.930  25.206  0.00  0.00    +0.037 A 
ATOM     14  C   UNL     1       5.675  -5.756  26.144  0.00  0.00    +0.016 A 
ATOM     15  C   UNL     1       4.772  -6.732  25.716  0.00  0.00    +0.046 A 
ATOM     16  C   UNL     1       4.518  -6.885  24.358  0.00  0.00    +0.117 A 
ATOM     17  C   UNL     1       5.192  -6.116  23.412  0.00  0.00    +0.046 A 
ATOM     18  C   UNL     1       6.093  -5.136  23.837  0.00  0.00    +0.016 A 
BRANCH  16  19
ATOM     19  O   UNL     1       3.579  -7.802  23.988  0.00  0.00    -0.507 OA
ATOM     20  H   UNL     1       3.984  -8.433  23.371  0.00  0.00    +0.292 HD
ENDBRANCH  16  19
ENDBRANCH  11  13
ENDBRANCH   1   9
BRANCH   2  21
ATOM     21  O   UNL     1       8.983   0.589  24.913  0.00  0.00    -0.456 OA
BRANCH  21  22
ATOM     22  C   UNL     1      10.156   1.134  24.521  0.00  0.00    +0.340 C 
ATOM     23  O   UNL     1      11.208   0.537  24.371  0.00  0.00    -0.245 OA
BRANCH  22  24
ATOM     24  C   UNL     1       9.991   2.590  24.246  0.00  0.00    +0.059 A 
ATOM     25  C   UNL     1      10.979   3.361  23.612  0.00  0.00    +0.018 A 
ATOM     26  C   UNL     1      10.781   4.731  23.412  0.00  0.00    +0.046 A 
ATOM     27  C   UNL     1       9.598   5.329  23.830  0.00  0.00    +0.117 A 
ATOM     28  C   UNL     1       8.607   4.582  24.457  0.00  0.00    +0.046 A 
ATOM     29  C   UNL     1       8.806   3.213  24.665  0.00  0.00    +0.018 A 
BRANCH  27  30
ATOM     30  O   UNL     1       9.445   6.664  23.601  0.00  0.00    -0.507 OA
ATOM     31  H   UNL     1       9.697   7.151  24.403  0.00  0.00    +0.292 HD
ENDBRANCH  27  30
ENDBRANCH  22  24
ENDBRANCH  21  22
ENDBRANCH   2  21
TORSDOF 7
ENDMDL
