MODEL 1
REMARK VINA RESULT:      -7.8      0.000      0.000
REMARK  Name = 
REMARK  6 active torsions:
REMARK  status: ('A' for Active; 'I' for Inactive)
REMARK    1  A    between atoms: C_2  and  C_3
REMARK    2  A    between atoms: C_8  and  O_10
REMARK    3  A    between atoms: O_10  and  C_11
REMARK    4  A    between atoms: C_12  and  O_13
REMARK    5  A    between atoms: C_14  and  C_18
REMARK    6  A    between atoms: C_22  and  C_23
REMARK                            x       y       z     vdW  Elec       q    Type
REMARK                         _______ _______ _______ _____ _____    ______ ____
ROOT
ATOM      1  C   UNL     1       7.919  -3.328  23.731  0.00  0.00    +0.051 A 
ATOM      2  N   UNL     1       7.079  -4.197  23.068  0.00  0.00    -0.354 N 
ATOM      3  H   UNL     1       6.855  -4.104  22.085  0.00  0.00    +0.166 HD
ATOM      4  C   UNL     1       6.443  -5.035  23.953  0.00  0.00    +0.050 A 
ATOM      5  C   UNL     1       6.973  -4.773  25.212  0.00  0.00    +0.001 A 
ATOM      6  C   UNL     1       6.452  -5.452  26.332  0.00  0.00    +0.028 A 
ATOM      7  C   UNL     1       5.373  -6.335  26.166  0.00  0.00    +0.100 A 
ATOM      8  C   UNL     1       4.892  -6.593  24.879  0.00  0.00    +0.140 A 
ATOM      9  F   UNL     1       3.870  -7.443  24.690  0.00  0.00    -0.205 F 
ATOM     10  C   UNL     1       5.424  -5.969  23.746  0.00  0.00    +0.065 A 
ATOM     11  C   UNL     1       7.947  -3.752  25.050  0.00  0.00    +0.036 A 
ENDROOT
BRANCH   1  16
ATOM     12  C   UNL     1       8.369   0.192  22.327  0.00  0.00    +0.163 A 
ATOM     13  C   UNL     1       9.756   0.223  22.183  0.00  0.00    +0.049 A 
ATOM     14  C   UNL     1      10.514  -0.916  22.456  0.00  0.00    +0.004 A 
ATOM     15  C   UNL     1       9.902  -2.081  22.915  0.00  0.00    +0.014 A 
ATOM     16  C   UNL     1       8.514  -2.141  23.096  0.00  0.00    +0.043 A 
ATOM     17  C   UNL     1       7.760  -1.002  22.756  0.00  0.00    +0.168 A 
BRANCH  17  18
ATOM     18  O   UNL     1       6.384  -1.023  22.860  0.00  0.00    -0.503 OA
ATOM     19  H   UNL     1       6.067  -1.062  21.936  0.00  0.00    +0.292 HD
ENDBRANCH  17  18
BRANCH  12  20
ATOM     20  O   UNL     1       7.510   1.244  22.115  0.00  0.00    -0.485 OA
BRANCH  20  23
ATOM     21  C   UNL     1       7.685   2.381  24.286  0.00  0.00    +0.027 C 
ATOM     22  C   UNL     1       8.308   3.594  24.986  0.00  0.00    +0.011 C 
ATOM     23  C   UNL     1       7.796   2.506  22.748  0.00  0.00    +0.176 C 
ATOM     24  C   UNL     1       6.801   3.532  22.185  0.00  0.00    +0.045 C 
ATOM     25  C   UNL     1       5.368   3.290  22.648  0.00  0.00    +0.004 C 
ATOM     26  C   UNL     1       5.266   3.204  24.167  0.00  0.00    +0.000 C 
ATOM     27  C   UNL     1       6.228   2.167  24.739  0.00  0.00    +0.007 C 
ENDBRANCH  20  23
ENDBRANCH  12  20
ENDBRANCH   1  16
BRANCH   7  28
ATOM     28  C   UNL     1       4.728  -6.945  27.368  0.00  0.00    +0.311 C 
ATOM     29  N   UNL     1       3.445  -7.010  27.544  0.00  0.00    -0.099 NA
ATOM     30  H   UNL     1       2.942  -6.600  26.745  0.00  0.00    +0.363 HD
ATOM     31  N   UNL     1       5.471  -7.453  28.396  0.00  0.00    -0.247 N 
ATOM     32  H   UNL     1       4.868  -7.637  29.194  0.00  0.00    +0.288 HD
ATOM     33  H   UNL     1       6.285  -6.917  28.668  0.00  0.00    +0.288 HD
ENDBRANCH   7  28
TORSDOF 5
ENDMDL
MODEL 2
REMARK VINA RESULT:      -7.6      1.017      1.180
REMARK  Name = 
REMARK  6 active torsions:
REMARK  status: ('A' for Active; 'I' for Inactive)
REMARK    1  A    between atoms: C_2  and  C_3
REMARK    2  A    between atoms: C_8  and  O_10
REMARK    3  A    between atoms: O_10  and  C_11
REMARK    4  A    between atoms: C_12  and  O_13
REMARK    5  A    between atoms: C_14  and  C_18
REMARK    6  A    between atoms: C_22  and  C_23
REMARK                            x       y       z     vdW  Elec       q    Type
REMARK                         _______ _______ _______ _____ _____    ______ ____
ROOT
ATOM      1  C   UNL     1       8.045  -2.804  23.864  0.00  0.00    +0.051 A 
ATOM      2  N   UNL     1       7.013  -3.651  23.519  0.00  0.00    -0.354 N 
ATOM      3  H   UNL     1       6.503  -3.571  22.647  0.00  0.00    +0.166 HD
ATOM      4  C   UNL     1       6.649  -4.441  24.584  0.00  0.00    +0.050 A 
ATOM      5  C   UNL     1       7.547  -4.173  25.612  0.00  0.00    +0.001 A 
ATOM      6  C   UNL     1       7.370  -4.804  26.861  0.00  0.00    +0.028 A 
ATOM      7  C   UNL     1       6.262  -5.642  27.061  0.00  0.00    +0.100 A 
ATOM      8  C   UNL     1       5.402  -5.908  25.991  0.00  0.00    +0.140 A 
ATOM      9  F   UNL     1       4.343  -6.718  26.152  0.00  0.00    -0.205 F 
ATOM     10  C   UNL     1       5.584  -5.334  24.729  0.00  0.00    +0.065 A 
ATOM     11  C   UNL     1       8.459  -3.199  25.126  0.00  0.00    +0.036 A 
ENDROOT
BRANCH   1  16
ATOM     12  C   UNL     1       8.147   0.650  22.245  0.00  0.00    +0.163 A 
ATOM     13  C   UNL     1       9.435   0.633  21.711  0.00  0.00    +0.049 A 
ATOM     14  C   UNL     1      10.216  -0.519  21.804  0.00  0.00    +0.004 A 
ATOM     15  C   UNL     1       9.737  -1.648  22.467  0.00  0.00    +0.014 A 
ATOM     16  C   UNL     1       8.457  -1.659  23.038  0.00  0.00    +0.043 A 
ATOM     17  C   UNL     1       7.661  -0.509  22.879  0.00  0.00    +0.168 A 
BRANCH  17  18
ATOM     18  O   UNL     1       6.372  -0.483  23.371  0.00  0.00    -0.503 OA
ATOM     19  H   UNL     1       6.476  -0.521  24.342  0.00  0.00    +0.292 HD
ENDBRANCH  17  18
BRANCH  12  20
ATOM     20  O   UNL     1       7.285   1.720  22.244  0.00  0.00    -0.485 OA
BRANCH  20  23
ATOM     21  C   UNL     1       8.218   3.089  24.059  0.00  0.00    +0.027 C 
ATOM     22  C   UNL     1       9.074   4.328  24.341  0.00  0.00    +0.011 C 
ATOM     23  C   UNL     1       7.804   3.025  22.568  0.00  0.00    +0.176 C 
ATOM     24  C   UNL     1       6.706   4.047  22.236  0.00  0.00    +0.045 C 
ATOM     25  C   UNL     1       5.508   3.963  23.179  0.00  0.00    +0.004 C 
ATOM     26  C   UNL     1       5.925   4.064  24.641  0.00  0.00    +0.000 C 
ATOM     27  C   UNL     1       6.996   3.035  24.994  0.00  0.00    +0.007 C 
ENDBRANCH  20  23
ENDBRANCH  12  20
ENDBRANCH   1  16
BRANCH   7  28
ATOM     28  C   UNL     1       5.994  -6.197  28.423  0.00  0.00    +0.311 C 
ATOM     29  N   UNL     1       6.056  -5.497  29.512  0.00  0.00    -0.099 NA
ATOM     30  H   UNL     1       6.299  -4.517  29.307  0.00  0.00    +0.363 HD
ATOM     31  N   UNL     1       5.693  -7.517  28.609  0.00  0.00    -0.247 N 
ATOM     32  H   UNL     1       5.741  -7.740  29.600  0.00  0.00    +0.288 HD
ATOM     33  H   UNL     1       6.223  -8.179  28.059  0.00  0.00    +0.288 HD
ENDBRANCH   7  28
TORSDOF 5
ENDMDL
MODEL 3
REMARK VINA RESULT:      -7.5      2.122      3.026
REMARK  Name = 
REMARK  6 active torsions:
REMARK  status: ('A' for Active; 'I' for Inactive)
REMARK    1  A    between atoms: C_2  and  C_3
REMARK    2  A    between atoms: C_8  and  O_10
REMARK    3  A    between atoms: O_10  and  C_11
REMARK    4  A    between atoms: C_12  and  O_13
REMARK    5  A    between atoms: C_14  and  C_18
REMARK    6  A    between atoms: C_22  and  C_23
REMARK                            x       y       z     vdW  Elec       q    Type
REMARK                         _______ _______ _______ _____ _____    ______ ____
ROOT
ATOM      1  C   UNL     1       8.360  -1.964  23.639  0.00  0.00    +0.051 A 
ATOM      2  N   UNL     1       8.375  -2.772  22.522  0.00  0.00    -0.354 N 
ATOM      3  H   UNL     1       8.897  -2.544  21.685  0.00  0.00    +0.166 HD
ATOM      4  C   UNL     1       7.439  -3.774  22.628  0.00  0.00    +0.050 A 
ATOM      5  C   UNL     1       6.882  -3.674  23.900  0.00  0.00    +0.001 A 
ATOM      6  C   UNL     1       5.837  -4.548  24.262  0.00  0.00    +0.028 A 
ATOM      7  C   UNL     1       5.338  -5.460  23.318  0.00  0.00    +0.100 A 
ATOM      8  C   UNL     1       5.948  -5.547  22.063  0.00  0.00    +0.140 A 
ATOM      9  F   UNL     1       5.500  -6.421  21.147  0.00  0.00    -0.205 F 
ATOM     10  C   UNL     1       7.019  -4.727  21.696  0.00  0.00    +0.065 A 
ATOM     11  C   UNL     1       7.517  -2.582  24.548  0.00  0.00    +0.036 A 
ENDROOT
BRANCH   1  16
ATOM     12  C   UNL     1       9.076   1.770  23.309  0.00  0.00    +0.163 A 
ATOM     13  C   UNL     1      10.208   1.875  24.115  0.00  0.00    +0.049 A 
ATOM     14  C   UNL     1      10.774   0.731  24.681  0.00  0.00    +0.004 A 
ATOM     15  C   UNL     1      10.192  -0.519  24.482  0.00  0.00    +0.014 A 
ATOM     16  C   UNL     1       9.038  -0.660  23.698  0.00  0.00    +0.043 A 
ATOM     17  C   UNL     1       8.519   0.497  23.086  0.00  0.00    +0.168 A 
BRANCH  17  18
ATOM     18  O   UNL     1       7.419   0.409  22.257  0.00  0.00    -0.503 OA
ATOM     19  H   UNL     1       7.519   1.155  21.634  0.00  0.00    +0.292 HD
ENDBRANCH  17  18
BRANCH  12  20
ATOM     20  O   UNL     1       8.408   2.812  22.713  0.00  0.00    -0.485 OA
BRANCH  20  23
ATOM     21  C   UNL     1       6.644   4.520  22.612  0.00  0.00    +0.027 C 
ATOM     22  C   UNL     1       5.458   5.102  23.388  0.00  0.00    +0.011 C 
ATOM     23  C   UNL     1       7.502   3.598  23.512  0.00  0.00    +0.176 C 
ATOM     24  C   UNL     1       8.353   4.402  24.507  0.00  0.00    +0.045 C 
ATOM     25  C   UNL     1       9.179   5.497  23.837  0.00  0.00    +0.004 C 
ATOM     26  C   UNL     1       8.318   6.419  22.983  0.00  0.00    +0.000 C 
ATOM     27  C   UNL     1       7.487   5.637  21.969  0.00  0.00    +0.007 C 
ENDBRANCH  20  23
ENDBRANCH  12  20
ENDBRANCH   1  16
BRANCH   7  28
ATOM     28  C   UNL     1       4.138  -6.285  23.653  0.00  0.00    +0.311 C 
ATOM     29  N   UNL     1       4.200  -7.495  24.115  0.00  0.00    -0.099 NA
ATOM     30  H   UNL     1       5.178  -7.796  24.229  0.00  0.00    +0.363 HD
ATOM     31  N   UNL     1       2.871  -5.815  23.454  0.00  0.00    -0.247 N 
ATOM     32  H   UNL     1       2.206  -6.578  23.550  0.00  0.00    +0.288 HD
ATOM     33  H   UNL     1       2.713  -5.298  22.599  0.00  0.00    +0.288 HD
ENDBRANCH   7  28
TORSDOF 5
ENDMDL
MODEL 4
REMARK VINA RESULT:      -7.4      4.678      9.190
REMARK  Name = 
REMARK  6 active torsions:
REMARK  status: ('A' for Active; 'I' for Inactive)
REMARK    1  A    between atoms: C_2  and  C_3
REMARK    2  A    between atoms: C_8  and  O_10
REMARK    3  A    between atoms: O_10  and  C_11
REMARK    4  A    between atoms: C_12  and  O_13
REMARK    5  A    between atoms: C_14  and  C_18
REMARK    6  A    between atoms: C_22  and  C_23
REMARK                            x       y       z     vdW  Elec       q    Type
REMARK                         _______ _______ _______ _____ _____    ______ ____
ROOT
ATOM      1  C   UNL     1       9.038   0.094  23.818  0.00  0.00    +0.051 A 
ATOM      2  N   UNL     1       8.339   1.231  24.165  0.00  0.00    -0.354 N 
ATOM      3  H   UNL     1       7.335   1.241  24.296  0.00  0.00    +0.166 HD
ATOM      4  C   UNL     1       9.143   2.344  24.087  0.00  0.00    +0.050 A 
ATOM      5  C   UNL     1      10.426   1.896  23.790  0.00  0.00    +0.001 A 
ATOM      6  C   UNL     1      11.454   2.840  23.588  0.00  0.00    +0.028 A 
ATOM      7  C   UNL     1      11.152   4.211  23.631  0.00  0.00    +0.100 A 
ATOM      8  C   UNL     1       9.856   4.616  23.964  0.00  0.00    +0.140 A 
ATOM      9  F   UNL     1       9.545   5.921  24.026  0.00  0.00    -0.205 F 
ATOM     10  C   UNL     1       8.831   3.700  24.218  0.00  0.00    +0.065 A 
ATOM     11  C   UNL     1      10.362   0.480  23.695  0.00  0.00    +0.036 A 
ENDROOT
BRANCH   1  16
ATOM     12  C   UNL     1       6.839  -3.008  24.142  0.00  0.00    +0.163 A 
ATOM     13  C   UNL     1       6.903  -3.492  22.837  0.00  0.00    +0.049 A 
ATOM     14  C   UNL     1       7.722  -2.865  21.896  0.00  0.00    +0.004 A 
ATOM     15  C   UNL     1       8.448  -1.725  22.238  0.00  0.00    +0.014 A 
ATOM     16  C   UNL     1       8.388  -1.195  23.535  0.00  0.00    +0.043 A 
ATOM     17  C   UNL     1       7.605  -1.878  24.485  0.00  0.00    +0.168 A 
BRANCH  17  18
ATOM     18  O   UNL     1       7.555  -1.435  25.790  0.00  0.00    -0.503 OA
ATOM     19  H   UNL     1       7.436  -2.246  26.323  0.00  0.00    +0.292 HD
ENDBRANCH  17  18
BRANCH  12  20
ATOM     20  O   UNL     1       6.060  -3.514  25.155  0.00  0.00    -0.485 OA
BRANCH  20  23
ATOM     21  C   UNL     1       4.713  -5.291  26.188  0.00  0.00    +0.027 C 
ATOM     22  C   UNL     1       4.305  -6.760  26.039  0.00  0.00    +0.011 C 
ATOM     23  C   UNL     1       5.894  -4.942  25.250  0.00  0.00    +0.176 C 
ATOM     24  C   UNL     1       7.222  -5.520  25.764  0.00  0.00    +0.045 C 
ATOM     25  C   UNL     1       7.505  -5.160  27.220  0.00  0.00    +0.004 C 
ATOM     26  C   UNL     1       6.350  -5.541  28.138  0.00  0.00    +0.000 C 
ATOM     27  C   UNL     1       5.029  -4.949  27.656  0.00  0.00    +0.007 C 
ENDBRANCH  20  23
ENDBRANCH  12  20
ENDBRANCH   1  16
BRANCH   7  28
ATOM     28  C   UNL     1      12.206   5.209  23.276  0.00  0.00    +0.311 C 
ATOM     29  N   UNL     1      12.758   6.012  24.131  0.00  0.00    -0.099 NA
ATOM     30  H   UNL     1      12.382   5.857  25.077  0.00  0.00    +0.363 HD
ATOM     31  N   UNL     1      12.638   5.362  21.988  0.00  0.00    -0.247 N 
ATOM     32  H   UNL     1      13.199   6.208  21.916  0.00  0.00    +0.288 HD
ATOM     33  H   UNL     1      11.927   5.333  21.270  0.00  0.00    +0.288 HD
ENDBRANCH   7  28
TORSDOF 5
ENDMDL
MODEL 5
REMARK VINA RESULT:      -7.3      3.757      8.411
REMARK  Name = 
REMARK  6 active torsions:
REMARK  status: ('A' for Active; 'I' for Inactive)
REMARK    1  A    between atoms: C_2  and  C_3
REMARK    2  A    between atoms: C_8  and  O_10
REMARK    3  A    between atoms: O_10  and  C_11
REMARK    4  A    between atoms: C_12  and  O_13
REMARK    5  A    between atoms: C_14  and  C_18
REMARK    6  A    between atoms: C_22  and  C_23
REMARK                            x       y       z     vdW  Elec       q    Type
REMARK                         _______ _______ _______ _____ _____    ______ ____
ROOT
ATOM      1  C   UNL     1       7.218  -3.690  23.422  0.00  0.00    +0.051 A 
ATOM      2  N   UNL     1       8.455  -3.501  24.001  0.00  0.00    -0.354 N 
ATOM      3  H   UNL     1       8.857  -4.151  24.665  0.00  0.00    +0.166 HD
ATOM      4  C   UNL     1       8.939  -2.244  23.726  0.00  0.00    +0.050 A 
ATOM      5  C   UNL     1       8.037  -1.645  22.851  0.00  0.00    +0.001 A 
ATOM      6  C   UNL     1       8.253  -0.312  22.447  0.00  0.00    +0.028 A 
ATOM      7  C   UNL     1       9.337   0.405  22.978  0.00  0.00    +0.100 A 
ATOM      8  C   UNL     1      10.236  -0.245  23.829  0.00  0.00    +0.140 A 
ATOM      9  F   UNL     1      11.289   0.413  24.340  0.00  0.00    -0.205 F 
ATOM     10  C   UNL     1      10.072  -1.582  24.206  0.00  0.00    +0.065 A 
ATOM     11  C   UNL     1       7.001  -2.587  22.613  0.00  0.00    +0.036 A 
ENDROOT
BRANCH   1  16
ATOM     12  C   UNL     1       5.291  -6.309  25.420  0.00  0.00    +0.163 A 
ATOM     13  C   UNL     1       4.387  -6.741  24.450  0.00  0.00    +0.049 A 
ATOM     14  C   UNL     1       4.468  -6.248  23.147  0.00  0.00    +0.004 A 
ATOM     15  C   UNL     1       5.423  -5.289  22.811  0.00  0.00    +0.014 A 
ATOM     16  C   UNL     1       6.332  -4.813  23.766  0.00  0.00    +0.043 A 
ATOM     17  C   UNL     1       6.274  -5.368  25.058  0.00  0.00    +0.168 A 
BRANCH  17  18
ATOM     18  O   UNL     1       7.181  -4.979  26.023  0.00  0.00    -0.503 OA
ATOM     19  H   UNL     1       7.391  -5.800  26.510  0.00  0.00    +0.292 HD
ENDBRANCH  17  18
BRANCH  12  20
ATOM     20  O   UNL     1       5.308  -6.694  26.739  0.00  0.00    -0.485 OA
BRANCH  20  23
ATOM     21  C   UNL     1       3.681  -5.038  27.543  0.00  0.00    +0.027 C 
ATOM     22  C   UNL     1       2.251  -4.883  28.071  0.00  0.00    +0.011 C 
ATOM     23  C   UNL     1       4.111  -6.525  27.523  0.00  0.00    +0.176 C 
ATOM     24  C   UNL     1       4.413  -7.051  28.934  0.00  0.00    +0.045 C 
ATOM     25  C   UNL     1       5.395  -6.170  29.702  0.00  0.00    +0.004 C 
ATOM     26  C   UNL     1       4.942  -4.715  29.745  0.00  0.00    +0.000 C 
ATOM     27  C   UNL     1       4.666  -4.169  28.348  0.00  0.00    +0.007 C 
ENDBRANCH  20  23
ENDBRANCH  12  20
ENDBRANCH   1  16
BRANCH   7  28
ATOM     28  C   UNL     1       9.485   1.858  22.664  0.00  0.00    +0.311 C 
ATOM     29  N   UNL     1      10.070   2.310  21.599  0.00  0.00    -0.099 NA
ATOM     30  H   UNL     1      10.401   1.538  21.005  0.00  0.00    +0.363 HD
ATOM     31  N   UNL     1       9.030   2.823  23.518  0.00  0.00    -0.247 N 
ATOM     32  H   UNL     1       9.393   3.729  23.232  0.00  0.00    +0.288 HD
ATOM     33  H   UNL     1       9.188   2.660  24.503  0.00  0.00    +0.288 HD
ENDBRANCH   7  28
TORSDOF 5
ENDMDL
MODEL 6
REMARK VINA RESULT:      -7.3      2.268      2.680
REMARK  Name = 
REMARK  6 active torsions:
REMARK  status: ('A' for Active; 'I' for Inactive)
REMARK    1  A    between atoms: C_2  and  C_3
REMARK    2  A    between atoms: C_8  and  O_10
REMARK    3  A    between atoms: O_10  and  C_11
REMARK    4  A    between atoms: C_12  and  O_13
REMARK    5  A    between atoms: C_14  and  C_18
REMARK    6  A    between atoms: C_22  and  C_23
REMARK                            x       y       z     vdW  Elec       q    Type
REMARK                         _______ _______ _______ _____ _____    ______ ____
ROOT
ATOM      1  C   UNL     1       8.319  -1.764  23.579  0.00  0.00    +0.051 A 
ATOM      2  N   UNL     1       8.503  -2.732  22.614  0.00  0.00    -0.354 N 
ATOM      3  H   UNL     1       9.207  -2.661  21.890  0.00  0.00    +0.166 HD
ATOM      4  C   UNL     1       7.485  -3.656  22.646  0.00  0.00    +0.050 A 
ATOM      5  C   UNL     1       6.682  -3.336  23.737  0.00  0.00    +0.001 A 
ATOM      6  C   UNL     1       5.514  -4.089  23.975  0.00  0.00    +0.028 A 
ATOM      7  C   UNL     1       5.152  -5.106  23.077  0.00  0.00    +0.100 A 
ATOM      8  C   UNL     1       6.004  -5.414  22.012  0.00  0.00    +0.140 A 
ATOM      9  F   UNL     1       5.688  -6.392  21.148  0.00  0.00    -0.205 F 
ATOM     10  C   UNL     1       7.193  -4.715  21.783  0.00  0.00    +0.065 A 
ATOM     11  C   UNL     1       7.255  -2.192  24.355  0.00  0.00    +0.036 A 
ENDROOT
BRANCH   1  16
ATOM     12  C   UNL     1       9.232   1.927  23.252  0.00  0.00    +0.163 A 
ATOM     13  C   UNL     1      10.422   1.951  23.977  0.00  0.00    +0.049 A 
ATOM     14  C   UNL     1      10.957   0.766  24.485  0.00  0.00    +0.004 A 
ATOM     15  C   UNL     1      10.289  -0.444  24.311  0.00  0.00    +0.014 A 
ATOM     16  C   UNL     1       9.077  -0.503  23.608  0.00  0.00    +0.043 A 
ATOM     17  C   UNL     1       8.586   0.693  23.051  0.00  0.00    +0.168 A 
BRANCH  17  18
ATOM     18  O   UNL     1       7.428   0.685  22.301  0.00  0.00    -0.503 OA
ATOM     19  H   UNL     1       7.507   1.462  21.713  0.00  0.00    +0.292 HD
ENDBRANCH  17  18
BRANCH  12  20
ATOM     20  O   UNL     1       8.587   3.017  22.719  0.00  0.00    -0.485 OA
BRANCH  20  23
ATOM     21  C   UNL     1       7.801   3.835  24.898  0.00  0.00    +0.027 C 
ATOM     22  C   UNL     1       7.943   4.988  25.897  0.00  0.00    +0.011 C 
ATOM     23  C   UNL     1       8.436   4.196  23.534  0.00  0.00    +0.176 C 
ATOM     24  C   UNL     1       7.569   5.187  22.744  0.00  0.00    +0.045 C 
ATOM     25  C   UNL     1       6.117   4.735  22.610  0.00  0.00    +0.004 C 
ATOM     26  C   UNL     1       5.492   4.417  23.963  0.00  0.00    +0.000 C 
ATOM     27  C   UNL     1       6.328   3.411  24.748  0.00  0.00    +0.007 C 
ENDBRANCH  20  23
ENDBRANCH  12  20
ENDBRANCH   1  16
BRANCH   7  28
ATOM     28  C   UNL     1       3.843  -5.808  23.247  0.00  0.00    +0.311 C 
ATOM     29  N   UNL     1       2.695  -5.267  22.985  0.00  0.00    -0.099 NA
ATOM     30  H   UNL     1       2.812  -4.305  22.636  0.00  0.00    +0.363 HD
ATOM     31  N   UNL     1       3.775  -7.083  23.735  0.00  0.00    -0.247 N 
ATOM     32  H   UNL     1       2.810  -7.309  23.962  0.00  0.00    +0.288 HD
ATOM     33  H   UNL     1       4.393  -7.301  24.505  0.00  0.00    +0.288 HD
ENDBRANCH   7  28
TORSDOF 5
ENDMDL
MODEL 7
REMARK VINA RESULT:      -7.1      4.021      8.449
REMARK  Name = 
REMARK  6 active torsions:
REMARK  status: ('A' for Active; 'I' for Inactive)
REMARK    1  A    between atoms: C_2  and  C_3
REMARK    2  A    between atoms: C_8  and  O_10
REMARK    3  A    between atoms: O_10  and  C_11
REMARK    4  A    between atoms: C_12  and  O_13
REMARK    5  A    between atoms: C_14  and  C_18
REMARK    6  A    between atoms: C_22  and  C_23
REMARK                            x       y       z     vdW  Elec       q    Type
REMARK                         _______ _______ _______ _____ _____    ______ ____
ROOT
ATOM      1  C   UNL     1       7.756  -2.561  23.294  0.00  0.00    +0.051 A 
ATOM      2  N   UNL     1       7.527  -1.867  24.464  0.00  0.00    -0.354 N 
ATOM      3  H   UNL     1       6.914  -2.206  25.194  0.00  0.00    +0.166 HD
ATOM      4  C   UNL     1       8.054  -0.599  24.393  0.00  0.00    +0.050 A 
ATOM      5  C   UNL     1       8.740  -0.512  23.185  0.00  0.00    +0.001 A 
ATOM      6  C   UNL     1       9.334   0.712  22.818  0.00  0.00    +0.028 A 
ATOM      7  C   UNL     1       9.173   1.835  23.646  0.00  0.00    +0.100 A 
ATOM      8  C   UNL     1       8.503   1.695  24.865  0.00  0.00    +0.140 A 
ATOM      9  F   UNL     1       8.348   2.749  25.683  0.00  0.00    -0.205 F 
ATOM     10  C   UNL     1       7.948   0.479  25.276  0.00  0.00    +0.065 A 
ATOM     11  C   UNL     1       8.606  -1.770  22.539  0.00  0.00    +0.036 A 
ENDROOT
BRANCH   1  16
ATOM     12  C   UNL     1       5.030  -5.142  22.608  0.00  0.00    +0.163 A 
ATOM     13  C   UNL     1       5.788  -6.146  22.007  0.00  0.00    +0.049 A 
ATOM     14  C   UNL     1       7.174  -6.015  21.912  0.00  0.00    +0.004 A 
ATOM     15  C   UNL     1       7.810  -4.865  22.376  0.00  0.00    +0.014 A 
ATOM     16  C   UNL     1       7.077  -3.824  22.962  0.00  0.00    +0.043 A 
ATOM     17  C   UNL     1       5.688  -4.002  23.105  0.00  0.00    +0.168 A 
BRANCH  17  18
ATOM     18  O   UNL     1       4.925  -3.035  23.727  0.00  0.00    -0.503 OA
ATOM     19  H   UNL     1       5.473  -2.730  24.476  0.00  0.00    +0.292 HD
ENDBRANCH  17  18
BRANCH  12  20
ATOM     20  O   UNL     1       3.663  -5.134  22.745  0.00  0.00    -0.485 OA
BRANCH  20  23
ATOM     21  C   UNL     1       1.681  -6.580  22.617  0.00  0.00    +0.027 C 
ATOM     22  C   UNL     1       1.155  -7.972  22.986  0.00  0.00    +0.011 C 
ATOM     23  C   UNL     1       3.021  -6.282  23.332  0.00  0.00    +0.176 C 
ATOM     24  C   UNL     1       2.817  -5.975  24.824  0.00  0.00    +0.045 C 
ATOM     25  C   UNL     1       1.769  -4.894  25.072  0.00  0.00    +0.004 C 
ATOM     26  C   UNL     1       0.443  -5.217  24.393  0.00  0.00    +0.000 C 
ATOM     27  C   UNL     1       0.626  -5.495  22.904  0.00  0.00    +0.007 C 
ENDBRANCH  20  23
ENDBRANCH  12  20
ENDBRANCH   1  16
BRANCH   7  28
ATOM     28  C   UNL     1       9.677   3.166  23.190  0.00  0.00    +0.311 C 
ATOM     29  N   UNL     1      10.930   3.434  22.992  0.00  0.00    -0.099 NA
ATOM     30  H   UNL     1      11.517   2.608  23.178  0.00  0.00    +0.363 HD
ATOM     31  N   UNL     1       8.829   4.217  22.982  0.00  0.00    -0.247 N 
ATOM     32  H   UNL     1       9.368   5.072  22.871  0.00  0.00    +0.288 HD
ATOM     33  H   UNL     1       8.088   4.336  23.660  0.00  0.00    +0.288 HD
ENDBRANCH   7  28
TORSDOF 5
ENDMDL
MODEL 8
REMARK VINA RESULT:      -7.1      2.389      2.962
REMARK  Name = 
REMARK  6 active torsions:
REMARK  status: ('A' for Active; 'I' for Inactive)
REMARK    1  A    between atoms: C_2  and  C_3
REMARK    2  A    between atoms: C_8  and  O_10
REMARK    3  A    between atoms: O_10  and  C_11
REMARK    4  A    between atoms: C_12  and  O_13
REMARK    5  A    between atoms: C_14  and  C_18
REMARK    6  A    between atoms: C_22  and  C_23
REMARK                            x       y       z     vdW  Elec       q    Type
REMARK                         _______ _______ _______ _____ _____    ______ ____
ROOT
ATOM      1  C   UNL     1       6.155  -3.273  23.490  0.00  0.00    +0.051 A 
ATOM      2  N   UNL     1       5.017  -2.988  24.214  0.00  0.00    -0.354 N 
ATOM      3  H   UNL     1       4.948  -2.198  24.843  0.00  0.00    +0.166 HD
ATOM      4  C   UNL     1       4.111  -4.019  24.131  0.00  0.00    +0.050 A 
ATOM      5  C   UNL     1       4.635  -4.947  23.235  0.00  0.00    +0.001 A 
ATOM      6  C   UNL     1       3.936  -6.149  23.003  0.00  0.00    +0.028 A 
ATOM      7  C   UNL     1       2.759  -6.415  23.722  0.00  0.00    +0.100 A 
ATOM      8  C   UNL     1       2.252  -5.442  24.588  0.00  0.00    +0.140 A 
ATOM      9  F   UNL     1       1.121  -5.664  25.276  0.00  0.00    -0.205 F 
ATOM     10  C   UNL     1       2.899  -4.220  24.798  0.00  0.00    +0.065 A 
ATOM     11  C   UNL     1       5.882  -4.434  22.787  0.00  0.00    +0.036 A 
ENDROOT
BRANCH   1  16
ATOM     12  C   UNL     1       8.601  -0.403  24.074  0.00  0.00    +0.163 A 
ATOM     13  C   UNL     1       9.796  -1.114  24.171  0.00  0.00    +0.049 A 
ATOM     14  C   UNL     1       9.809  -2.494  23.961  0.00  0.00    +0.004 A 
ATOM     15  C   UNL     1       8.625  -3.180  23.694  0.00  0.00    +0.014 A 
ATOM     16  C   UNL     1       7.402  -2.502  23.614  0.00  0.00    +0.043 A 
ATOM     17  C   UNL     1       7.419  -1.103  23.768  0.00  0.00    +0.168 A 
BRANCH  17  18
ATOM     18  O   UNL     1       6.253  -0.376  23.642  0.00  0.00    -0.503 OA
ATOM     19  H   UNL     1       6.485   0.522  23.953  0.00  0.00    +0.292 HD
ENDBRANCH  17  18
BRANCH  12  20
ATOM     20  O   UNL     1       8.445   0.947  24.280  0.00  0.00    -0.485 OA
BRANCH  20  23
ATOM     21  C   UNL     1       9.170   3.291  24.147  0.00  0.00    +0.027 C 
ATOM     22  C   UNL     1      10.311   4.193  23.667  0.00  0.00    +0.011 C 
ATOM     23  C   UNL     1       9.316   1.857  23.582  0.00  0.00    +0.176 C 
ATOM     24  C   UNL     1       8.946   1.789  22.092  0.00  0.00    +0.045 C 
ATOM     25  C   UNL     1       7.580   2.400  21.789  0.00  0.00    +0.004 C 
ATOM     26  C   UNL     1       7.461   3.824  22.319  0.00  0.00    +0.000 C 
ATOM     27  C   UNL     1       7.799   3.902  23.805  0.00  0.00    +0.007 C 
ENDBRANCH  20  23
ENDBRANCH  12  20
ENDBRANCH   1  16
BRANCH   7  28
ATOM     28  C   UNL     1       2.097  -7.748  23.584  0.00  0.00    +0.311 C 
ATOM     29  N   UNL     1       1.560  -8.177  22.485  0.00  0.00    -0.099 NA
ATOM     30  H   UNL     1       1.666  -7.485  21.729  0.00  0.00    +0.363 HD
ATOM     31  N   UNL     1       1.984  -8.601  24.645  0.00  0.00    -0.247 N 
ATOM     32  H   UNL     1       1.341  -9.353  24.410  0.00  0.00    +0.288 HD
ATOM     33  H   UNL     1       1.747  -8.181  25.534  0.00  0.00    +0.288 HD
ENDBRANCH   7  28
TORSDOF 5
ENDMDL
MODEL 9
REMARK VINA RESULT:      -7.1      2.580      4.037
REMARK  Name = 
REMARK  6 active torsions:
REMARK  status: ('A' for Active; 'I' for Inactive)
REMARK    1  A    between atoms: C_2  and  C_3
REMARK    2  A    between atoms: C_8  and  O_10
REMARK    3  A    between atoms: O_10  and  C_11
REMARK    4  A    between atoms: C_12  and  O_13
REMARK    5  A    between atoms: C_14  and  C_18
REMARK    6  A    between atoms: C_22  and  C_23
REMARK                            x       y       z     vdW  Elec       q    Type
REMARK                         _______ _______ _______ _____ _____    ______ ____
ROOT
ATOM      1  C   UNL     1       8.982   0.411  23.379  0.00  0.00    +0.051 A 
ATOM      2  N   UNL     1       8.361  -0.480  22.530  0.00  0.00    -0.354 N 
ATOM      3  H   UNL     1       7.798  -0.188  21.741  0.00  0.00    +0.166 HD
ATOM      4  C   UNL     1       8.430  -1.761  23.026  0.00  0.00    +0.050 A 
ATOM      5  C   UNL     1       9.216  -1.708  24.173  0.00  0.00    +0.001 A 
ATOM      6  C   UNL     1       9.406  -2.882  24.931  0.00  0.00    +0.028 A 
ATOM      7  C   UNL     1       8.752  -4.065  24.549  0.00  0.00    +0.100 A 
ATOM      8  C   UNL     1       7.997  -4.081  23.373  0.00  0.00    +0.140 A 
ATOM      9  F   UNL     1       7.374  -5.202  22.977  0.00  0.00    -0.205 F 
ATOM     10  C   UNL     1       7.834  -2.943  22.577  0.00  0.00    +0.065 A 
ATOM     11  C   UNL     1       9.615  -0.356  24.344  0.00  0.00    +0.036 A 
ENDROOT
BRANCH   1  16
ATOM     12  C   UNL     1       7.451   3.869  22.867  0.00  0.00    +0.163 A 
ATOM     13  C   UNL     1       8.475   4.668  23.375  0.00  0.00    +0.049 A 
ATOM     14  C   UNL     1       9.674   4.089  23.792  0.00  0.00    +0.004 A 
ATOM     15  C   UNL     1       9.847   2.707  23.746  0.00  0.00    +0.014 A 
ATOM     16  C   UNL     1       8.830   1.870  23.266  0.00  0.00    +0.043 A 
ATOM     17  C   UNL     1       7.652   2.478  22.792  0.00  0.00    +0.168 A 
BRANCH  17  18
ATOM     18  O   UNL     1       6.641   1.708  22.255  0.00  0.00    -0.503 OA
ATOM     19  H   UNL     1       6.428   2.137  21.403  0.00  0.00    +0.292 HD
ENDBRANCH  17  18
BRANCH  12  20
ATOM     20  O   UNL     1       6.218   4.305  22.446  0.00  0.00    -0.485 OA
BRANCH  20  23
ATOM     21  C   UNL     1       5.030   4.120  24.589  0.00  0.00    +0.027 C 
ATOM     22  C   UNL     1       4.441   4.945  25.737  0.00  0.00    +0.011 C 
ATOM     23  C   UNL     1       5.382   5.018  23.379  0.00  0.00    +0.176 C 
ATOM     24  C   UNL     1       4.127   5.466  22.614  0.00  0.00    +0.045 C 
ATOM     25  C   UNL     1       3.215   4.303  22.232  0.00  0.00    +0.004 C 
ATOM     26  C   UNL     1       2.846   3.447  23.438  0.00  0.00    +0.000 C 
ATOM     27  C   UNL     1       4.085   2.970  24.191  0.00  0.00    +0.007 C 
ENDBRANCH  20  23
ENDBRANCH  12  20
ENDBRANCH   1  16
BRANCH   7  28
ATOM     28  C   UNL     1       8.836  -5.270  25.429  0.00  0.00    +0.311 C 
ATOM     29  N   UNL     1       9.883  -6.030  25.515  0.00  0.00    -0.099 NA
ATOM     30  H   UNL     1      10.641  -5.682  24.910  0.00  0.00    +0.363 HD
ATOM     31  N   UNL     1       7.775  -5.673  26.190  0.00  0.00    -0.247 N 
ATOM     32  H   UNL     1       7.954  -6.605  26.556  0.00  0.00    +0.288 HD
ATOM     33  H   UNL     1       6.865  -5.621  25.752  0.00  0.00    +0.288 HD
ENDBRANCH   7  28
TORSDOF 5
ENDMDL
