MODEL 1
REMARK VINA RESULT:      -6.1      0.000      0.000
REMARK  Name = 
REMARK  5 active torsions:
REMARK  status: ('A' for Active; 'I' for Inactive)
REMARK    1  A    between atoms: O5*_1  and  C5*_2
REMARK    2  A    between atoms: C5*_2  and  C4*_3
REMARK    3  A    between atoms: C1*_6  and  N_12
REMARK    4  A    between atoms: C3*_9  and  O3*_11
REMARK    5  A    between atoms: C_14  and  C_15
REMARK                            x       y       z     vdW  Elec       q    Type
REMARK                         _______ _______ _______ _____ _____    ______ ____
ROOT
ATOM      1  N   UNL     1       6.469  -5.057  26.209  0.00  0.00    -0.273 N 
ATOM      2  C   UNL     1       7.442  -5.570  27.056  0.00  0.00    +0.331 A 
ATOM      3  O   UNL     1       7.200  -6.199  28.083  0.00  0.00    -0.246 OA
ATOM      4  N   UNL     1       8.738  -5.357  26.663  0.00  0.00    -0.274 N 
ATOM      5  H   UNL     1       9.453  -5.798  27.220  0.00  0.00    +0.173 HD
ATOM      6  C   UNL     1       9.140  -4.780  25.490  0.00  0.00    +0.261 A 
ATOM      7  O   UNL     1      10.309  -4.815  25.124  0.00  0.00    -0.267 OA
ATOM      8  C   UNL     1       8.076  -4.106  24.693  0.00  0.00    +0.056 A 
ATOM      9  C   UNL     1       6.816  -4.288  25.112  0.00  0.00    +0.106 A 
ENDROOT
BRANCH   1  13
ATOM     10  C4* UNL     1       3.884  -5.252  24.557  0.00  0.00    +0.175 C 
ATOM     11  C3* UNL     1       3.870  -6.717  24.967  0.00  0.00    +0.150 C 
ATOM     12  C2* UNL     1       4.594  -6.751  26.300  0.00  0.00    +0.088 C 
ATOM     13  C1* UNL     1       5.058  -5.313  26.547  0.00  0.00    +0.226 C 
ATOM     14  O4* UNL     1       4.185  -4.498  25.748  0.00  0.00    -0.348 OA
BRANCH  11  15
ATOM     15  O3* UNL     1       4.562  -7.503  23.998  0.00  0.00    -0.389 OA
ATOM     16  H3* UNL     1       5.174  -6.912  23.526  0.00  0.00    +0.210 HD
ENDBRANCH  11  15
BRANCH  10  17
ATOM     17  C5* UNL     1       2.600  -4.744  23.911  0.00  0.00    +0.190 C 
BRANCH  17  18
ATOM     18  O5* UNL     1       2.209  -5.560  22.811  0.00  0.00    -0.392 OA
ATOM     19  H5* UNL     1       1.484  -6.128  23.130  0.00  0.00    +0.210 HD
ENDBRANCH  17  18
ENDBRANCH  10  17
ENDBRANCH   1  13
BRANCH   8  20
ATOM     20  C   UNL     1       8.415  -3.413  23.458  0.00  0.00    +0.022 C 
ATOM     21  C   UNL     1       8.871  -2.157  23.367  0.00  0.00    +0.052 C 
ATOM     22 BR   UNL     1       9.228  -1.300  21.761  0.00  0.00    -0.059 Br
ENDBRANCH   8  20
TORSDOF 5
ENDMDL
MODEL 2
REMARK VINA RESULT:      -5.9      2.399      3.131
REMARK  Name = 
REMARK  5 active torsions:
REMARK  status: ('A' for Active; 'I' for Inactive)
REMARK    1  A    between atoms: O5*_1  and  C5*_2
REMARK    2  A    between atoms: C5*_2  and  C4*_3
REMARK    3  A    between atoms: C1*_6  and  N_12
REMARK    4  A    between atoms: C3*_9  and  O3*_11
REMARK    5  A    between atoms: C_14  and  C_15
REMARK                            x       y       z     vdW  Elec       q    Type
REMARK                         _______ _______ _______ _____ _____    ______ ____
ROOT
ATOM      1  N   UNL     1       7.784  -3.954  24.470  0.00  0.00    -0.273 N 
ATOM      2  C   UNL     1       7.957  -4.025  25.846  0.00  0.00    +0.331 A 
ATOM      3  O   UNL     1       7.831  -5.056  26.505  0.00  0.00    -0.246 OA
ATOM      4  N   UNL     1       8.316  -2.852  26.457  0.00  0.00    -0.274 N 
ATOM      5  H   UNL     1       8.530  -2.906  27.441  0.00  0.00    +0.173 HD
ATOM      6  C   UNL     1       8.602  -1.671  25.830  0.00  0.00    +0.261 A 
ATOM      7  O   UNL     1       9.113  -0.731  26.429  0.00  0.00    -0.267 OA
ATOM      8  C   UNL     1       8.251  -1.596  24.383  0.00  0.00    +0.056 A 
ATOM      9  C   UNL     1       7.863  -2.742  23.807  0.00  0.00    +0.106 A 
ENDROOT
BRANCH   1  13
ATOM     10  C4* UNL     1       5.185  -5.159  23.356  0.00  0.00    +0.175 C 
ATOM     11  C3* UNL     1       5.818  -4.961  21.987  0.00  0.00    +0.150 C 
ATOM     12  C2* UNL     1       7.312  -5.041  22.238  0.00  0.00    +0.088 C 
ATOM     13  C1* UNL     1       7.463  -5.199  23.753  0.00  0.00    +0.226 C 
ATOM     14  O4* UNL     1       6.205  -5.735  24.198  0.00  0.00    -0.348 OA
BRANCH  11  15
ATOM     15  O3* UNL     1       5.464  -3.682  21.463  0.00  0.00    -0.389 OA
ATOM     16  H3* UNL     1       4.493  -3.615  21.492  0.00  0.00    +0.210 HD
ENDBRANCH  11  15
BRANCH  10  17
ATOM     17  C5* UNL     1       3.926  -6.018  23.375  0.00  0.00    +0.190 C 
BRANCH  17  18
ATOM     18  O5* UNL     1       4.219  -7.370  23.712  0.00  0.00    -0.392 OA
ATOM     19  H5* UNL     1       3.567  -7.920  23.242  0.00  0.00    +0.210 HD
ENDBRANCH  17  18
ENDBRANCH  10  17
ENDBRANCH   1  13
BRANCH   8  20
ATOM     20  C   UNL     1       8.465  -0.362  23.642  0.00  0.00    +0.022 C 
ATOM     21  C   UNL     1       9.556  -0.058  22.926  0.00  0.00    +0.052 C 
ATOM     22 BR   UNL     1       9.803   1.559  22.051  0.00  0.00    -0.059 Br
ENDBRANCH   8  20
TORSDOF 5
ENDMDL
MODEL 3
REMARK VINA RESULT:      -5.8      3.304      4.794
REMARK  Name = 
REMARK  5 active torsions:
REMARK  status: ('A' for Active; 'I' for Inactive)
REMARK    1  A    between atoms: O5*_1  and  C5*_2
REMARK    2  A    between atoms: C5*_2  and  C4*_3
REMARK    3  A    between atoms: C1*_6  and  N_12
REMARK    4  A    between atoms: C3*_9  and  O3*_11
REMARK    5  A    between atoms: C_14  and  C_15
REMARK                            x       y       z     vdW  Elec       q    Type
REMARK                         _______ _______ _______ _____ _____    ______ ____
ROOT
ATOM      1  N   UNL     1       7.570  -4.872  24.846  0.00  0.00    -0.273 N 
ATOM      2  C   UNL     1       8.650  -5.275  25.619  0.00  0.00    +0.331 A 
ATOM      3  O   UNL     1       9.823  -5.208  25.256  0.00  0.00    -0.246 OA
ATOM      4  N   UNL     1       8.338  -5.744  26.869  0.00  0.00    -0.274 N 
ATOM      5  H   UNL     1       9.116  -5.958  27.475  0.00  0.00    +0.173 HD
ATOM      6  C   UNL     1       7.095  -5.761  27.437  0.00  0.00    +0.261 A 
ATOM      7  O   UNL     1       6.934  -6.002  28.628  0.00  0.00    -0.267 OA
ATOM      8  C   UNL     1       5.953  -5.472  26.522  0.00  0.00    +0.056 A 
ATOM      9  C   UNL     1       6.272  -5.054  25.290  0.00  0.00    +0.106 A 
ENDROOT
BRANCH   1  13
ATOM     10  C4* UNL     1       6.337  -5.253  22.056  0.00  0.00    +0.175 C 
ATOM     11  C3* UNL     1       5.887  -3.806  22.185  0.00  0.00    +0.150 C 
ATOM     12  C2* UNL     1       6.911  -3.164  23.103  0.00  0.00    +0.088 C 
ATOM     13  C1* UNL     1       7.851  -4.298  23.519  0.00  0.00    +0.226 C 
ATOM     14  O4* UNL     1       7.711  -5.294  22.492  0.00  0.00    -0.348 OA
BRANCH  11  15
ATOM     15  O3* UNL     1       4.585  -3.748  22.766  0.00  0.00    -0.389 OA
ATOM     16  H3* UNL     1       4.337  -2.809  22.832  0.00  0.00    +0.210 HD
ENDBRANCH  11  15
BRANCH  10  17
ATOM     17  C5* UNL     1       6.198  -5.857  20.663  0.00  0.00    +0.190 C 
BRANCH  17  18
ATOM     18  O5* UNL     1       5.811  -4.879  19.704  0.00  0.00    -0.392 OA
ATOM     19  H5* UNL     1       6.380  -4.103  19.854  0.00  0.00    +0.210 HD
ENDBRANCH  17  18
ENDBRANCH  10  17
ENDBRANCH   1  13
BRANCH   8  20
ATOM     20  C   UNL     1       4.586  -5.523  27.020  0.00  0.00    +0.022 C 
ATOM     21  C   UNL     1       3.755  -6.568  26.917  0.00  0.00    +0.052 C 
ATOM     22 BR   UNL     1       1.999  -6.556  27.514  0.00  0.00    -0.059 Br
ENDBRANCH   8  20
TORSDOF 5
ENDMDL
MODEL 4
REMARK VINA RESULT:      -5.8      3.465      5.757
REMARK  Name = 
REMARK  5 active torsions:
REMARK  status: ('A' for Active; 'I' for Inactive)
REMARK    1  A    between atoms: O5*_1  and  C5*_2
REMARK    2  A    between atoms: C5*_2  and  C4*_3
REMARK    3  A    between atoms: C1*_6  and  N_12
REMARK    4  A    between atoms: C3*_9  and  O3*_11
REMARK    5  A    between atoms: C_14  and  C_15
REMARK                            x       y       z     vdW  Elec       q    Type
REMARK                         _______ _______ _______ _____ _____    ______ ____
ROOT
ATOM      1  N   UNL     1       6.487  -4.956  23.356  0.00  0.00    -0.273 N 
ATOM      2  C   UNL     1       5.646  -5.515  22.403  0.00  0.00    +0.331 A 
ATOM      3  O   UNL     1       5.726  -5.293  21.197  0.00  0.00    -0.246 OA
ATOM      4  N   UNL     1       4.701  -6.382  22.887  0.00  0.00    -0.274 N 
ATOM      5  H   UNL     1       4.140  -6.863  22.200  0.00  0.00    +0.173 HD
ATOM      6  C   UNL     1       4.581  -6.804  24.182  0.00  0.00    +0.261 A 
ATOM      7  O   UNL     1       3.846  -7.734  24.491  0.00  0.00    -0.267 OA
ATOM      8  C   UNL     1       5.394  -6.063  25.190  0.00  0.00    +0.056 A 
ATOM      9  C   UNL     1       6.285  -5.189  24.705  0.00  0.00    +0.106 A 
ENDROOT
BRANCH   1  13
ATOM     10  C4* UNL     1       6.971  -1.925  23.520  0.00  0.00    +0.175 C 
ATOM     11  C3* UNL     1       8.149  -2.279  24.414  0.00  0.00    +0.150 C 
ATOM     12  C2* UNL     1       8.574  -3.664  23.963  0.00  0.00    +0.088 C 
ATOM     13  C1* UNL     1       7.564  -4.067  22.885  0.00  0.00    +0.226 C 
ATOM     14  O4* UNL     1       7.025  -2.827  22.397  0.00  0.00    -0.348 OA
BRANCH  11  15
ATOM     15  O3* UNL     1       7.739  -2.299  25.780  0.00  0.00    -0.389 OA
ATOM     16  H3* UNL     1       7.124  -3.046  25.889  0.00  0.00    +0.210 HD
ENDBRANCH  11  15
BRANCH  10  17
ATOM     17  C5* UNL     1       6.926  -0.477  23.044  0.00  0.00    +0.190 C 
BRANCH  17  18
ATOM     18  O5* UNL     1       6.001   0.296  23.802  0.00  0.00    -0.392 OA
ATOM     19  H5* UNL     1       6.104   1.219  23.508  0.00  0.00    +0.210 HD
ENDBRANCH  17  18
ENDBRANCH  10  17
ENDBRANCH   1  13
BRANCH   8  20
ATOM     20  C   UNL     1       5.292  -6.400  26.602  0.00  0.00    +0.022 C 
ATOM     21  C   UNL     1       5.857  -5.722  27.610  0.00  0.00    +0.052 C 
ATOM     22 BR   UNL     1       5.746  -6.233  29.390  0.00  0.00    -0.059 Br
ENDBRANCH   8  20
TORSDOF 5
ENDMDL
MODEL 5
REMARK VINA RESULT:      -5.7      3.989      6.415
REMARK  Name = 
REMARK  5 active torsions:
REMARK  status: ('A' for Active; 'I' for Inactive)
REMARK    1  A    between atoms: O5*_1  and  C5*_2
REMARK    2  A    between atoms: C5*_2  and  C4*_3
REMARK    3  A    between atoms: C1*_6  and  N_12
REMARK    4  A    between atoms: C3*_9  and  O3*_11
REMARK    5  A    between atoms: C_14  and  C_15
REMARK                            x       y       z     vdW  Elec       q    Type
REMARK                         _______ _______ _______ _____ _____    ______ ____
ROOT
ATOM      1  N   UNL     1       7.983  -1.224  24.876  0.00  0.00    -0.273 N 
ATOM      2  C   UNL     1       8.467  -1.516  26.143  0.00  0.00    +0.331 A 
ATOM      3  O   UNL     1       8.712  -0.670  27.001  0.00  0.00    -0.246 OA
ATOM      4  N   UNL     1       8.641  -2.849  26.415  0.00  0.00    -0.274 N 
ATOM      5  H   UNL     1       8.908  -3.083  27.359  0.00  0.00    +0.173 HD
ATOM      6  C   UNL     1       8.297  -3.890  25.598  0.00  0.00    +0.261 A 
ATOM      7  O   UNL     1       8.293  -5.048  25.999  0.00  0.00    -0.267 OA
ATOM      8  C   UNL     1       7.934  -3.531  24.198  0.00  0.00    +0.056 A 
ATOM      9  C   UNL     1       7.808  -2.223  23.935  0.00  0.00    +0.106 A 
ENDROOT
BRANCH   1  13
ATOM     10  C4* UNL     1       9.547   0.947  23.361  0.00  0.00    +0.175 C 
ATOM     11  C3* UNL     1       8.425   0.876  22.337  0.00  0.00    +0.150 C 
ATOM     12  C2* UNL     1       7.209   0.430  23.127  0.00  0.00    +0.088 C 
ATOM     13  C1* UNL     1       7.716   0.188  24.551  0.00  0.00    +0.226 C 
ATOM     14  O4* UNL     1       8.916   0.973  24.658  0.00  0.00    -0.348 OA
BRANCH  11  15
ATOM     15  O3* UNL     1       8.745  -0.077  21.325  0.00  0.00    -0.389 OA
ATOM     16  H3* UNL     1       8.890   0.414  20.497  0.00  0.00    +0.210 HD
ENDBRANCH  11  15
BRANCH  10  17
ATOM     17  C5* UNL     1      10.500   2.127  23.205  0.00  0.00    +0.190 C 
BRANCH  17  18
ATOM     18  O5* UNL     1      10.527   2.605  21.864  0.00  0.00    -0.392 OA
ATOM     19  H5* UNL     1      10.770   3.547  21.910  0.00  0.00    +0.210 HD
ENDBRANCH  17  18
ENDBRANCH  10  17
ENDBRANCH   1  13
BRANCH   8  20
ATOM     20  C   UNL     1       7.608  -4.574  23.236  0.00  0.00    +0.022 C 
ATOM     21  C   UNL     1       6.681  -4.488  22.273  0.00  0.00    +0.052 C 
ATOM     22 BR   UNL     1       6.262  -5.873  21.113  0.00  0.00    -0.059 Br
ENDBRANCH   8  20
TORSDOF 5
ENDMDL
MODEL 6
REMARK VINA RESULT:      -5.7      3.976      6.021
REMARK  Name = 
REMARK  5 active torsions:
REMARK  status: ('A' for Active; 'I' for Inactive)
REMARK    1  A    between atoms: O5*_1  and  C5*_2
REMARK    2  A    between atoms: C5*_2  and  C4*_3
REMARK    3  A    between atoms: C1*_6  and  N_12
REMARK    4  A    between atoms: C3*_9  and  O3*_11
REMARK    5  A    between atoms: C_14  and  C_15
REMARK                            x       y       z     vdW  Elec       q    Type
REMARK                         _______ _______ _______ _____ _____    ______ ____
ROOT
ATOM      1  N   UNL     1       8.870  -1.320  23.649  0.00  0.00    -0.273 N 
ATOM      2  C   UNL     1      10.106  -1.058  23.072  0.00  0.00    +0.331 A 
ATOM      3  O   UNL     1      10.725  -1.859  22.376  0.00  0.00    -0.246 OA
ATOM      4  N   UNL     1      10.609   0.196  23.302  0.00  0.00    -0.274 N 
ATOM      5  H   UNL     1      11.462   0.432  22.818  0.00  0.00    +0.173 HD
ATOM      6  C   UNL     1       9.972   1.214  23.955  0.00  0.00    +0.261 A 
ATOM      7  O   UNL     1      10.404   2.361  23.937  0.00  0.00    -0.267 OA
ATOM      8  C   UNL     1       8.729   0.844  24.690  0.00  0.00    +0.056 A 
ATOM      9  C   UNL     1       8.269  -0.399  24.489  0.00  0.00    +0.106 A 
ENDROOT
BRANCH   1  13
ATOM     10  C4* UNL     1       8.738  -3.971  25.200  0.00  0.00    +0.175 C 
ATOM     11  C3* UNL     1       7.246  -3.695  25.313  0.00  0.00    +0.150 C 
ATOM     12  C2* UNL     1       6.914  -2.859  24.092  0.00  0.00    +0.088 C 
ATOM     13  C1* UNL     1       8.251  -2.629  23.381  0.00  0.00    +0.226 C 
ATOM     14  O4* UNL     1       9.100  -3.698  23.831  0.00  0.00    -0.348 OA
BRANCH  11  15
ATOM     15  O3* UNL     1       6.973  -2.969  26.510  0.00  0.00    -0.389 OA
ATOM     16  H3* UNL     1       6.100  -3.255  26.832  0.00  0.00    +0.210 HD
ENDBRANCH  11  15
BRANCH  10  17
ATOM     17  C5* UNL     1       9.174  -5.376  25.600  0.00  0.00    +0.190 C 
BRANCH  17  18
ATOM     18  O5* UNL     1       8.373  -5.892  26.658  0.00  0.00    -0.392 OA
ATOM     19  H5* UNL     1       7.446  -5.807  26.371  0.00  0.00    +0.210 HD
ENDBRANCH  17  18
ENDBRANCH  10  17
ENDBRANCH   1  13
BRANCH   8  20
ATOM     20  C   UNL     1       8.010   1.846  25.463  0.00  0.00    +0.022 C 
ATOM     21  C   UNL     1       7.014   2.618  25.008  0.00  0.00    +0.052 C 
ATOM     22 BR   UNL     1       6.174   3.926  26.021  0.00  0.00    -0.059 Br
ENDBRANCH   8  20
TORSDOF 5
ENDMDL
MODEL 7
REMARK VINA RESULT:      -5.7      3.166      4.856
REMARK  Name = 
REMARK  5 active torsions:
REMARK  status: ('A' for Active; 'I' for Inactive)
REMARK    1  A    between atoms: O5*_1  and  C5*_2
REMARK    2  A    between atoms: C5*_2  and  C4*_3
REMARK    3  A    between atoms: C1*_6  and  N_12
REMARK    4  A    between atoms: C3*_9  and  O3*_11
REMARK    5  A    between atoms: C_14  and  C_15
REMARK                            x       y       z     vdW  Elec       q    Type
REMARK                         _______ _______ _______ _____ _____    ______ ____
ROOT
ATOM      1  N   UNL     1       8.254  -2.581  23.266  0.00  0.00    -0.273 N 
ATOM      2  C   UNL     1       9.568  -2.448  23.694  0.00  0.00    +0.331 A 
ATOM      3  O   UNL     1      10.288  -3.391  24.016  0.00  0.00    -0.246 OA
ATOM      4  N   UNL     1      10.055  -1.167  23.714  0.00  0.00    -0.274 N 
ATOM      5  H   UNL     1      11.033  -1.062  23.937  0.00  0.00    +0.173 HD
ATOM      6  C   UNL     1       9.403  -0.049  23.271  0.00  0.00    +0.261 A 
ATOM      7  O   UNL     1       9.983   1.022  23.132  0.00  0.00    -0.267 OA
ATOM      8  C   UNL     1       7.952  -0.213  22.973  0.00  0.00    +0.056 A 
ATOM      9  C   UNL     1       7.479  -1.466  22.997  0.00  0.00    +0.106 A 
ENDROOT
BRANCH   1  13
ATOM     10  C4* UNL     1       6.803  -4.445  25.233  0.00  0.00    +0.175 C 
ATOM     11  C3* UNL     1       5.597  -4.276  24.322  0.00  0.00    +0.150 C 
ATOM     12  C2* UNL     1       6.185  -3.998  22.951  0.00  0.00    +0.088 C 
ATOM     13  C1* UNL     1       7.700  -3.941  23.162  0.00  0.00    +0.226 C 
ATOM     14  O4* UNL     1       7.935  -4.682  24.372  0.00  0.00    -0.348 OA
BRANCH  11  15
ATOM     15  O3* UNL     1       4.802  -3.175  24.761  0.00  0.00    -0.389 OA
ATOM     16  H3* UNL     1       5.390  -2.403  24.835  0.00  0.00    +0.210 HD
ENDBRANCH  11  15
BRANCH  10  17
ATOM     17  C5* UNL     1       6.682  -5.550  26.276  0.00  0.00    +0.190 C 
BRANCH  17  18
ATOM     18  O5* UNL     1       7.940  -5.845  26.875  0.00  0.00    -0.392 OA
ATOM     19  H5* UNL     1       7.749  -6.336  27.695  0.00  0.00    +0.210 HD
ENDBRANCH  17  18
ENDBRANCH  10  17
ENDBRANCH   1  13
BRANCH   8  20
ATOM     20  C   UNL     1       7.158   0.932  22.551  0.00  0.00    +0.022 C 
ATOM     21  C   UNL     1       6.498   1.768  23.363  0.00  0.00    +0.052 C 
ATOM     22 BR   UNL     1       5.448   3.177  22.767  0.00  0.00    -0.059 Br
ENDBRANCH   8  20
TORSDOF 5
ENDMDL
MODEL 8
REMARK VINA RESULT:      -5.6      4.827      7.120
REMARK  Name = 
REMARK  5 active torsions:
REMARK  status: ('A' for Active; 'I' for Inactive)
REMARK    1  A    between atoms: O5*_1  and  C5*_2
REMARK    2  A    between atoms: C5*_2  and  C4*_3
REMARK    3  A    between atoms: C1*_6  and  N_12
REMARK    4  A    between atoms: C3*_9  and  O3*_11
REMARK    5  A    between atoms: C_14  and  C_15
REMARK                            x       y       z     vdW  Elec       q    Type
REMARK                         _______ _______ _______ _____ _____    ______ ____
ROOT
ATOM      1  N   UNL     1       9.464   0.323  23.383  0.00  0.00    -0.273 N 
ATOM      2  C   UNL     1      10.209   0.995  24.343  0.00  0.00    +0.331 A 
ATOM      3  O   UNL     1      11.240   0.556  24.848  0.00  0.00    -0.246 OA
ATOM      4  N   UNL     1       9.737   2.233  24.696  0.00  0.00    -0.274 N 
ATOM      5  H   UNL     1      10.314   2.770  25.325  0.00  0.00    +0.173 HD
ATOM      6  C   UNL     1       8.676   2.883  24.129  0.00  0.00    +0.261 A 
ATOM      7  O   UNL     1       8.450   4.066  24.357  0.00  0.00    -0.267 OA
ATOM      8  C   UNL     1       7.816   2.068  23.224  0.00  0.00    +0.056 A 
ATOM      9  C   UNL     1       8.269   0.844  22.920  0.00  0.00    +0.106 A 
ENDROOT
BRANCH   1  13
ATOM     10  C4* UNL     1       8.709  -2.589  24.016  0.00  0.00    +0.175 C 
ATOM     11  C3* UNL     1       8.243  -2.660  22.569  0.00  0.00    +0.150 C 
ATOM     12  C2* UNL     1       9.101  -1.644  21.838  0.00  0.00    +0.088 C 
ATOM     13  C1* UNL     1       9.960  -0.984  22.919  0.00  0.00    +0.226 C 
ATOM     14  O4* UNL     1       9.993  -1.931  23.999  0.00  0.00    -0.348 OA
BRANCH  11  15
ATOM     15  O3* UNL     1       6.863  -2.309  22.482  0.00  0.00    -0.389 OA
ATOM     16  H3* UNL     1       6.763  -1.706  21.725  0.00  0.00    +0.210 HD
ENDBRANCH  11  15
BRANCH  10  17
ATOM     17  C5* UNL     1       8.803  -3.929  24.737  0.00  0.00    +0.190 C 
BRANCH  17  18
ATOM     18  O5* UNL     1      10.103  -4.497  24.621  0.00  0.00    -0.392 OA
ATOM     19  H5* UNL     1      10.015  -5.441  24.846  0.00  0.00    +0.210 HD
ENDBRANCH  17  18
ENDBRANCH  10  17
ENDBRANCH   1  13
BRANCH   8  20
ATOM     20  C   UNL     1       6.631   2.655  22.617  0.00  0.00    +0.022 C 
ATOM     21  C   UNL     1       5.433   2.782  23.205  0.00  0.00    +0.052 C 
ATOM     22 BR   UNL     1       3.936   3.482  22.363  0.00  0.00    -0.059 Br
ENDBRANCH   8  20
TORSDOF 5
ENDMDL
MODEL 9
REMARK VINA RESULT:      -5.6      3.292      5.571
REMARK  Name = 
REMARK  5 active torsions:
REMARK  status: ('A' for Active; 'I' for Inactive)
REMARK    1  A    between atoms: O5*_1  and  C5*_2
REMARK    2  A    between atoms: C5*_2  and  C4*_3
REMARK    3  A    between atoms: C1*_6  and  N_12
REMARK    4  A    between atoms: C3*_9  and  O3*_11
REMARK    5  A    between atoms: C_14  and  C_15
REMARK                            x       y       z     vdW  Elec       q    Type
REMARK                         _______ _______ _______ _____ _____    ______ ____
ROOT
ATOM      1  N   UNL     1       8.172  -3.905  24.835  0.00  0.00    -0.273 N 
ATOM      2  C   UNL     1       9.060  -4.861  25.309  0.00  0.00    +0.331 A 
ATOM      3  O   UNL     1      10.191  -5.037  24.860  0.00  0.00    -0.246 OA
ATOM      4  N   UNL     1       8.609  -5.613  26.363  0.00  0.00    -0.274 N 
ATOM      5  H   UNL     1       9.272  -6.251  26.776  0.00  0.00    +0.173 HD
ATOM      6  C   UNL     1       7.427  -5.441  27.029  0.00  0.00    +0.261 A 
ATOM      7  O   UNL     1       7.193  -6.017  28.085  0.00  0.00    -0.267 OA
ATOM      8  C   UNL     1       6.444  -4.519  26.391  0.00  0.00    +0.056 A 
ATOM      9  C   UNL     1       6.885  -3.820  25.336  0.00  0.00    +0.106 A 
ENDROOT
BRANCH   1  13
ATOM     10  C4* UNL     1       7.730  -0.937  24.170  0.00  0.00    +0.175 C 
ATOM     11  C3* UNL     1       9.220  -0.776  24.434  0.00  0.00    +0.150 C 
ATOM     12  C2* UNL     1       9.818  -2.131  24.105  0.00  0.00    +0.088 C 
ATOM     13  C1* UNL     1       8.629  -3.025  23.746  0.00  0.00    +0.226 C 
ATOM     14  O4* UNL     1       7.586  -2.116  23.353  0.00  0.00    -0.348 OA
BRANCH  11  15
ATOM     15  O3* UNL     1       9.441  -0.448  25.805  0.00  0.00    -0.389 OA
ATOM     16  H3* UNL     1      10.132  -1.045  26.140  0.00  0.00    +0.210 HD
ENDBRANCH  11  15
BRANCH  10  17
ATOM     17  C5* UNL     1       7.052   0.259  23.511  0.00  0.00    +0.190 C 
BRANCH  17  18
ATOM     18  O5* UNL     1       5.693   0.380  23.916  0.00  0.00    -0.392 OA
ATOM     19  H5* UNL     1       5.553   1.317  24.141  0.00  0.00    +0.210 HD
ENDBRANCH  17  18
ENDBRANCH  10  17
ENDBRANCH   1  13
BRANCH   8  20
ATOM     20  C   UNL     1       5.135  -4.315  26.993  0.00  0.00    +0.022 C 
ATOM     21  C   UNL     1       3.986  -4.857  26.568  0.00  0.00    +0.052 C 
ATOM     22 BR   UNL     1       2.333  -4.513  27.336  0.00  0.00    -0.059 Br
ENDBRANCH   8  20
TORSDOF 5
ENDMDL
