MODEL 1
REMARK VINA RESULT:      -6.4      0.000      0.000
REMARK  Name = 
REMARK  8 active torsions:
REMARK  status: ('A' for Active; 'I' for Inactive)
REMARK    1  A    between atoms: C_1  and  N_2
REMARK    2  A    between atoms: N_2  and  C_3
REMARK    3  A    between atoms: N_2  and  C_4
REMARK    4  A    between atoms: C_4  and  C_5
REMARK    5  A    between atoms: C_5  and  C_6
REMARK    6  A    between atoms: C_6  and  N_7
REMARK    7  A    between atoms: C_8  and  C_10
REMARK    8  A    between atoms: C_15  and  N_16
REMARK                            x       y       z     vdW  Elec       q    Type
REMARK                         _______ _______ _______ _____ _____    ______ ____
ROOT
ATOM      1  C   UNL     1       7.687  -3.633  23.557  0.00  0.00    +0.063 A 
ATOM      2  C   UNL     1       6.915  -4.467  24.394  0.00  0.00    +0.086 A 
ATOM      3  C   UNL     1       5.925  -5.284  23.794  0.00  0.00    +0.022 A 
ATOM      4  C   UNL     1       5.128  -6.114  24.636  0.00  0.00    +0.043 A 
ATOM      5  C   UNL     1       5.391  -6.165  26.033  0.00  0.00    +0.022 A 
ATOM      6  C   UNL     1       4.708  -7.002  26.957  0.00  0.00    +0.012 A 
ATOM      7  C   UNL     1       4.993  -6.973  28.321  0.00  0.00    +0.001 A 
ATOM      8  C   UNL     1       5.976  -6.117  28.790  0.00  0.00    +0.002 A 
ATOM      9  C   UNL     1       6.662  -5.301  27.888  0.00  0.00    +0.028 A 
ATOM     10  C   UNL     1       6.390  -5.310  26.525  0.00  0.00    +0.073 A 
ATOM     11  C   UNL     1       5.758  -5.236  22.386  0.00  0.00    +0.012 A 
ATOM     12  C   UNL     1       6.512  -4.392  21.581  0.00  0.00    +0.001 A 
ATOM     13  N   UNL     1       7.103  -4.492  25.736  0.00  0.00    -0.246 NA
ATOM     14  C   UNL     1       7.474  -3.593  22.167  0.00  0.00    +0.015 A 
ENDROOT
BRANCH   1  17
ATOM     15  N   UNL     1       8.453  -1.656  24.811  0.00  0.00    -0.311 N 
ATOM     16  H   UNL     1       7.462  -1.452  24.938  0.00  0.00    +0.149 HD
ATOM     17  C   UNL     1       8.792  -2.747  24.050  0.00  0.00    +0.246 C 
ATOM     18  O   UNL     1       9.961  -3.009  23.774  0.00  0.00    -0.270 OA
BRANCH  15  19
ATOM     19  C   UNL     1       9.432  -0.718  25.315  0.00  0.00    +0.106 C 
BRANCH  19  20
ATOM     20  C   UNL     1       9.140   0.719  24.887  0.00  0.00    +0.034 C 
BRANCH  20  21
ATOM     21  C   UNL     1       9.646   1.051  23.476  0.00  0.00    +0.085 C 
BRANCH  21  23
ATOM     22  C   UNL     1       8.140   1.721  21.678  0.00  0.00    +0.104 C 
ATOM     23  N   UNL     1       8.759   0.599  22.388  0.00  0.00    -0.308 NA
ATOM     24  C   UNL     1       9.508  -0.234  21.444  0.00  0.00    +0.104 C 
ENDBRANCH  21  23
ENDBRANCH  20  21
ENDBRANCH  19  20
ENDBRANCH  15  19
ENDBRANCH   1  17
BRANCH   4  25
ATOM     25  N   UNL     1       4.216  -7.046  24.062  0.00  0.00    -0.357 N 
ATOM     26  H   UNL     1       3.893  -6.792  23.137  0.00  0.00    +0.142 HD
ATOM     27  H   UNL     1       4.546  -8.003  24.065  0.00  0.00    +0.142 HD
ENDBRANCH   4  25
TORSDOF 6
ENDMDL
MODEL 2
REMARK VINA RESULT:      -6.3      2.862      7.496
REMARK  Name = 
REMARK  8 active torsions:
REMARK  status: ('A' for Active; 'I' for Inactive)
REMARK    1  A    between atoms: C_1  and  N_2
REMARK    2  A    between atoms: N_2  and  C_3
REMARK    3  A    between atoms: N_2  and  C_4
REMARK    4  A    between atoms: C_4  and  C_5
REMARK    5  A    between atoms: C_5  and  C_6
REMARK    6  A    between atoms: C_6  and  N_7
REMARK    7  A    between atoms: C_8  and  C_10
REMARK    8  A    between atoms: C_15  and  N_16
REMARK                            x       y       z     vdW  Elec       q    Type
REMARK                         _______ _______ _______ _____ _____    ______ ____
ROOT
ATOM      1  C   UNL     1       8.011  -1.664  23.736  0.00  0.00    +0.063 A 
ATOM      2  C   UNL     1       7.899  -0.303  23.380  0.00  0.00    +0.086 A 
ATOM      3  C   UNL     1       9.000   0.312  22.735  0.00  0.00    +0.022 A 
ATOM      4  C   UNL     1       8.901   1.692  22.392  0.00  0.00    +0.043 A 
ATOM      5  C   UNL     1       7.686   2.395  22.627  0.00  0.00    +0.022 A 
ATOM      6  C   UNL     1       7.449   3.750  22.268  0.00  0.00    +0.012 A 
ATOM      7  C   UNL     1       6.246   4.387  22.564  0.00  0.00    +0.001 A 
ATOM      8  C   UNL     1       5.247   3.680  23.214  0.00  0.00    +0.002 A 
ATOM      9  C   UNL     1       5.465   2.345  23.559  0.00  0.00    +0.028 A 
ATOM     10  C   UNL     1       6.661   1.692  23.278  0.00  0.00    +0.073 A 
ATOM     11  C   UNL     1      10.158  -0.462  22.467  0.00  0.00    +0.012 A 
ATOM     12  C   UNL     1      10.260  -1.795  22.845  0.00  0.00    +0.001 A 
ATOM     13  N   UNL     1       6.776   0.408  23.647  0.00  0.00    -0.246 NA
ATOM     14  C   UNL     1       9.187  -2.393  23.477  0.00  0.00    +0.015 A 
ENDROOT
BRANCH   1  17
ATOM     15  N   UNL     1       5.751  -2.642  23.683  0.00  0.00    -0.311 N 
ATOM     16  H   UNL     1       5.656  -2.172  22.783  0.00  0.00    +0.149 HD
ATOM     17  C   UNL     1       6.914  -2.452  24.387  0.00  0.00    +0.246 C 
ATOM     18  O   UNL     1       7.072  -2.909  25.517  0.00  0.00    -0.270 OA
BRANCH  15  19
ATOM     19  C   UNL     1       4.617  -3.360  24.223  0.00  0.00    +0.106 C 
BRANCH  19  20
ATOM     20  C   UNL     1       4.148  -4.488  23.307  0.00  0.00    +0.034 C 
BRANCH  20  21
ATOM     21  C   UNL     1       5.194  -5.597  23.120  0.00  0.00    +0.085 C 
BRANCH  21  23
ATOM     22  C   UNL     1       7.610  -5.700  22.810  0.00  0.00    +0.104 C 
ATOM     23  N   UNL     1       6.337  -5.221  22.268  0.00  0.00    -0.308 NA
ATOM     24  C   UNL     1       6.144  -5.745  20.913  0.00  0.00    +0.104 C 
ENDBRANCH  21  23
ENDBRANCH  20  21
ENDBRANCH  19  20
ENDBRANCH  15  19
ENDBRANCH   1  17
BRANCH   4  25
ATOM     25  N   UNL     1       9.929   2.313  21.625  0.00  0.00    -0.357 N 
ATOM     26  H   UNL     1       9.930   3.325  21.678  0.00  0.00    +0.142 HD
ATOM     27  H   UNL     1      10.857   1.954  21.810  0.00  0.00    +0.142 HD
ENDBRANCH   4  25
TORSDOF 6
ENDMDL
MODEL 3
REMARK VINA RESULT:      -6.2      2.377      7.534
REMARK  Name = 
REMARK  8 active torsions:
REMARK  status: ('A' for Active; 'I' for Inactive)
REMARK    1  A    between atoms: C_1  and  N_2
REMARK    2  A    between atoms: N_2  and  C_3
REMARK    3  A    between atoms: N_2  and  C_4
REMARK    4  A    between atoms: C_4  and  C_5
REMARK    5  A    between atoms: C_5  and  C_6
REMARK    6  A    between atoms: C_6  and  N_7
REMARK    7  A    between atoms: C_8  and  C_10
REMARK    8  A    between atoms: C_15  and  N_16
REMARK                            x       y       z     vdW  Elec       q    Type
REMARK                         _______ _______ _______ _____ _____    ______ ____
ROOT
ATOM      1  C   UNL     1       7.890  -1.111  23.604  0.00  0.00    +0.063 A 
ATOM      2  C   UNL     1       8.305   0.234  23.710  0.00  0.00    +0.086 A 
ATOM      3  C   UNL     1       9.251   0.717  22.773  0.00  0.00    +0.022 A 
ATOM      4  C   UNL     1       9.690   2.069  22.886  0.00  0.00    +0.043 A 
ATOM      5  C   UNL     1       9.118   2.918  23.876  0.00  0.00    +0.022 A 
ATOM      6  C   UNL     1       9.428   4.295  24.040  0.00  0.00    +0.012 A 
ATOM      7  C   UNL     1       8.857   5.059  25.056  0.00  0.00    +0.001 A 
ATOM      8  C   UNL     1       7.954   4.466  25.923  0.00  0.00    +0.002 A 
ATOM      9  C   UNL     1       7.632   3.117  25.761  0.00  0.00    +0.028 A 
ATOM     10  C   UNL     1       8.195   2.335  24.758  0.00  0.00    +0.073 A 
ATOM     11  C   UNL     1       9.732  -0.161  21.768  0.00  0.00    +0.012 A 
ATOM     12  C   UNL     1       9.329  -1.488  21.693  0.00  0.00    +0.001 A 
ATOM     13  N   UNL     1       7.823   1.049  24.680  0.00  0.00    -0.246 NA
ATOM     14  C   UNL     1       8.410  -1.960  22.610  0.00  0.00    +0.015 A 
ENDROOT
BRANCH   1  17
ATOM     15  N   UNL     1       7.274  -2.159  25.746  0.00  0.00    -0.311 N 
ATOM     16  H   UNL     1       8.267  -2.093  25.972  0.00  0.00    +0.149 HD
ATOM     17  C   UNL     1       6.869  -1.744  24.502  0.00  0.00    +0.246 C 
ATOM     18  O   UNL     1       5.709  -1.874  24.119  0.00  0.00    -0.270 OA
BRANCH  15  19
ATOM     19  C   UNL     1       6.383  -2.808  26.683  0.00  0.00    +0.106 C 
BRANCH  19  20
ATOM     20  C   UNL     1       6.852  -4.211  27.061  0.00  0.00    +0.034 C 
BRANCH  20  21
ATOM     21  C   UNL     1       6.916  -5.175  25.867  0.00  0.00    +0.085 C 
BRANCH  21  23
ATOM     22  C   UNL     1       9.265  -5.414  25.257  0.00  0.00    +0.104 C 
ATOM     23  N   UNL     1       7.964  -4.857  24.880  0.00  0.00    -0.308 NA
ATOM     24  C   UNL     1       7.575  -5.354  23.558  0.00  0.00    +0.104 C 
ENDBRANCH  21  23
ENDBRANCH  20  21
ENDBRANCH  19  20
ENDBRANCH  15  19
ENDBRANCH   1  17
BRANCH   4  25
ATOM     25  N   UNL     1      10.535   2.632  21.887  0.00  0.00    -0.357 N 
ATOM     26  H   UNL     1      11.375   3.065  22.253  0.00  0.00    +0.142 HD
ATOM     27  H   UNL     1      10.771   1.994  21.137  0.00  0.00    +0.142 HD
ENDBRANCH   4  25
TORSDOF 6
ENDMDL
MODEL 4
REMARK VINA RESULT:      -6.2      2.375      7.693
REMARK  Name = 
REMARK  8 active torsions:
REMARK  status: ('A' for Active; 'I' for Inactive)
REMARK    1  A    between atoms: C_1  and  N_2
REMARK    2  A    between atoms: N_2  and  C_3
REMARK    3  A    between atoms: N_2  and  C_4
REMARK    4  A    between atoms: C_4  and  C_5
REMARK    5  A    between atoms: C_5  and  C_6
REMARK    6  A    between atoms: C_6  and  N_7
REMARK    7  A    between atoms: C_8  and  C_10
REMARK    8  A    between atoms: C_15  and  N_16
REMARK                            x       y       z     vdW  Elec       q    Type
REMARK                         _______ _______ _______ _____ _____    ______ ____
ROOT
ATOM      1  C   UNL     1       7.538  -1.516  22.786  0.00  0.00    +0.063 A 
ATOM      2  C   UNL     1       7.629  -0.111  22.702  0.00  0.00    +0.086 A 
ATOM      3  C   UNL     1       8.888   0.461  22.394  0.00  0.00    +0.022 A 
ATOM      4  C   UNL     1       8.991   1.881  22.327  0.00  0.00    +0.043 A 
ATOM      5  C   UNL     1       7.827   2.684  22.489  0.00  0.00    +0.022 A 
ATOM      6  C   UNL     1       7.796   4.100  22.378  0.00  0.00    +0.012 A 
ATOM      7  C   UNL     1       6.625   4.826  22.587  0.00  0.00    +0.001 A 
ATOM      8  C   UNL     1       5.456   4.152  22.898  0.00  0.00    +0.002 A 
ATOM      9  C   UNL     1       5.473   2.759  22.996  0.00  0.00    +0.028 A 
ATOM     10  C   UNL     1       6.632   2.016  22.798  0.00  0.00    +0.073 A 
ATOM     11  C   UNL     1       9.996  -0.398  22.177  0.00  0.00    +0.012 A 
ATOM     12  C   UNL     1       9.893  -1.779  22.287  0.00  0.00    +0.001 A 
ATOM     13  N   UNL     1       6.549   0.682  22.911  0.00  0.00    -0.246 NA
ATOM     14  C   UNL     1       8.666  -2.335  22.591  0.00  0.00    +0.015 A 
ENDROOT
BRANCH   1  17
ATOM     15  N   UNL     1       5.857  -2.369  24.372  0.00  0.00    -0.311 N 
ATOM     16  H   UNL     1       6.479  -2.015  25.098  0.00  0.00    +0.149 HD
ATOM     17  C   UNL     1       6.264  -2.257  23.066  0.00  0.00    +0.246 C 
ATOM     18  O   UNL     1       5.616  -2.738  22.139  0.00  0.00    -0.270 OA
BRANCH  15  19
ATOM     19  C   UNL     1       4.661  -3.085  24.760  0.00  0.00    +0.106 C 
BRANCH  19  20
ATOM     20  C   UNL     1       4.972  -4.416  25.441  0.00  0.00    +0.034 C 
BRANCH  20  21
ATOM     21  C   UNL     1       6.244  -5.091  24.909  0.00  0.00    +0.085 C 
BRANCH  21  23
ATOM     22  C   UNL     1       7.539  -5.063  26.976  0.00  0.00    +0.104 C 
ATOM     23  N   UNL     1       7.489  -4.655  25.570  0.00  0.00    -0.308 NA
ATOM     24  C   UNL     1       8.649  -5.191  24.855  0.00  0.00    +0.104 C 
ENDBRANCH  21  23
ENDBRANCH  20  21
ENDBRANCH  19  20
ENDBRANCH  15  19
ENDBRANCH   1  17
BRANCH   4  25
ATOM     25  N   UNL     1      10.203   2.490  21.891  0.00  0.00    -0.357 N 
ATOM     26  H   UNL     1      10.071   3.361  21.391  0.00  0.00    +0.142 HD
ATOM     27  H   UNL     1      10.893   2.609  22.622  0.00  0.00    +0.142 HD
ENDBRANCH   4  25
TORSDOF 6
ENDMDL
MODEL 5
REMARK VINA RESULT:      -5.9      2.148      6.891
REMARK  Name = 
REMARK  8 active torsions:
REMARK  status: ('A' for Active; 'I' for Inactive)
REMARK    1  A    between atoms: C_1  and  N_2
REMARK    2  A    between atoms: N_2  and  C_3
REMARK    3  A    between atoms: N_2  and  C_4
REMARK    4  A    between atoms: C_4  and  C_5
REMARK    5  A    between atoms: C_5  and  C_6
REMARK    6  A    between atoms: C_6  and  N_7
REMARK    7  A    between atoms: C_8  and  C_10
REMARK    8  A    between atoms: C_15  and  N_16
REMARK                            x       y       z     vdW  Elec       q    Type
REMARK                         _______ _______ _______ _____ _____    ______ ____
ROOT
ATOM      1  C   UNL     1       9.075  -1.217  23.485  0.00  0.00    +0.063 A 
ATOM      2  C   UNL     1       8.740   0.035  24.045  0.00  0.00    +0.086 A 
ATOM      3  C   UNL     1       8.987   1.199  23.277  0.00  0.00    +0.022 A 
ATOM      4  C   UNL     1       8.670   2.467  23.844  0.00  0.00    +0.043 A 
ATOM      5  C   UNL     1       8.045   2.535  25.121  0.00  0.00    +0.022 A 
ATOM      6  C   UNL     1       7.624   3.735  25.756  0.00  0.00    +0.012 A 
ATOM      7  C   UNL     1       7.052   3.730  27.027  0.00  0.00    +0.001 A 
ATOM      8  C   UNL     1       6.876   2.524  27.686  0.00  0.00    +0.002 A 
ATOM      9  C   UNL     1       7.273   1.339  27.065  0.00  0.00    +0.028 A 
ATOM     10  C   UNL     1       7.852   1.322  25.800  0.00  0.00    +0.073 A 
ATOM     11  C   UNL     1       9.550   1.059  21.982  0.00  0.00    +0.012 A 
ATOM     12  C   UNL     1       9.895  -0.179  21.456  0.00  0.00    +0.001 A 
ATOM     13  N   UNL     1       8.200   0.134  25.284  0.00  0.00    -0.246 NA
ATOM     14  C   UNL     1       9.657  -1.314  22.207  0.00  0.00    +0.015 A 
ENDROOT
BRANCH   1  17
ATOM     15  N   UNL     1       7.626  -2.721  24.789  0.00  0.00    -0.311 N 
ATOM     16  H   UNL     1       6.979  -1.934  24.828  0.00  0.00    +0.149 HD
ATOM     17  C   UNL     1       8.834  -2.530  24.168  0.00  0.00    +0.246 C 
ATOM     18  O   UNL     1       9.704  -3.398  24.155  0.00  0.00    -0.270 OA
BRANCH  15  19
ATOM     19  C   UNL     1       7.296  -3.936  25.503  0.00  0.00    +0.106 C 
BRANCH  19  20
ATOM     20  C   UNL     1       6.238  -4.768  24.783  0.00  0.00    +0.034 C 
BRANCH  20  21
ATOM     21  C   UNL     1       6.701  -5.296  23.417  0.00  0.00    +0.085 C 
BRANCH  21  23
ATOM     22  C   UNL     1       5.610  -3.571  22.081  0.00  0.00    +0.104 C 
ATOM     23  N   UNL     1       5.774  -5.009  22.306  0.00  0.00    -0.308 NA
ATOM     24  C   UNL     1       6.249  -5.654  21.079  0.00  0.00    +0.104 C 
ENDBRANCH  21  23
ENDBRANCH  20  21
ENDBRANCH  19  20
ENDBRANCH  15  19
ENDBRANCH   1  17
BRANCH   4  25
ATOM     25  N   UNL     1       8.777   3.650  23.057  0.00  0.00    -0.357 N 
ATOM     26  H   UNL     1       8.488   3.532  22.093  0.00  0.00    +0.142 HD
ATOM     27  H   UNL     1       8.322   4.459  23.460  0.00  0.00    +0.142 HD
ENDBRANCH   4  25
TORSDOF 6
ENDMDL
MODEL 6
REMARK VINA RESULT:      -5.8      2.263      7.935
REMARK  Name = 
REMARK  8 active torsions:
REMARK  status: ('A' for Active; 'I' for Inactive)
REMARK    1  A    between atoms: C_1  and  N_2
REMARK    2  A    between atoms: N_2  and  C_3
REMARK    3  A    between atoms: N_2  and  C_4
REMARK    4  A    between atoms: C_4  and  C_5
REMARK    5  A    between atoms: C_5  and  C_6
REMARK    6  A    between atoms: C_6  and  N_7
REMARK    7  A    between atoms: C_8  and  C_10
REMARK    8  A    between atoms: C_15  and  N_16
REMARK                            x       y       z     vdW  Elec       q    Type
REMARK                         _______ _______ _______ _____ _____    ______ ____
ROOT
ATOM      1  C   UNL     1       7.997  -1.347  23.673  0.00  0.00    +0.063 A 
ATOM      2  C   UNL     1       8.339   0.017  23.791  0.00  0.00    +0.086 A 
ATOM      3  C   UNL     1       9.247   0.562  22.850  0.00  0.00    +0.022 A 
ATOM      4  C   UNL     1       9.612   1.935  22.976  0.00  0.00    +0.043 A 
ATOM      5  C   UNL     1       9.005   2.740  23.981  0.00  0.00    +0.022 A 
ATOM      6  C   UNL     1       9.241   4.130  24.158  0.00  0.00    +0.012 A 
ATOM      7  C   UNL     1       8.640   4.849  25.190  0.00  0.00    +0.001 A 
ATOM      8  C   UNL     1       7.780   4.198  26.058  0.00  0.00    +0.002 A 
ATOM      9  C   UNL     1       7.530   2.835  25.883  0.00  0.00    +0.028 A 
ATOM     10  C   UNL     1       8.125   2.097  24.864  0.00  0.00    +0.073 A 
ATOM     11  C   UNL     1       9.765  -0.277  21.830  0.00  0.00    +0.012 A 
ATOM     12  C   UNL     1       9.434  -1.623  21.743  0.00  0.00    +0.001 A 
ATOM     13  N   UNL     1       7.823   0.794  24.775  0.00  0.00    -0.246 NA
ATOM     14  C   UNL     1       8.551  -2.155  22.663  0.00  0.00    +0.015 A 
ENDROOT
BRANCH   1  17
ATOM     15  N   UNL     1       7.484  -2.534  25.769  0.00  0.00    -0.311 N 
ATOM     16  H   UNL     1       8.485  -2.471  25.955  0.00  0.00    +0.149 HD
ATOM     17  C   UNL     1       7.021  -2.046  24.573  0.00  0.00    +0.246 C 
ATOM     18  O   UNL     1       5.846  -2.162  24.233  0.00  0.00    -0.270 OA
BRANCH  15  19
ATOM     19  C   UNL     1       6.640  -3.249  26.702  0.00  0.00    +0.106 C 
BRANCH  19  20
ATOM     20  C   UNL     1       6.643  -4.756  26.456  0.00  0.00    +0.034 C 
BRANCH  20  21
ATOM     21  C   UNL     1       6.566  -5.585  27.746  0.00  0.00    +0.085 C 
BRANCH  21  23
ATOM     22  C   UNL     1       4.676  -6.719  28.789  0.00  0.00    +0.104 C 
ATOM     23  N   UNL     1       5.636  -6.728  27.683  0.00  0.00    -0.308 NA
ATOM     24  C   UNL     1       4.921  -6.721  26.404  0.00  0.00    +0.104 C 
ENDBRANCH  21  23
ENDBRANCH  20  21
ENDBRANCH  19  20
ENDBRANCH  15  19
ENDBRANCH   1  17
BRANCH   4  25
ATOM     25  N   UNL     1      10.415   2.555  21.975  0.00  0.00    -0.357 N 
ATOM     26  H   UNL     1      11.301   2.092  21.812  0.00  0.00    +0.142 HD
ATOM     27  H   UNL     1       9.936   2.709  21.097  0.00  0.00    +0.142 HD
ENDBRANCH   4  25
TORSDOF 6
ENDMDL
MODEL 7
REMARK VINA RESULT:      -5.8      2.063      6.747
REMARK  Name = 
REMARK  8 active torsions:
REMARK  status: ('A' for Active; 'I' for Inactive)
REMARK    1  A    between atoms: C_1  and  N_2
REMARK    2  A    between atoms: N_2  and  C_3
REMARK    3  A    between atoms: N_2  and  C_4
REMARK    4  A    between atoms: C_4  and  C_5
REMARK    5  A    between atoms: C_5  and  C_6
REMARK    6  A    between atoms: C_6  and  N_7
REMARK    7  A    between atoms: C_8  and  C_10
REMARK    8  A    between atoms: C_15  and  N_16
REMARK                            x       y       z     vdW  Elec       q    Type
REMARK                         _______ _______ _______ _____ _____    ______ ____
ROOT
ATOM      1  C   UNL     1       9.057  -1.329  23.219  0.00  0.00    +0.063 A 
ATOM      2  C   UNL     1       8.614  -0.278  24.051  0.00  0.00    +0.086 A 
ATOM      3  C   UNL     1       8.576   1.031  23.511  0.00  0.00    +0.022 A 
ATOM      4  C   UNL     1       8.148   2.100  24.352  0.00  0.00    +0.043 A 
ATOM      5  C   UNL     1       7.697   1.824  25.673  0.00  0.00    +0.022 A 
ATOM      6  C   UNL     1       7.188   2.796  26.576  0.00  0.00    +0.012 A 
ATOM      7  C   UNL     1       6.798   2.460  27.872  0.00  0.00    +0.001 A 
ATOM      8  C   UNL     1       6.897   1.143  28.289  0.00  0.00    +0.002 A 
ATOM      9  C   UNL     1       7.383   0.178  27.404  0.00  0.00    +0.028 A 
ATOM     10  C   UNL     1       7.783   0.493  26.110  0.00  0.00    +0.073 A 
ATOM     11  C   UNL     1       8.975   1.230  22.164  0.00  0.00    +0.012 A 
ATOM     12  C   UNL     1       9.430   0.187  21.368  0.00  0.00    +0.001 A 
ATOM     13  N   UNL     1       8.235  -0.502  25.333  0.00  0.00    -0.246 NA
ATOM     14  C   UNL     1       9.470  -1.089  21.895  0.00  0.00    +0.015 A 
ENDROOT
BRANCH   1  17
ATOM     15  N   UNL     1       7.943  -3.485  23.640  0.00  0.00    -0.311 N 
ATOM     16  H   UNL     1       7.078  -2.988  23.427  0.00  0.00    +0.149 HD
ATOM     17  C   UNL     1       9.112  -2.766  23.644  0.00  0.00    +0.246 C 
ATOM     18  O   UNL     1      10.183  -3.268  23.978  0.00  0.00    -0.270 OA
BRANCH  15  19
ATOM     19  C   UNL     1       7.873  -4.868  24.058  0.00  0.00    +0.106 C 
BRANCH  19  20
ATOM     20  C   UNL     1       6.772  -5.113  25.087  0.00  0.00    +0.034 C 
BRANCH  20  21
ATOM     21  C   UNL     1       7.307  -5.410  26.495  0.00  0.00    +0.085 C 
BRANCH  21  23
ATOM     22  C   UNL     1       6.106  -3.343  26.979  0.00  0.00    +0.104 C 
ATOM     23  N   UNL     1       6.810  -4.498  27.542  0.00  0.00    -0.308 NA
ATOM     24  C   UNL     1       5.925  -5.222  28.457  0.00  0.00    +0.104 C 
ENDBRANCH  21  23
ENDBRANCH  20  21
ENDBRANCH  19  20
ENDBRANCH  15  19
ENDBRANCH   1  17
BRANCH   4  25
ATOM     25  N   UNL     1       7.969   3.406  23.812  0.00  0.00    -0.357 N 
ATOM     26  H   UNL     1       7.178   3.908  24.199  0.00  0.00    +0.142 HD
ATOM     27  H   UNL     1       8.798   3.985  23.845  0.00  0.00    +0.142 HD
ENDBRANCH   4  25
TORSDOF 6
ENDMDL
MODEL 8
REMARK VINA RESULT:      -5.8      2.608      4.241
REMARK  Name = 
REMARK  8 active torsions:
REMARK  status: ('A' for Active; 'I' for Inactive)
REMARK    1  A    between atoms: C_1  and  N_2
REMARK    2  A    between atoms: N_2  and  C_3
REMARK    3  A    between atoms: N_2  and  C_4
REMARK    4  A    between atoms: C_4  and  C_5
REMARK    5  A    between atoms: C_5  and  C_6
REMARK    6  A    between atoms: C_6  and  N_7
REMARK    7  A    between atoms: C_8  and  C_10
REMARK    8  A    between atoms: C_15  and  N_16
REMARK                            x       y       z     vdW  Elec       q    Type
REMARK                         _______ _______ _______ _____ _____    ______ ____
ROOT
ATOM      1  C   UNL     1       5.780  -0.555  25.006  0.00  0.00    +0.063 A 
ATOM      2  C   UNL     1       5.689  -1.907  24.610  0.00  0.00    +0.086 A 
ATOM      3  C   UNL     1       4.804  -2.753  25.322  0.00  0.00    +0.022 A 
ATOM      4  C   UNL     1       4.721  -4.124  24.940  0.00  0.00    +0.043 A 
ATOM      5  C   UNL     1       5.460  -4.592  23.817  0.00  0.00    +0.022 A 
ATOM      6  C   UNL     1       5.406  -5.917  23.305  0.00  0.00    +0.012 A 
ATOM      7  C   UNL     1       6.187  -6.317  22.222  0.00  0.00    +0.001 A 
ATOM      8  C   UNL     1       7.028  -5.398  21.618  0.00  0.00    +0.002 A 
ATOM      9  C   UNL     1       7.078  -4.090  22.104  0.00  0.00    +0.028 A 
ATOM     10  C   UNL     1       6.312  -3.672  23.188  0.00  0.00    +0.073 A 
ATOM     11  C   UNL     1       4.044  -2.209  26.389  0.00  0.00    +0.012 A 
ATOM     12  C   UNL     1       4.164  -0.882  26.780  0.00  0.00    +0.001 A 
ATOM     13  N   UNL     1       6.425  -2.395  23.582  0.00  0.00    -0.246 NA
ATOM     14  C   UNL     1       5.031  -0.058  26.088  0.00  0.00    +0.015 A 
ENDROOT
BRANCH   1  17
ATOM     15  N   UNL     1       6.620   0.508  22.949  0.00  0.00    -0.311 N 
ATOM     16  H   UNL     1       6.077  -0.201  22.456  0.00  0.00    +0.149 HD
ATOM     17  C   UNL     1       6.646   0.460  24.320  0.00  0.00    +0.246 C 
ATOM     18  O   UNL     1       7.346   1.220  24.985  0.00  0.00    -0.270 OA
BRANCH  15  19
ATOM     19  C   UNL     1       7.434   1.427  22.182  0.00  0.00    +0.106 C 
BRANCH  19  20
ATOM     20  C   UNL     1       8.733   0.789  21.694  0.00  0.00    +0.034 C 
BRANCH  20  21
ATOM     21  C   UNL     1       9.972   1.255  22.472  0.00  0.00    +0.085 C 
BRANCH  21  23
ATOM     22  C   UNL     1      10.733   0.544  24.677  0.00  0.00    +0.104 C 
ATOM     23  N   UNL     1      10.632   0.196  23.258  0.00  0.00    -0.308 NA
ATOM     24  C   UNL     1       9.905  -1.067  23.106  0.00  0.00    +0.104 C 
ENDBRANCH  21  23
ENDBRANCH  20  21
ENDBRANCH  19  20
ENDBRANCH  15  19
ENDBRANCH   1  17
BRANCH   4  25
ATOM     25  N   UNL     1       3.748  -4.976  25.540  0.00  0.00    -0.357 N 
ATOM     26  H   UNL     1       3.184  -4.523  26.248  0.00  0.00    +0.142 HD
ATOM     27  H   UNL     1       3.153  -5.456  24.876  0.00  0.00    +0.142 HD
ENDBRANCH   4  25
TORSDOF 6
ENDMDL
MODEL 9
REMARK VINA RESULT:      -5.7      2.369      6.778
REMARK  Name = 
REMARK  8 active torsions:
REMARK  status: ('A' for Active; 'I' for Inactive)
REMARK    1  A    between atoms: C_1  and  N_2
REMARK    2  A    between atoms: N_2  and  C_3
REMARK    3  A    between atoms: N_2  and  C_4
REMARK    4  A    between atoms: C_4  and  C_5
REMARK    5  A    between atoms: C_5  and  C_6
REMARK    6  A    between atoms: C_6  and  N_7
REMARK    7  A    between atoms: C_8  and  C_10
REMARK    8  A    between atoms: C_15  and  N_16
REMARK                            x       y       z     vdW  Elec       q    Type
REMARK                         _______ _______ _______ _____ _____    ______ ____
ROOT
ATOM      1  C   UNL     1       9.255  -0.222  23.007  0.00  0.00    +0.063 A 
ATOM      2  C   UNL     1       8.685   0.494  24.082  0.00  0.00    +0.086 A 
ATOM      3  C   UNL     1       8.816   1.905  24.089  0.00  0.00    +0.022 A 
ATOM      4  C   UNL     1       8.260   2.633  25.181  0.00  0.00    +0.043 A 
ATOM      5  C   UNL     1       7.525   1.946  26.189  0.00  0.00    +0.022 A 
ATOM      6  C   UNL     1       6.873   2.572  27.286  0.00  0.00    +0.012 A 
ATOM      7  C   UNL     1       6.201   1.832  28.258  0.00  0.00    +0.001 A 
ATOM      8  C   UNL     1       6.157   0.452  28.148  0.00  0.00    +0.002 A 
ATOM      9  C   UNL     1       6.783  -0.171  27.067  0.00  0.00    +0.028 A 
ATOM     10  C   UNL     1       7.463   0.547  26.089  0.00  0.00    +0.073 A 
ATOM     11  C   UNL     1       9.502   2.536  23.019  0.00  0.00    +0.012 A 
ATOM     12  C   UNL     1      10.076   1.813  21.982  0.00  0.00    +0.001 A 
ATOM     13  N   UNL     1       8.032  -0.138  25.087  0.00  0.00    -0.246 NA
ATOM     14  C   UNL     1       9.952   0.437  21.977  0.00  0.00    +0.015 A 
ENDROOT
BRANCH   1  17
ATOM     15  N   UNL     1       7.916  -2.286  22.896  0.00  0.00    -0.311 N 
ATOM     16  H   UNL     1       7.120  -1.686  23.114  0.00  0.00    +0.149 HD
ATOM     17  C   UNL     1       9.161  -1.711  22.851  0.00  0.00    +0.246 C 
ATOM     18  O   UNL     1      10.180  -2.377  22.684  0.00  0.00    -0.270 OA
BRANCH  15  19
ATOM     19  C   UNL     1       7.708  -3.714  22.785  0.00  0.00    +0.106 C 
BRANCH  19  20
ATOM     20  C   UNL     1       7.833  -4.428  24.128  0.00  0.00    +0.034 C 
BRANCH  20  21
ATOM     21  C   UNL     1       7.163  -3.674  25.286  0.00  0.00    +0.085 C 
BRANCH  21  23
ATOM     22  C   UNL     1       6.838  -5.137  27.210  0.00  0.00    +0.104 C 
ATOM     23  N   UNL     1       7.642  -4.061  26.626  0.00  0.00    -0.308 NA
ATOM     24  C   UNL     1       9.047  -4.472  26.555  0.00  0.00    +0.104 C 
ENDBRANCH  21  23
ENDBRANCH  20  21
ENDBRANCH  19  20
ENDBRANCH  15  19
ENDBRANCH   1  17
BRANCH   4  25
ATOM     25  N   UNL     1       8.252   4.057  25.161  0.00  0.00    -0.357 N 
ATOM     26  H   UNL     1       8.090   4.456  24.244  0.00  0.00    +0.142 HD
ATOM     27  H   UNL     1       7.627   4.478  25.838  0.00  0.00    +0.142 HD
ENDBRANCH   4  25
TORSDOF 6
ENDMDL
