MODEL 1
REMARK VINA RESULT:      -5.8      0.000      0.000
REMARK  Name = 
REMARK  35 active torsions:
REMARK  status: ('A' for Active; 'I' for Inactive)
REMARK    1  A    between atoms: C_1  and  C_2
REMARK    2  A    between atoms: C_5  and  O_7
REMARK    3  A    between atoms: O_7  and  C_8
REMARK    4  A    between atoms: C_10  and  C_12
REMARK    5  A    between atoms: C_12  and  O_13
REMARK    6  A    between atoms: C_15  and  O_17
REMARK    7  A    between atoms: O_17  and  C_18
REMARK    8  A    between atoms: C_18  and  C_19
REMARK    9  A    between atoms: C_22  and  O_24
REMARK   10  A    between atoms: C_25  and  O_27
REMARK   11  A    between atoms: C_28  and  O_30
REMARK   12  A    between atoms: C_31  and  O_33
REMARK   13  A    between atoms: C_34  and  O_36
REMARK   14  A    between atoms: C_37  and  O_39
REMARK   15  A    between atoms: C_40  and  O_42
REMARK   16  A    between atoms: C_43  and  O_45
REMARK   17  A    between atoms: C_46  and  N_48
REMARK   18  A    between atoms: N_48  and  C_49
REMARK   19  A    between atoms: C_52  and  C_53
REMARK   20  A    between atoms: C_53  and  O_54
REMARK   21  A    between atoms: C_55  and  O_57
REMARK   22  A    between atoms: O_57  and  C_58
REMARK   23  A    between atoms: C_61  and  C_63
REMARK   24  A    between atoms: C_63  and  O_64
REMARK   25  A    between atoms: C_65  and  O_67
REMARK   26  A    between atoms: O_67  and  C_68
REMARK   27  A    between atoms: C_71  and  C_73
REMARK   28  A    between atoms: C_73  and  O_74
REMARK   29  A    between atoms: C_75  and  O_77
REMARK   30  A    between atoms: C_78  and  O_80
REMARK   31  A    between atoms: C_81  and  O_83
REMARK   32  A    between atoms: C_84  and  O_86
REMARK   33  A    between atoms: C_87  and  O_89
REMARK   34  A    between atoms: C_90  and  O_92
REMARK   35  A    between atoms: C_93  and  O_95
REMARK                            x       y       z     vdW  Elec       q    Type
REMARK                         _______ _______ _______ _____ _____    ______ ____
ROOT
ATOM      1  N   UNL     1       7.040   3.895  22.060  0.00  0.00    -0.300 NA
ATOM      2  H   UNL     1       6.058   3.615  22.078  0.00  0.00    +0.123 HD
ENDROOT
BRANCH   1   5
ATOM      3  C   UNL     1       9.531   1.073  21.461  0.00  0.00    +0.039 C 
ATOM      4  C   UNL     1       8.067   1.459  21.715  0.00  0.00    +0.138 C 
ATOM      5  C   UNL     1       7.884   2.751  22.595  0.00  0.00    +0.114 C 
ATOM      6  C   UNL     1       7.372   2.404  24.031  0.00  0.00    +0.167 C 
ATOM      7  C   UNL     1       6.508   1.147  24.175  0.00  0.00    +0.200 C 
ATOM      8  C   UNL     1       7.103  -0.070  23.455  0.00  0.00    +0.282 C 
ATOM      9  O   UNL     1       7.424   0.237  22.090  0.00  0.00    -0.344 OA
BRANCH   7  10
ATOM     10  O   UNL     1       5.188   1.385  23.649  0.00  0.00    -0.384 OA
ATOM     11  H   UNL     1       5.200   2.245  23.197  0.00  0.00    +0.210 HD
ENDBRANCH   7  10
BRANCH   6  12
ATOM     12  O   UNL     1       8.473   2.316  24.946  0.00  0.00    -0.387 OA
ATOM     13  H   UNL     1       8.124   2.396  25.851  0.00  0.00    +0.210 HD
ENDBRANCH   6  12
BRANCH   8  14
ATOM     14  O   UNL     1       8.092  -0.863  24.170  0.00  0.00    -0.340 OA
BRANCH  14  15
ATOM     15  C   UNL     1       7.654  -2.140  24.774  0.00  0.00    +0.183 C 
ATOM     16  C   UNL     1       8.624  -3.336  24.566  0.00  0.00    +0.179 C 
ATOM     17  C   UNL     1       8.229  -4.605  25.348  0.00  0.00    +0.201 C 
ATOM     18  C   UNL     1       7.892  -4.361  26.815  0.00  0.00    +0.282 C 
ATOM     19  O   UNL     1       7.001  -3.249  26.970  0.00  0.00    -0.341 OA
ATOM     20  C   UNL     1       7.428  -1.997  26.324  0.00  0.00    +0.178 C 
BRANCH  17  21
ATOM     21  O   UNL     1       9.315  -5.549  25.249  0.00  0.00    -0.384 OA
ATOM     22  H   UNL     1       9.914  -5.337  25.986  0.00  0.00    +0.210 HD
ENDBRANCH  17  21
BRANCH  16  23
ATOM     23  O   UNL     1       8.640  -3.774  23.195  0.00  0.00    -0.386 OA
ATOM     24  H   UNL     1       8.862  -3.001  22.639  0.00  0.00    +0.210 HD
ENDBRANCH  16  23
BRANCH  18  25
ATOM     25  O   UNL     1       7.551  -5.596  27.493  0.00  0.00    -0.346 OA
BRANCH  25  26
ATOM     26  C   UNL     1       6.376  -5.847  28.288  0.00  0.00    +0.197 C 
BRANCH  26  27
ATOM     27  C   UNL     1       5.202  -6.735  27.712  0.00  0.00    +0.178 C 
ATOM     28  C   UNL     1       3.789  -6.172  28.125  0.00  0.00    +0.177 C 
ATOM     29  C   UNL     1       2.645  -6.931  27.414  0.00  0.00    +0.179 C 
ATOM     30  C   UNL     1       2.866  -6.895  25.910  0.00  0.00    +0.201 C 
ATOM     31  C   UNL     1       4.270  -7.430  25.593  0.00  0.00    +0.279 C 
ATOM     32  O   UNL     1       5.311  -6.739  26.272  0.00  0.00    -0.341 OA
BRANCH  29  33
ATOM     33  O   UNL     1       1.353  -6.371  27.684  0.00  0.00    -0.386 OA
ATOM     34  H   UNL     1       1.208  -6.519  28.654  0.00  0.00    +0.210 HD
ENDBRANCH  29  33
BRANCH  30  35
ATOM     35  O   UNL     1       1.793  -7.660  25.313  0.00  0.00    -0.384 OA
ATOM     36  H   UNL     1       1.134  -7.845  26.004  0.00  0.00    +0.210 HD
ENDBRANCH  30  35
BRANCH  28  37
ATOM     37  O   UNL     1       3.613  -6.208  29.545  0.00  0.00    -0.386 OA
ATOM     38  H   UNL     1       2.867  -6.788  29.767  0.00  0.00    +0.210 HD
ENDBRANCH  28  37
BRANCH  31  39
ATOM     39  O   UNL     1       4.483  -7.249  24.199  0.00  0.00    -0.365 OA
ATOM     40  H   UNL     1       5.283  -6.698  24.143  0.00  0.00    +0.213 HD
ENDBRANCH  31  39
ENDBRANCH  26  27
ENDBRANCH  25  26
ENDBRANCH  18  25
BRANCH  20  41
ATOM     41  C   UNL     1       8.632  -1.326  27.039  0.00  0.00    +0.190 C 
BRANCH  41  42
ATOM     42  O   UNL     1       8.565   0.098  26.973  0.00  0.00    -0.392 OA
ATOM     43  H   UNL     1       7.796   0.380  27.501  0.00  0.00    +0.210 HD
ENDBRANCH  41  42
ENDBRANCH  20  41
ENDBRANCH  14  15
ENDBRANCH   8  14
ENDBRANCH   1   5
BRANCH   1  44
ATOM     44  C   UNL     1       7.098   5.246  22.691  0.00  0.00    +0.109 C 
ATOM     45  C   UNL     1       8.288   5.470  23.678  0.00  0.00    +0.166 C 
ATOM     46  C   UNL     1       8.015   5.959  25.122  0.00  0.00    +0.178 C 
ATOM     47  C   UNL     1       6.546   6.132  25.557  0.00  0.00    +0.180 C 
ATOM     48  C   UNL     1       5.494   6.065  24.528  0.00  0.00    -0.016 C 
ATOM     49  C   UNL     1       5.753   5.617  23.267  0.00  0.00    -0.002 C 
BRANCH  45  50
ATOM     50  O   UNL     1       9.237   6.376  23.054  0.00  0.00    -0.387 OA
ATOM     51  H   UNL     1       9.497   6.005  22.195  0.00  0.00    +0.210 HD
ENDBRANCH  45  50
BRANCH  46  52
ATOM     52  O   UNL     1       8.722   5.111  26.056  0.00  0.00    -0.386 OA
ATOM     53  H   UNL     1       8.637   4.206  25.700  0.00  0.00    +0.210 HD
ENDBRANCH  46  52
BRANCH  47  54
ATOM     54  O   UNL     1       6.180   5.388  26.739  0.00  0.00    -0.338 OA
BRANCH  54  55
ATOM     55  C   UNL     1       5.452   4.158  26.619  0.00  0.00    +0.282 C 
ATOM     56  C   UNL     1       6.091   3.230  27.663  0.00  0.00    +0.201 C 
ATOM     57  C   UNL     1       5.441   1.850  27.664  0.00  0.00    +0.179 C 
ATOM     58  C   UNL     1       3.935   1.764  27.322  0.00  0.00    +0.183 C 
ATOM     59  C   UNL     1       3.358   3.037  26.630  0.00  0.00    +0.178 C 
ATOM     60  O   UNL     1       4.077   4.244  26.983  0.00  0.00    -0.341 OA
BRANCH  56  61
ATOM     61  O   UNL     1       7.509   3.054  27.466  0.00  0.00    -0.384 OA
ATOM     62  H   UNL     1       7.782   2.244  27.932  0.00  0.00    +0.210 HD
ENDBRANCH  56  61
BRANCH  57  63
ATOM     63  O   UNL     1       5.651   1.246  28.964  0.00  0.00    -0.386 OA
ATOM     64  H   UNL     1       5.182   0.385  28.924  0.00  0.00    +0.210 HD
ENDBRANCH  57  63
BRANCH  59  65
ATOM     65  C   UNL     1       1.885   3.240  27.046  0.00  0.00    +0.190 C 
BRANCH  65  66
ATOM     66  O   UNL     1       1.360   4.467  26.536  0.00  0.00    -0.392 OA
ATOM     67  H   UNL     1       1.079   4.297  25.627  0.00  0.00    +0.210 HD
ENDBRANCH  65  66
ENDBRANCH  59  65
BRANCH  58  68
ATOM     68  O   UNL     1       3.557   0.483  26.713  0.00  0.00    -0.340 OA
BRANCH  68  69
ATOM     69  C   UNL     1       2.442  -0.235  27.277  0.00  0.00    +0.282 C 
ATOM     70  C   UNL     1       2.763  -0.838  28.690  0.00  0.00    +0.201 C 
ATOM     71  C   UNL     1       3.294  -2.287  28.675  0.00  0.00    +0.179 C 
ATOM     72  C   UNL     1       2.484  -3.146  27.693  0.00  0.00    +0.177 C 
ATOM     73  C   UNL     1       2.477  -2.495  26.305  0.00  0.00    +0.178 C 
ATOM     74  O   UNL     1       1.877  -1.186  26.380  0.00  0.00    -0.341 OA
BRANCH  72  75
ATOM     75  O   UNL     1       1.137  -3.267  28.187  0.00  0.00    -0.386 OA
ATOM     76  H   UNL     1       1.193  -3.334  29.158  0.00  0.00    +0.210 HD
ENDBRANCH  72  75
BRANCH  71  77
ATOM     77  O   UNL     1       4.683  -2.384  28.369  0.00  0.00    -0.386 OA
ATOM     78  H   UNL     1       4.969  -1.566  27.919  0.00  0.00    +0.210 HD
ENDBRANCH  71  77
BRANCH  70  79
ATOM     79  O   UNL     1       1.561  -0.816  29.495  0.00  0.00    -0.384 OA
ATOM     80  H   UNL     1       1.710  -1.424  30.254  0.00  0.00    +0.210 HD
ENDBRANCH  70  79
BRANCH  73  81
ATOM     81  C   UNL     1       3.881  -2.552  25.666  0.00  0.00    +0.190 C 
BRANCH  81  82
ATOM     82  O   UNL     1       4.451  -3.852  25.741  0.00  0.00    -0.392 OA
ATOM     83  H   UNL     1       4.574  -4.017  26.713  0.00  0.00    +0.210 HD
ENDBRANCH  81  82
ENDBRANCH  73  81
ENDBRANCH  68  69
ENDBRANCH  58  68
ENDBRANCH  54  55
ENDBRANCH  47  54
BRANCH  48  84
ATOM     84  C   UNL     1       4.140   6.521  25.010  0.00  0.00    +0.189 C 
BRANCH  84  85
ATOM     85  O   UNL     1       3.144   5.689  24.435  0.00  0.00    -0.391 OA
ATOM     86  H   UNL     1       3.563   4.836  24.230  0.00  0.00    +0.210 HD
ENDBRANCH  84  85
ENDBRANCH  48  84
ENDBRANCH   1  44
TORSDOF 34
ENDMDL
MODEL 2
REMARK VINA RESULT:      -5.8      2.341      9.400
REMARK  Name = 
REMARK  35 active torsions:
REMARK  status: ('A' for Active; 'I' for Inactive)
REMARK    1  A    between atoms: C_1  and  C_2
REMARK    2  A    between atoms: C_5  and  O_7
REMARK    3  A    between atoms: O_7  and  C_8
REMARK    4  A    between atoms: C_10  and  C_12
REMARK    5  A    between atoms: C_12  and  O_13
REMARK    6  A    between atoms: C_15  and  O_17
REMARK    7  A    between atoms: O_17  and  C_18
REMARK    8  A    between atoms: C_18  and  C_19
REMARK    9  A    between atoms: C_22  and  O_24
REMARK   10  A    between atoms: C_25  and  O_27
REMARK   11  A    between atoms: C_28  and  O_30
REMARK   12  A    between atoms: C_31  and  O_33
REMARK   13  A    between atoms: C_34  and  O_36
REMARK   14  A    between atoms: C_37  and  O_39
REMARK   15  A    between atoms: C_40  and  O_42
REMARK   16  A    between atoms: C_43  and  O_45
REMARK   17  A    between atoms: C_46  and  N_48
REMARK   18  A    between atoms: N_48  and  C_49
REMARK   19  A    between atoms: C_52  and  C_53
REMARK   20  A    between atoms: C_53  and  O_54
REMARK   21  A    between atoms: C_55  and  O_57
REMARK   22  A    between atoms: O_57  and  C_58
REMARK   23  A    between atoms: C_61  and  C_63
REMARK   24  A    between atoms: C_63  and  O_64
REMARK   25  A    between atoms: C_65  and  O_67
REMARK   26  A    between atoms: O_67  and  C_68
REMARK   27  A    between atoms: C_71  and  C_73
REMARK   28  A    between atoms: C_73  and  O_74
REMARK   29  A    between atoms: C_75  and  O_77
REMARK   30  A    between atoms: C_78  and  O_80
REMARK   31  A    between atoms: C_81  and  O_83
REMARK   32  A    between atoms: C_84  and  O_86
REMARK   33  A    between atoms: C_87  and  O_89
REMARK   34  A    between atoms: C_90  and  O_92
REMARK   35  A    between atoms: C_93  and  O_95
REMARK                            x       y       z     vdW  Elec       q    Type
REMARK                         _______ _______ _______ _____ _____    ______ ____
ROOT
ATOM      1  N   UNL     1       4.525  -6.270  23.618  0.00  0.00    -0.300 NA
ATOM      2  H   UNL     1       4.718  -6.821  22.780  0.00  0.00    +0.123 HD
ENDROOT
BRANCH   1   5
ATOM      3  C   UNL     1       5.951  -3.139  25.258  0.00  0.00    +0.039 C 
ATOM      4  C   UNL     1       5.422  -3.784  23.969  0.00  0.00    +0.138 C 
ATOM      5  C   UNL     1       5.693  -5.331  23.864  0.00  0.00    +0.114 C 
ATOM      6  C   UNL     1       6.802  -5.653  22.810  0.00  0.00    +0.167 C 
ATOM      7  C   UNL     1       6.944  -4.683  21.633  0.00  0.00    +0.200 C 
ATOM      8  C   UNL     1       6.961  -3.213  22.072  0.00  0.00    +0.282 C 
ATOM      9  O   UNL     1       5.844  -2.907  22.918  0.00  0.00    -0.344 OA
BRANCH   7  10
ATOM     10  O   UNL     1       5.859  -4.865  20.701  0.00  0.00    -0.384 OA
ATOM     11  H   UNL     1       5.284  -5.566  21.051  0.00  0.00    +0.210 HD
ENDBRANCH   7  10
BRANCH   6  12
ATOM     12  O   UNL     1       8.077  -5.790  23.452  0.00  0.00    -0.387 OA
ATOM     13  H   UNL     1       8.623  -6.394  22.920  0.00  0.00    +0.210 HD
ENDBRANCH   6  12
BRANCH   8  14
ATOM     14  O   UNL     1       8.236  -2.645  22.484  0.00  0.00    -0.340 OA
BRANCH  14  15
ATOM     15  C   UNL     1       8.222  -1.354  23.206  0.00  0.00    +0.183 C 
ATOM     16  C   UNL     1       9.365  -1.163  24.240  0.00  0.00    +0.179 C 
ATOM     17  C   UNL     1       9.427   0.252  24.851  0.00  0.00    +0.201 C 
ATOM     18  C   UNL     1       9.355   1.381  23.829  0.00  0.00    +0.282 C 
ATOM     19  O   UNL     1       8.293   1.170  22.888  0.00  0.00    -0.341 OA
ATOM     20  C   UNL     1       8.294  -0.137  22.212  0.00  0.00    +0.178 C 
BRANCH  17  21
ATOM     21  O   UNL     1      10.649   0.360  25.609  0.00  0.00    -0.384 OA
ATOM     22  H   UNL     1      11.358   0.075  25.007  0.00  0.00    +0.210 HD
ENDBRANCH  17  21
BRANCH  16  23
ATOM     23  O   UNL     1       9.194  -2.019  25.384  0.00  0.00    -0.386 OA
ATOM     24  H   UNL     1       8.300  -1.858  25.744  0.00  0.00    +0.210 HD
ENDBRANCH  16  23
BRANCH  18  25
ATOM     25  O   UNL     1       9.439   2.680  24.468  0.00  0.00    -0.346 OA
BRANCH  25  26
ATOM     26  C   UNL     1       9.830   3.921  23.850  0.00  0.00    +0.197 C 
BRANCH  26  27
ATOM     27  C   UNL     1       8.748   5.031  23.540  0.00  0.00    +0.178 C 
ATOM     28  C   UNL     1       7.449   4.413  22.896  0.00  0.00    +0.177 C 
ATOM     29  C   UNL     1       6.326   5.467  22.761  0.00  0.00    +0.179 C 
ATOM     30  C   UNL     1       6.056   6.101  24.116  0.00  0.00    +0.201 C 
ATOM     31  C   UNL     1       7.371   6.651  24.688  0.00  0.00    +0.279 C 
ATOM     32  O   UNL     1       8.403   5.677  24.783  0.00  0.00    -0.341 OA
BRANCH  29  33
ATOM     33  O   UNL     1       5.094   4.911  22.281  0.00  0.00    -0.386 OA
ATOM     34  H   UNL     1       5.337   4.014  21.934  0.00  0.00    +0.210 HD
ENDBRANCH  29  33
BRANCH  30  35
ATOM     35  O   UNL     1       5.036   7.106  23.911  0.00  0.00    -0.384 OA
ATOM     36  H   UNL     1       5.456   7.980  23.979  0.00  0.00    +0.210 HD
ENDBRANCH  30  35
BRANCH  28  37
ATOM     37  O   UNL     1       7.734   3.814  21.628  0.00  0.00    -0.386 OA
ATOM     38  H   UNL     1       8.431   4.319  21.179  0.00  0.00    +0.210 HD
ENDBRANCH  28  37
BRANCH  31  39
ATOM     39  O   UNL     1       7.098   7.107  26.007  0.00  0.00    -0.365 OA
ATOM     40  H   UNL     1       7.888   7.615  26.259  0.00  0.00    +0.213 HD
ENDBRANCH  31  39
ENDBRANCH  26  27
ENDBRANCH  25  26
ENDBRANCH  18  25
BRANCH  20  41
ATOM     41  C   UNL     1       9.444  -0.284  21.178  0.00  0.00    +0.190 C 
BRANCH  41  42
ATOM     42  O   UNL     1      10.386  -1.282  21.567  0.00  0.00    -0.392 OA
ATOM     43  H   UNL     1      10.672  -1.746  20.760  0.00  0.00    +0.210 HD
ENDBRANCH  41  42
ENDBRANCH  20  41
ENDBRANCH  14  15
ENDBRANCH   8  14
ENDBRANCH   1   5
BRANCH   1  44
ATOM     44  C   UNL     1       4.094  -7.242  24.664  0.00  0.00    +0.109 C 
ATOM     45  C   UNL     1       2.555  -7.501  24.740  0.00  0.00    +0.166 C 
ATOM     46  C   UNL     1       1.805  -7.324  26.083  0.00  0.00    +0.178 C 
ATOM     47  C   UNL     1       2.611  -6.812  27.295  0.00  0.00    +0.180 C 
ATOM     48  C   UNL     1       4.079  -6.753  27.189  0.00  0.00    -0.016 C 
ATOM     49  C   UNL     1       4.718  -6.897  25.994  0.00  0.00    -0.002 C 
BRANCH  45  50
ATOM     50  O   UNL     1       2.289  -8.836  24.235  0.00  0.00    -0.387 OA
ATOM     51  H   UNL     1       2.243  -9.447  24.988  0.00  0.00    +0.210 HD
ENDBRANCH  45  50
BRANCH  46  52
ATOM     52  O   UNL     1       0.634  -6.501  25.873  0.00  0.00    -0.386 OA
ATOM     53  H   UNL     1       0.125  -6.950  25.171  0.00  0.00    +0.210 HD
ENDBRANCH  46  52
BRANCH  47  54
ATOM     54  O   UNL     1       2.074  -5.623  27.913  0.00  0.00    -0.338 OA
BRANCH  54  55
ATOM     55  C   UNL     1       2.807  -4.391  27.859  0.00  0.00    +0.282 C 
ATOM     56  C   UNL     1       1.982  -3.494  26.924  0.00  0.00    +0.201 C 
ATOM     57  C   UNL     1       2.633  -2.127  26.737  0.00  0.00    +0.179 C 
ATOM     58  C   UNL     1       3.426  -1.538  27.927  0.00  0.00    +0.183 C 
ATOM     59  C   UNL     1       3.804  -2.578  29.027  0.00  0.00    +0.178 C 
ATOM     60  O   UNL     1       2.874  -3.686  29.096  0.00  0.00    -0.341 OA
BRANCH  56  61
ATOM     61  O   UNL     1       1.784  -4.075  25.619  0.00  0.00    -0.384 OA
ATOM     62  H   UNL     1       2.388  -4.832  25.529  0.00  0.00    +0.210 HD
ENDBRANCH  56  61
BRANCH  57  63
ATOM     63  O   UNL     1       1.604  -1.178  26.359  0.00  0.00    -0.386 OA
ATOM     64  H   UNL     1       1.774  -0.981  25.413  0.00  0.00    +0.210 HD
ENDBRANCH  57  63
BRANCH  59  65
ATOM     65  C   UNL     1       3.816  -1.898  30.413  0.00  0.00    +0.190 C 
BRANCH  65  66
ATOM     66  O   UNL     1       4.100  -0.502  30.310  0.00  0.00    -0.392 OA
ATOM     67  H   UNL     1       4.319  -0.193  31.199  0.00  0.00    +0.210 HD
ENDBRANCH  65  66
ENDBRANCH  59  65
BRANCH  58  68
ATOM     68  O   UNL     1       4.506  -0.637  27.507  0.00  0.00    -0.340 OA
BRANCH  68  69
ATOM     69  C   UNL     1       4.341   0.096  26.278  0.00  0.00    +0.282 C 
ATOM     70  C   UNL     1       5.710   0.463  25.603  0.00  0.00    +0.201 C 
ATOM     71  C   UNL     1       6.280   1.843  25.992  0.00  0.00    +0.179 C 
ATOM     72  C   UNL     1       5.168   2.903  25.987  0.00  0.00    +0.177 C 
ATOM     73  C   UNL     1       4.010   2.457  26.887  0.00  0.00    +0.178 C 
ATOM     74  O   UNL     1       3.466   1.212  26.404  0.00  0.00    -0.341 OA
BRANCH  72  75
ATOM     75  O   UNL     1       4.703   3.080  24.635  0.00  0.00    -0.386 OA
ATOM     76  H   UNL     1       5.423   3.508  24.139  0.00  0.00    +0.210 HD
ENDBRANCH  72  75
BRANCH  71  77
ATOM     77  O   UNL     1       6.950   1.852  27.249  0.00  0.00    -0.386 OA
ATOM     78  H   UNL     1       7.550   2.620  27.287  0.00  0.00    +0.210 HD
ENDBRANCH  71  77
BRANCH  70  79
ATOM     79  O   UNL     1       5.547   0.440  24.166  0.00  0.00    -0.384 OA
ATOM     80  H   UNL     1       5.620   1.369  23.851  0.00  0.00    +0.210 HD
ENDBRANCH  70  79
BRANCH  73  81
ATOM     81  C   UNL     1       4.433   2.472  28.372  0.00  0.00    +0.190 C 
BRANCH  81  82
ATOM     82  O   UNL     1       5.103   3.674  28.726  0.00  0.00    -0.392 OA
ATOM     83  H   UNL     1       4.874   4.312  28.000  0.00  0.00    +0.210 HD
ENDBRANCH  81  82
ENDBRANCH  73  81
ENDBRANCH  68  69
ENDBRANCH  58  68
ENDBRANCH  54  55
ENDBRANCH  47  54
BRANCH  48  84
ATOM     84  C   UNL     1       4.775  -6.512  28.505  0.00  0.00    +0.189 C 
BRANCH  84  85
ATOM     85  O   UNL     1       5.723  -7.546  28.720  0.00  0.00    -0.391 OA
ATOM     86  H   UNL     1       5.395  -8.091  29.456  0.00  0.00    +0.210 HD
ENDBRANCH  84  85
ENDBRANCH  48  84
ENDBRANCH   1  44
TORSDOF 34
ENDMDL
MODEL 3
REMARK VINA RESULT:      -5.7      2.251      8.715
REMARK  Name = 
REMARK  35 active torsions:
REMARK  status: ('A' for Active; 'I' for Inactive)
REMARK    1  A    between atoms: C_1  and  C_2
REMARK    2  A    between atoms: C_5  and  O_7
REMARK    3  A    between atoms: O_7  and  C_8
REMARK    4  A    between atoms: C_10  and  C_12
REMARK    5  A    between atoms: C_12  and  O_13
REMARK    6  A    between atoms: C_15  and  O_17
REMARK    7  A    between atoms: O_17  and  C_18
REMARK    8  A    between atoms: C_18  and  C_19
REMARK    9  A    between atoms: C_22  and  O_24
REMARK   10  A    between atoms: C_25  and  O_27
REMARK   11  A    between atoms: C_28  and  O_30
REMARK   12  A    between atoms: C_31  and  O_33
REMARK   13  A    between atoms: C_34  and  O_36
REMARK   14  A    between atoms: C_37  and  O_39
REMARK   15  A    between atoms: C_40  and  O_42
REMARK   16  A    between atoms: C_43  and  O_45
REMARK   17  A    between atoms: C_46  and  N_48
REMARK   18  A    between atoms: N_48  and  C_49
REMARK   19  A    between atoms: C_52  and  C_53
REMARK   20  A    between atoms: C_53  and  O_54
REMARK   21  A    between atoms: C_55  and  O_57
REMARK   22  A    between atoms: O_57  and  C_58
REMARK   23  A    between atoms: C_61  and  C_63
REMARK   24  A    between atoms: C_63  and  O_64
REMARK   25  A    between atoms: C_65  and  O_67
REMARK   26  A    between atoms: O_67  and  C_68
REMARK   27  A    between atoms: C_71  and  C_73
REMARK   28  A    between atoms: C_73  and  O_74
REMARK   29  A    between atoms: C_75  and  O_77
REMARK   30  A    between atoms: C_78  and  O_80
REMARK   31  A    between atoms: C_81  and  O_83
REMARK   32  A    between atoms: C_84  and  O_86
REMARK   33  A    between atoms: C_87  and  O_89
REMARK   34  A    between atoms: C_90  and  O_92
REMARK   35  A    between atoms: C_93  and  O_95
REMARK                            x       y       z     vdW  Elec       q    Type
REMARK                         _______ _______ _______ _____ _____    ______ ____
ROOT
ATOM      1  N   UNL     1       9.018  -3.505  25.020  0.00  0.00    -0.300 NA
ATOM      2  H   UNL     1       8.862  -3.221  25.989  0.00  0.00    +0.123 HD
ENDROOT
BRANCH   1   5
ATOM      3  C   UNL     1       9.706  -1.554  21.820  0.00  0.00    +0.039 C 
ATOM      4  C   UNL     1       9.912  -1.640  23.339  0.00  0.00    +0.138 C 
ATOM      5  C   UNL     1       8.724  -2.324  24.113  0.00  0.00    +0.114 C 
ATOM      6  C   UNL     1       7.892  -1.283  24.930  0.00  0.00    +0.167 C 
ATOM      7  C   UNL     1       8.635  -0.043  25.436  0.00  0.00    +0.200 C 
ATOM      8  C   UNL     1       9.499   0.617  24.354  0.00  0.00    +0.282 C 
ATOM      9  O   UNL     1      10.365  -0.337  23.723  0.00  0.00    -0.344 OA
BRANCH   7  10
ATOM     10  O   UNL     1       9.486  -0.389  26.547  0.00  0.00    -0.384 OA
ATOM     11  H   UNL     1      10.278   0.170  26.497  0.00  0.00    +0.210 HD
ENDBRANCH   7  10
BRANCH   6  12
ATOM     12  O   UNL     1       6.745  -0.859  24.178  0.00  0.00    -0.387 OA
ATOM     13  H   UNL     1       6.351  -0.093  24.630  0.00  0.00    +0.210 HD
ENDBRANCH   6  12
BRANCH   8  14
ATOM     14  O   UNL     1       8.855   1.568  23.460  0.00  0.00    -0.340 OA
BRANCH  14  15
ATOM     15  C   UNL     1       8.272   2.793  24.050  0.00  0.00    +0.183 C 
ATOM     16  C   UNL     1       8.692   4.121  23.364  0.00  0.00    +0.179 C 
ATOM     17  C   UNL     1       7.940   5.362  23.887  0.00  0.00    +0.201 C 
ATOM     18  C   UNL     1       6.427   5.189  23.973  0.00  0.00    +0.282 C 
ATOM     19  O   UNL     1       6.075   3.952  24.606  0.00  0.00    -0.341 OA
ATOM     20  C   UNL     1       6.699   2.747  24.037  0.00  0.00    +0.178 C 
BRANCH  17  21
ATOM     21  O   UNL     1       8.254   6.475  23.025  0.00  0.00    -0.384 OA
ATOM     22  H   UNL     1       9.060   6.215  22.546  0.00  0.00    +0.210 HD
ENDBRANCH  17  21
BRANCH  16  23
ATOM     23  O   UNL     1      10.074   4.434  23.614  0.00  0.00    -0.386 OA
ATOM     24  H   UNL     1      10.158   4.678  24.556  0.00  0.00    +0.210 HD
ENDBRANCH  16  23
BRANCH  18  25
ATOM     25  O   UNL     1       5.782   6.397  24.451  0.00  0.00    -0.346 OA
BRANCH  25  26
ATOM     26  C   UNL     1       4.516   6.928  24.017  0.00  0.00    +0.197 C 
BRANCH  26  27
ATOM     27  C   UNL     1       3.355   5.951  23.572  0.00  0.00    +0.178 C 
ATOM     28  C   UNL     1       3.461   5.577  22.045  0.00  0.00    +0.177 C 
ATOM     29  C   UNL     1       2.439   4.484  21.656  0.00  0.00    +0.179 C 
ATOM     30  C   UNL     1       2.614   3.276  22.562  0.00  0.00    +0.201 C 
ATOM     31  C   UNL     1       2.527   3.727  24.028  0.00  0.00    +0.279 C 
ATOM     32  O   UNL     1       3.455   4.749  24.366  0.00  0.00    -0.341 OA
BRANCH  29  33
ATOM     33  O   UNL     1       2.585   4.043  20.299  0.00  0.00    -0.386 OA
ATOM     34  H   UNL     1       2.312   3.090  20.310  0.00  0.00    +0.210 HD
ENDBRANCH  29  33
BRANCH  30  35
ATOM     35  O   UNL     1       1.601   2.317  22.178  0.00  0.00    -0.384 OA
ATOM     36  H   UNL     1       1.864   1.446  22.522  0.00  0.00    +0.210 HD
ENDBRANCH  30  35
BRANCH  28  37
ATOM     37  O   UNL     1       3.305   6.733  21.217  0.00  0.00    -0.386 OA
ATOM     38  H   UNL     1       2.774   7.399  21.684  0.00  0.00    +0.210 HD
ENDBRANCH  28  37
BRANCH  31  39
ATOM     39  O   UNL     1       2.832   2.596  24.834  0.00  0.00    -0.365 OA
ATOM     40  H   UNL     1       3.462   2.930  25.496  0.00  0.00    +0.213 HD
ENDBRANCH  31  39
ENDBRANCH  26  27
ENDBRANCH  25  26
ENDBRANCH  18  25
BRANCH  20  41
ATOM     41  C   UNL     1       6.129   2.370  22.642  0.00  0.00    +0.190 C 
BRANCH  41  42
ATOM     42  O   UNL     1       6.461   1.031  22.275  0.00  0.00    -0.392 OA
ATOM     43  H   UNL     1       6.364   0.959  21.309  0.00  0.00    +0.210 HD
ENDBRANCH  41  42
ENDBRANCH  20  41
ENDBRANCH  14  15
ENDBRANCH   8  14
ENDBRANCH   1   5
BRANCH   1  44
ATOM     44  C   UNL     1       8.296  -4.800  24.846  0.00  0.00    +0.109 C 
ATOM     45  C   UNL     1       7.285  -4.843  23.656  0.00  0.00    +0.166 C 
ATOM     46  C   UNL     1       5.813  -5.258  23.905  0.00  0.00    +0.178 C 
ATOM     47  C   UNL     1       5.382  -5.540  25.358  0.00  0.00    +0.180 C 
ATOM     48  C   UNL     1       6.423  -5.642  26.395  0.00  0.00    -0.016 C 
ATOM     49  C   UNL     1       7.710  -5.257  26.159  0.00  0.00    -0.002 C 
BRANCH  45  50
ATOM     50  O   UNL     1       7.836  -5.694  22.616  0.00  0.00    -0.387 OA
ATOM     51  H   UNL     1       8.237  -5.128  21.937  0.00  0.00    +0.210 HD
ENDBRANCH  45  50
BRANCH  46  52
ATOM     52  O   UNL     1       4.932  -4.286  23.296  0.00  0.00    -0.386 OA
ATOM     53  H   UNL     1       4.099  -4.765  23.123  0.00  0.00    +0.210 HD
ENDBRANCH  46  52
BRANCH  47  54
ATOM     54  O   UNL     1       4.257  -4.757  25.812  0.00  0.00    -0.338 OA
BRANCH  54  55
ATOM     55  C   UNL     1       4.459  -3.662  26.715  0.00  0.00    +0.282 C 
ATOM     56  C   UNL     1       3.858  -2.449  25.989  0.00  0.00    +0.201 C 
ATOM     57  C   UNL     1       4.002  -1.172  26.810  0.00  0.00    +0.179 C 
ATOM     58  C   UNL     1       3.948  -1.297  28.351  0.00  0.00    +0.183 C 
ATOM     59  C   UNL     1       4.156  -2.748  28.887  0.00  0.00    +0.178 C 
ATOM     60  O   UNL     1       3.739  -3.762  27.941  0.00  0.00    -0.341 OA
BRANCH  56  61
ATOM     61  O   UNL     1       4.454  -2.216  24.696  0.00  0.00    -0.384 OA
ATOM     62  H   UNL     1       4.288  -1.290  24.448  0.00  0.00    +0.210 HD
ENDBRANCH  56  61
BRANCH  57  63
ATOM     63  O   UNL     1       2.975  -0.240  26.391  0.00  0.00    -0.386 OA
ATOM     64  H   UNL     1       2.687   0.210  27.214  0.00  0.00    +0.210 HD
ENDBRANCH  57  63
BRANCH  59  65
ATOM     65  C   UNL     1       3.334  -2.955  30.178  0.00  0.00    +0.190 C 
BRANCH  65  66
ATOM     66  O   UNL     1       2.536  -1.810  30.480  0.00  0.00    -0.392 OA
ATOM     67  H   UNL     1       1.710  -1.904  29.987  0.00  0.00    +0.210 HD
ENDBRANCH  65  66
ENDBRANCH  59  65
BRANCH  58  68
ATOM     68  O   UNL     1       4.712  -0.251  29.039  0.00  0.00    -0.340 OA
BRANCH  68  69
ATOM     69  C   UNL     1       5.841   0.328  28.356  0.00  0.00    +0.282 C 
ATOM     70  C   UNL     1       6.844   1.036  29.334  0.00  0.00    +0.201 C 
ATOM     71  C   UNL     1       6.591   2.543  29.549  0.00  0.00    +0.179 C 
ATOM     72  C   UNL     1       6.284   3.232  28.211  0.00  0.00    +0.177 C 
ATOM     73  C   UNL     1       5.121   2.523  27.508  0.00  0.00    +0.178 C 
ATOM     74  O   UNL     1       5.468   1.147  27.252  0.00  0.00    -0.341 OA
BRANCH  72  75
ATOM     75  O   UNL     1       7.462   3.185  27.385  0.00  0.00    -0.386 OA
ATOM     76  H   UNL     1       7.596   2.254  27.131  0.00  0.00    +0.210 HD
ENDBRANCH  72  75
BRANCH  71  77
ATOM     77  O   UNL     1       5.553   2.821  30.485  0.00  0.00    -0.386 OA
ATOM     78  H   UNL     1       5.617   3.753  30.767  0.00  0.00    +0.210 HD
ENDBRANCH  71  77
BRANCH  70  79
ATOM     79  O   UNL     1       8.188   0.882  28.824  0.00  0.00    -0.384 OA
ATOM     80  H   UNL     1       8.570   1.784  28.736  0.00  0.00    +0.210 HD
ENDBRANCH  70  79
BRANCH  73  81
ATOM     81  C   UNL     1       3.799   2.748  28.273  0.00  0.00    +0.190 C 
BRANCH  81  82
ATOM     82  O   UNL     1       2.672   2.273  27.548  0.00  0.00    -0.392 OA
ATOM     83  H   UNL     1       3.000   1.461  27.080  0.00  0.00    +0.210 HD
ENDBRANCH  81  82
ENDBRANCH  73  81
ENDBRANCH  68  69
ENDBRANCH  58  68
ENDBRANCH  54  55
ENDBRANCH  47  54
BRANCH  48  84
ATOM     84  C   UNL     1       5.925  -6.192  27.708  0.00  0.00    +0.189 C 
BRANCH  84  85
ATOM     85  O   UNL     1       6.989  -6.174  28.647  0.00  0.00    -0.391 OA
ATOM     86  H   UNL     1       7.352  -7.075  28.689  0.00  0.00    +0.210 HD
ENDBRANCH  84  85
ENDBRANCH  48  84
ENDBRANCH   1  44
TORSDOF 34
ENDMDL
MODEL 4
REMARK VINA RESULT:      -5.2      2.385      8.711
REMARK  Name = 
REMARK  35 active torsions:
REMARK  status: ('A' for Active; 'I' for Inactive)
REMARK    1  A    between atoms: C_1  and  C_2
REMARK    2  A    between atoms: C_5  and  O_7
REMARK    3  A    between atoms: O_7  and  C_8
REMARK    4  A    between atoms: C_10  and  C_12
REMARK    5  A    between atoms: C_12  and  O_13
REMARK    6  A    between atoms: C_15  and  O_17
REMARK    7  A    between atoms: O_17  and  C_18
REMARK    8  A    between atoms: C_18  and  C_19
REMARK    9  A    between atoms: C_22  and  O_24
REMARK   10  A    between atoms: C_25  and  O_27
REMARK   11  A    between atoms: C_28  and  O_30
REMARK   12  A    between atoms: C_31  and  O_33
REMARK   13  A    between atoms: C_34  and  O_36
REMARK   14  A    between atoms: C_37  and  O_39
REMARK   15  A    between atoms: C_40  and  O_42
REMARK   16  A    between atoms: C_43  and  O_45
REMARK   17  A    between atoms: C_46  and  N_48
REMARK   18  A    between atoms: N_48  and  C_49
REMARK   19  A    between atoms: C_52  and  C_53
REMARK   20  A    between atoms: C_53  and  O_54
REMARK   21  A    between atoms: C_55  and  O_57
REMARK   22  A    between atoms: O_57  and  C_58
REMARK   23  A    between atoms: C_61  and  C_63
REMARK   24  A    between atoms: C_63  and  O_64
REMARK   25  A    between atoms: C_65  and  O_67
REMARK   26  A    between atoms: O_67  and  C_68
REMARK   27  A    between atoms: C_71  and  C_73
REMARK   28  A    between atoms: C_73  and  O_74
REMARK   29  A    between atoms: C_75  and  O_77
REMARK   30  A    between atoms: C_78  and  O_80
REMARK   31  A    between atoms: C_81  and  O_83
REMARK   32  A    between atoms: C_84  and  O_86
REMARK   33  A    between atoms: C_87  and  O_89
REMARK   34  A    between atoms: C_90  and  O_92
REMARK   35  A    between atoms: C_93  and  O_95
REMARK                            x       y       z     vdW  Elec       q    Type
REMARK                         _______ _______ _______ _____ _____    ______ ____
ROOT
ATOM      1  N   UNL     1       5.117  -7.023  23.933  0.00  0.00    -0.300 NA
ATOM      2  H   UNL     1       5.479  -7.962  24.109  0.00  0.00    +0.123 HD
ENDROOT
BRANCH   1   5
ATOM      3  C   UNL     1       8.145  -5.091  25.208  0.00  0.00    +0.039 C 
ATOM      4  C   UNL     1       6.678  -5.026  24.762  0.00  0.00    +0.138 C 
ATOM      5  C   UNL     1       6.288  -6.091  23.670  0.00  0.00    +0.114 C 
ATOM      6  C   UNL     1       6.075  -5.431  22.269  0.00  0.00    +0.167 C 
ATOM      7  C   UNL     1       5.588  -3.979  22.253  0.00  0.00    +0.200 C 
ATOM      8  C   UNL     1       6.374  -3.076  23.213  0.00  0.00    +0.282 C 
ATOM      9  O   UNL     1       6.423  -3.636  24.534  0.00  0.00    -0.344 OA
BRANCH   7  10
ATOM     10  O   UNL     1       4.193  -3.915  22.610  0.00  0.00    -0.384 OA
ATOM     11  H   UNL     1       4.139  -3.838  23.577  0.00  0.00    +0.210 HD
ENDBRANCH   7  10
BRANCH   6  12
ATOM     12  O   UNL     1       7.273  -5.525  21.485  0.00  0.00    -0.387 OA
ATOM     13  H   UNL     1       7.517  -6.464  21.415  0.00  0.00    +0.210 HD
ENDBRANCH   6  12
BRANCH   8  14
ATOM     14  O   UNL     1       7.617  -2.494  22.730  0.00  0.00    -0.340 OA
BRANCH  14  15
ATOM     15  C   UNL     1       7.980  -1.140  23.200  0.00  0.00    +0.183 C 
ATOM     16  C   UNL     1       8.855  -1.099  24.484  0.00  0.00    +0.179 C 
ATOM     17  C   UNL     1       9.360   0.311  24.852  0.00  0.00    +0.201 C 
ATOM     18  C   UNL     1       9.974   1.082  23.689  0.00  0.00    +0.282 C 
ATOM     19  O   UNL     1       9.145   1.019  22.521  0.00  0.00    -0.341 OA
ATOM     20  C   UNL     1       8.754  -0.334  22.093  0.00  0.00    +0.178 C 
BRANCH  17  21
ATOM     21  O   UNL     1      10.328   0.178  25.913  0.00  0.00    -0.384 OA
ATOM     22  H   UNL     1       9.839   0.350  26.737  0.00  0.00    +0.210 HD
ENDBRANCH  17  21
BRANCH  16  23
ATOM     23  O   UNL     1       8.110  -1.506  25.646  0.00  0.00    -0.386 OA
ATOM     24  H   UNL     1       7.795  -0.697  26.096  0.00  0.00    +0.210 HD
ENDBRANCH  16  23
BRANCH  18  25
ATOM     25  O   UNL     1      10.446   2.388  24.110  0.00  0.00    -0.346 OA
BRANCH  25  26
ATOM     26  C   UNL     1      10.288   3.631  23.399  0.00  0.00    +0.197 C 
BRANCH  26  27
ATOM     27  C   UNL     1       9.077   4.590  23.735  0.00  0.00    +0.178 C 
ATOM     28  C   UNL     1       7.700   3.968  23.290  0.00  0.00    +0.177 C 
ATOM     29  C   UNL     1       6.507   4.820  23.779  0.00  0.00    +0.179 C 
ATOM     30  C   UNL     1       6.598   5.007  25.286  0.00  0.00    +0.201 C 
ATOM     31  C   UNL     1       7.975   5.588  25.640  0.00  0.00    +0.279 C 
ATOM     32  O   UNL     1       9.063   4.808  25.162  0.00  0.00    -0.341 OA
BRANCH  29  33
ATOM     33  O   UNL     1       5.237   4.222  23.485  0.00  0.00    -0.386 OA
ATOM     34  H   UNL     1       4.991   4.573  22.591  0.00  0.00    +0.210 HD
ENDBRANCH  29  33
BRANCH  30  35
ATOM     35  O   UNL     1       5.486   5.849  25.669  0.00  0.00    -0.384 OA
ATOM     36  H   UNL     1       5.828   6.559  26.239  0.00  0.00    +0.210 HD
ENDBRANCH  30  35
BRANCH  28  37
ATOM     37  O   UNL     1       7.646   3.792  21.870  0.00  0.00    -0.386 OA
ATOM     38  H   UNL     1       8.524   3.537  21.540  0.00  0.00    +0.210 HD
ENDBRANCH  28  37
BRANCH  31  39
ATOM     39  O   UNL     1       8.067   5.616  27.059  0.00  0.00    -0.365 OA
ATOM     40  H   UNL     1       8.952   5.976  27.240  0.00  0.00    +0.213 HD
ENDBRANCH  31  39
ENDBRANCH  26  27
ENDBRANCH  25  26
ENDBRANCH  18  25
BRANCH  20  41
ATOM     41  C   UNL     1       9.932  -1.142  21.485  0.00  0.00    +0.190 C 
BRANCH  41  42
ATOM     42  O   UNL     1      10.540  -2.003  22.448  0.00  0.00    -0.392 OA
ATOM     43  H   UNL     1      10.599  -2.891  22.052  0.00  0.00    +0.210 HD
ENDBRANCH  41  42
ENDBRANCH  20  41
ENDBRANCH  14  15
ENDBRANCH   8  14
ENDBRANCH   1   5
BRANCH   1  44
ATOM     44  C   UNL     1       4.147  -6.738  25.030  0.00  0.00    +0.109 C 
ATOM     45  C   UNL     1       3.249  -5.478  24.815  0.00  0.00    +0.166 C 
ATOM     46  C   UNL     1       3.195  -4.372  25.898  0.00  0.00    +0.178 C 
ATOM     47  C   UNL     1       4.108  -4.526  27.131  0.00  0.00    +0.180 C 
ATOM     48  C   UNL     1       4.794  -5.813  27.342  0.00  0.00    -0.016 C 
ATOM     49  C   UNL     1       4.843  -6.767  26.369  0.00  0.00    -0.002 C 
BRANCH  45  50
ATOM     50  O   UNL     1       1.894  -5.922  24.539  0.00  0.00    -0.387 OA
ATOM     51  H   UNL     1       1.277  -5.332  25.001  0.00  0.00    +0.210 HD
ENDBRANCH  45  50
BRANCH  46  52
ATOM     52  O   UNL     1       3.401  -3.082  25.276  0.00  0.00    -0.386 OA
ATOM     53  H   UNL     1       3.528  -2.456  26.014  0.00  0.00    +0.210 HD
ENDBRANCH  46  52
BRANCH  47  54
ATOM     54  O   UNL     1       4.991  -3.409  27.366  0.00  0.00    -0.338 OA
BRANCH  54  55
ATOM     55  C   UNL     1       4.501  -2.066  27.249  0.00  0.00    +0.282 C 
ATOM     56  C   UNL     1       4.570  -1.505  28.676  0.00  0.00    +0.201 C 
ATOM     57  C   UNL     1       4.064  -0.068  28.742  0.00  0.00    +0.179 C 
ATOM     58  C   UNL     1       4.299   0.835  27.508  0.00  0.00    +0.183 C 
ATOM     59  C   UNL     1       4.662   0.061  26.204  0.00  0.00    +0.178 C 
ATOM     60  O   UNL     1       5.320  -1.203  26.464  0.00  0.00    -0.341 OA
BRANCH  56  61
ATOM     61  O   UNL     1       3.815  -2.287  29.625  0.00  0.00    -0.384 OA
ATOM     62  H   UNL     1       2.885  -2.300  29.334  0.00  0.00    +0.210 HD
ENDBRANCH  56  61
BRANCH  57  63
ATOM     63  O   UNL     1       4.656   0.574  29.898  0.00  0.00    -0.386 OA
ATOM     64  H   UNL     1       5.370   1.142  29.537  0.00  0.00    +0.210 HD
ENDBRANCH  57  63
BRANCH  59  65
ATOM     65  C   UNL     1       5.619   0.909  25.338  0.00  0.00    +0.190 C 
BRANCH  65  66
ATOM     66  O   UNL     1       4.943   1.483  24.218  0.00  0.00    -0.392 OA
ATOM     67  H   UNL     1       4.967   2.442  24.336  0.00  0.00    +0.210 HD
ENDBRANCH  65  66
ENDBRANCH  59  65
BRANCH  58  68
ATOM     68  O   UNL     1       3.283   1.884  27.362  0.00  0.00    -0.340 OA
BRANCH  68  69
ATOM     69  C   UNL     1       3.725   3.221  27.059  0.00  0.00    +0.282 C 
ATOM     70  C   UNL     1       3.343   4.254  28.177  0.00  0.00    +0.201 C 
ATOM     71  C   UNL     1       1.998   4.979  27.963  0.00  0.00    +0.179 C 
ATOM     72  C   UNL     1       1.851   5.418  26.498  0.00  0.00    +0.177 C 
ATOM     73  C   UNL     1       2.040   4.215  25.567  0.00  0.00    +0.178 C 
ATOM     74  O   UNL     1       3.353   3.651  25.753  0.00  0.00    -0.341 OA
BRANCH  72  75
ATOM     75  O   UNL     1       2.844   6.422  26.214  0.00  0.00    -0.386 OA
ATOM     76  H   UNL     1       3.278   6.641  27.059  0.00  0.00    +0.210 HD
ENDBRANCH  72  75
BRANCH  71  77
ATOM     77  O   UNL     1       0.864   4.208  28.352  0.00  0.00    -0.386 OA
ATOM     78  H   UNL     1       1.036   3.804  29.224  0.00  0.00    +0.210 HD
ENDBRANCH  71  77
BRANCH  70  79
ATOM     79  O   UNL     1       4.379   5.260  28.263  0.00  0.00    -0.384 OA
ATOM     80  H   UNL     1       4.917   5.193  27.442  0.00  0.00    +0.210 HD
ENDBRANCH  70  79
BRANCH  73  81
ATOM     81  C   UNL     1       0.862   3.226  25.704  0.00  0.00    +0.190 C 
BRANCH  81  82
ATOM     82  O   UNL     1       1.195   1.927  25.235  0.00  0.00    -0.392 OA
ATOM     83  H   UNL     1       0.398   1.634  24.719  0.00  0.00    +0.210 HD
ENDBRANCH  81  82
ENDBRANCH  73  81
ENDBRANCH  68  69
ENDBRANCH  58  68
ENDBRANCH  54  55
ENDBRANCH  47  54
BRANCH  48  84
ATOM     84  C   UNL     1       5.426  -5.950  28.704  0.00  0.00    +0.189 C 
BRANCH  84  85
ATOM     85  O   UNL     1       6.808  -5.642  28.602  0.00  0.00    -0.391 OA
ATOM     86  H   UNL     1       7.260  -6.441  28.280  0.00  0.00    +0.210 HD
ENDBRANCH  84  85
ENDBRANCH  48  84
ENDBRANCH   1  44
TORSDOF 34
ENDMDL
MODEL 5
REMARK VINA RESULT:      -4.7      2.075      6.413
REMARK  Name = 
REMARK  35 active torsions:
REMARK  status: ('A' for Active; 'I' for Inactive)
REMARK    1  A    between atoms: C_1  and  C_2
REMARK    2  A    between atoms: C_5  and  O_7
REMARK    3  A    between atoms: O_7  and  C_8
REMARK    4  A    between atoms: C_10  and  C_12
REMARK    5  A    between atoms: C_12  and  O_13
REMARK    6  A    between atoms: C_15  and  O_17
REMARK    7  A    between atoms: O_17  and  C_18
REMARK    8  A    between atoms: C_18  and  C_19
REMARK    9  A    between atoms: C_22  and  O_24
REMARK   10  A    between atoms: C_25  and  O_27
REMARK   11  A    between atoms: C_28  and  O_30
REMARK   12  A    between atoms: C_31  and  O_33
REMARK   13  A    between atoms: C_34  and  O_36
REMARK   14  A    between atoms: C_37  and  O_39
REMARK   15  A    between atoms: C_40  and  O_42
REMARK   16  A    between atoms: C_43  and  O_45
REMARK   17  A    between atoms: C_46  and  N_48
REMARK   18  A    between atoms: N_48  and  C_49
REMARK   19  A    between atoms: C_52  and  C_53
REMARK   20  A    between atoms: C_53  and  O_54
REMARK   21  A    between atoms: C_55  and  O_57
REMARK   22  A    between atoms: O_57  and  C_58
REMARK   23  A    between atoms: C_61  and  C_63
REMARK   24  A    between atoms: C_63  and  O_64
REMARK   25  A    between atoms: C_65  and  O_67
REMARK   26  A    between atoms: O_67  and  C_68
REMARK   27  A    between atoms: C_71  and  C_73
REMARK   28  A    between atoms: C_73  and  O_74
REMARK   29  A    between atoms: C_75  and  O_77
REMARK   30  A    between atoms: C_78  and  O_80
REMARK   31  A    between atoms: C_81  and  O_83
REMARK   32  A    between atoms: C_84  and  O_86
REMARK   33  A    between atoms: C_87  and  O_89
REMARK   34  A    between atoms: C_90  and  O_92
REMARK   35  A    between atoms: C_93  and  O_95
REMARK                            x       y       z     vdW  Elec       q    Type
REMARK                         _______ _______ _______ _____ _____    ______ ____
ROOT
ATOM      1  N   UNL     1       2.073   5.543  27.127  0.00  0.00    -0.300 NA
ATOM      2  H   UNL     1       1.579   5.554  26.233  0.00  0.00    +0.123 HD
ENDROOT
BRANCH   1   5
ATOM      3  C   UNL     1       5.616   6.819  26.537  0.00  0.00    +0.039 C 
ATOM      4  C   UNL     1       4.345   6.226  25.911  0.00  0.00    +0.138 C 
ATOM      5  C   UNL     1       3.544   5.265  26.867  0.00  0.00    +0.114 C 
ATOM      6  C   UNL     1       3.683   3.770  26.432  0.00  0.00    +0.167 C 
ATOM      7  C   UNL     1       3.903   3.497  24.941  0.00  0.00    +0.200 C 
ATOM      8  C   UNL     1       4.989   4.390  24.326  0.00  0.00    +0.282 C 
ATOM      9  O   UNL     1       4.749   5.776  24.613  0.00  0.00    -0.344 OA
BRANCH   7  10
ATOM     10  O   UNL     1       2.678   3.703  24.210  0.00  0.00    -0.384 OA
ATOM     11  H   UNL     1       1.941   3.477  24.800  0.00  0.00    +0.210 HD
ENDBRANCH   7  10
BRANCH   6  12
ATOM     12  O   UNL     1       4.729   3.129  27.178  0.00  0.00    -0.387 OA
ATOM     13  H   UNL     1       4.363   2.323  27.582  0.00  0.00    +0.210 HD
ENDBRANCH   6  12
BRANCH   8  14
ATOM     14  O   UNL     1       6.372   3.953  24.444  0.00  0.00    -0.340 OA
BRANCH  14  15
ATOM     15  C   UNL     1       6.836   2.866  23.555  0.00  0.00    +0.183 C 
ATOM     16  C   UNL     1       8.169   3.148  22.809  0.00  0.00    +0.179 C 
ATOM     17  C   UNL     1       8.716   1.937  22.025  0.00  0.00    +0.201 C 
ATOM     18  C   UNL     1       8.742   0.635  22.820  0.00  0.00    +0.282 C 
ATOM     19  O   UNL     1       7.500   0.410  23.499  0.00  0.00    -0.341 OA
ATOM     20  C   UNL     1       7.028   1.519  24.344  0.00  0.00    +0.178 C 
BRANCH  17  21
ATOM     21  O   UNL     1      10.048   2.258  21.574  0.00  0.00    -0.384 OA
ATOM     22  H   UNL     1      10.308   1.528  20.986  0.00  0.00    +0.210 HD
ENDBRANCH  17  21
BRANCH  16  23
ATOM     23  O   UNL     1       8.008   4.159  21.798  0.00  0.00    -0.386 OA
ATOM     24  H   UNL     1       8.461   3.847  20.990  0.00  0.00    +0.210 HD
ENDBRANCH  16  23
BRANCH  18  25
ATOM     25  O   UNL     1       9.286  -0.455  22.032  0.00  0.00    -0.346 OA
BRANCH  25  26
ATOM     26  C   UNL     1       9.844  -1.685  22.532  0.00  0.00    +0.197 C 
BRANCH  26  27
ATOM     27  C   UNL     1       9.082  -2.509  23.646  0.00  0.00    +0.178 C 
ATOM     28  C   UNL     1       7.801  -3.221  23.069  0.00  0.00    +0.177 C 
ATOM     29  C   UNL     1       7.161  -4.169  24.109  0.00  0.00    +0.179 C 
ATOM     30  C   UNL     1       8.202  -5.161  24.604  0.00  0.00    +0.201 C 
ATOM     31  C   UNL     1       9.427  -4.391  25.121  0.00  0.00    +0.279 C 
ATOM     32  O   UNL     1       9.990  -3.505  24.163  0.00  0.00    -0.341 OA
BRANCH  29  33
ATOM     33  O   UNL     1       6.058  -4.916  23.578  0.00  0.00    -0.386 OA
ATOM     34  H   UNL     1       6.471  -5.697  23.129  0.00  0.00    +0.210 HD
ENDBRANCH  29  33
BRANCH  30  35
ATOM     35  O   UNL     1       7.554  -5.981  25.604  0.00  0.00    -0.384 OA
ATOM     36  H   UNL     1       8.211  -6.195  26.289  0.00  0.00    +0.210 HD
ENDBRANCH  30  35
BRANCH  28  37
ATOM     37  O   UNL     1       6.844  -2.266  22.600  0.00  0.00    -0.386 OA
ATOM     38  H   UNL     1       6.088  -2.235  23.209  0.00  0.00    +0.210 HD
ENDBRANCH  28  37
BRANCH  31  39
ATOM     39  O   UNL     1      10.423  -5.354  25.442  0.00  0.00    -0.365 OA
ATOM     40  H   UNL     1      11.146  -4.836  25.836  0.00  0.00    +0.213 HD
ENDBRANCH  31  39
ENDBRANCH  26  27
ENDBRANCH  25  26
ENDBRANCH  18  25
BRANCH  20  41
ATOM     41  C   UNL     1       7.874   1.702  25.633  0.00  0.00    +0.190 C 
BRANCH  41  42
ATOM     42  O   UNL     1       7.392   2.777  26.438  0.00  0.00    -0.392 OA
ATOM     43  H   UNL     1       8.158   3.324  26.687  0.00  0.00    +0.210 HD
ENDBRANCH  41  42
ENDBRANCH  20  41
ENDBRANCH  14  15
ENDBRANCH   8  14
ENDBRANCH   1   5
BRANCH   1  44
ATOM     44  C   UNL     1       1.278   4.659  28.030  0.00  0.00    +0.109 C 
ATOM     45  C   UNL     1       1.892   4.431  29.448  0.00  0.00    +0.166 C 
ATOM     46  C   UNL     1       2.125   2.991  29.968  0.00  0.00    +0.178 C 
ATOM     47  C   UNL     1       1.809   1.822  29.014  0.00  0.00    +0.180 C 
ATOM     48  C   UNL     1       1.080   2.108  27.766  0.00  0.00    -0.016 C 
ATOM     49  C   UNL     1       0.899   3.383  27.319  0.00  0.00    -0.002 C 
BRANCH  45  50
ATOM     50  O   UNL     1       1.084   5.148  30.418  0.00  0.00    -0.387 OA
ATOM     51  H   UNL     1       1.661   5.756  30.910  0.00  0.00    +0.210 HD
ENDBRANCH  45  50
BRANCH  46  52
ATOM     52  O   UNL     1       3.475   2.878  30.475  0.00  0.00    -0.386 OA
ATOM     53  H   UNL     1       3.583   3.626  31.093  0.00  0.00    +0.210 HD
ENDBRANCH  46  52
BRANCH  47  54
ATOM     54  O   UNL     1       2.911   0.917  28.789  0.00  0.00    -0.338 OA
BRANCH  54  55
ATOM     55  C   UNL     1       2.673  -0.383  28.233  0.00  0.00    +0.282 C 
ATOM     56  C   UNL     1       3.922  -0.675  27.388  0.00  0.00    +0.201 C 
ATOM     57  C   UNL     1       3.832  -2.032  26.698  0.00  0.00    +0.179 C 
ATOM     58  C   UNL     1       3.073  -3.163  27.431  0.00  0.00    +0.183 C 
ATOM     59  C   UNL     1       2.152  -2.674  28.592  0.00  0.00    +0.178 C 
ATOM     60  O   UNL     1       2.612  -1.437  29.191  0.00  0.00    -0.341 OA
BRANCH  56  61
ATOM     61  O   UNL     1       4.160   0.324  26.374  0.00  0.00    -0.384 OA
ATOM     62  H   UNL     1       5.029   0.728  26.545  0.00  0.00    +0.210 HD
ENDBRANCH  56  61
BRANCH  57  63
ATOM     63  O   UNL     1       5.177  -2.492  26.416  0.00  0.00    -0.386 OA
ATOM     64  H   UNL     1       5.756  -1.727  26.620  0.00  0.00    +0.210 HD
ENDBRANCH  57  63
BRANCH  59  65
ATOM     65  C   UNL     1       2.104  -3.737  29.710  0.00  0.00    +0.190 C 
BRANCH  65  66
ATOM     66  O   UNL     1       3.199  -4.650  29.613  0.00  0.00    -0.392 OA
ATOM     67  H   UNL     1       2.871  -5.514  29.895  0.00  0.00    +0.210 HD
ENDBRANCH  65  66
ENDBRANCH  59  65
BRANCH  58  68
ATOM     68  O   UNL     1       2.473  -4.140  26.515  0.00  0.00    -0.340 OA
BRANCH  68  69
ATOM     69  C   UNL     1       3.287  -4.656  25.444  0.00  0.00    +0.282 C 
ATOM     70  C   UNL     1       2.445  -5.397  24.346  0.00  0.00    +0.201 C 
ATOM     71  C   UNL     1       2.296  -6.919  24.555  0.00  0.00    +0.179 C 
ATOM     72  C   UNL     1       3.639  -7.538  24.972  0.00  0.00    +0.177 C 
ATOM     73  C   UNL     1       4.194  -6.814  26.204  0.00  0.00    +0.178 C 
ATOM     74  O   UNL     1       4.399  -5.419  25.903  0.00  0.00    -0.341 OA
BRANCH  72  75
ATOM     75  O   UNL     1       4.563  -7.419  23.873  0.00  0.00    -0.386 OA
ATOM     76  H   UNL     1       4.298  -8.077  23.205  0.00  0.00    +0.210 HD
ENDBRANCH  72  75
BRANCH  71  77
ATOM     77  O   UNL     1       1.290  -7.271  25.501  0.00  0.00    -0.386 OA
ATOM     78  H   UNL     1       1.710  -7.455  26.362  0.00  0.00    +0.210 HD
ENDBRANCH  71  77
BRANCH  70  79
ATOM     79  O   UNL     1       3.064  -5.187  23.056  0.00  0.00    -0.384 OA
ATOM     80  H   UNL     1       3.709  -5.917  22.921  0.00  0.00    +0.210 HD
ENDBRANCH  70  79
BRANCH  73  81
ATOM     81  C   UNL     1       3.328  -7.109  27.448  0.00  0.00    +0.190 C 
BRANCH  81  82
ATOM     82  O   UNL     1       4.116  -7.457  28.579  0.00  0.00    -0.392 OA
ATOM     83  H   UNL     1       4.828  -8.048  28.216  0.00  0.00    +0.210 HD
ENDBRANCH  81  82
ENDBRANCH  73  81
ENDBRANCH  68  69
ENDBRANCH  58  68
ENDBRANCH  54  55
ENDBRANCH  47  54
BRANCH  48  84
ATOM     84  C   UNL     1       0.582   0.876  27.055  0.00  0.00    +0.189 C 
BRANCH  84  85
ATOM     85  O   UNL     1       0.613   1.109  25.655  0.00  0.00    -0.391 OA
ATOM     86  H   UNL     1       0.030   1.867  25.476  0.00  0.00    +0.210 HD
ENDBRANCH  84  85
ENDBRANCH  48  84
ENDBRANCH   1  44
TORSDOF 34
ENDMDL
MODEL 6
REMARK VINA RESULT:      -4.7      2.167      9.020
REMARK  Name = 
REMARK  35 active torsions:
REMARK  status: ('A' for Active; 'I' for Inactive)
REMARK    1  A    between atoms: C_1  and  C_2
REMARK    2  A    between atoms: C_5  and  O_7
REMARK    3  A    between atoms: O_7  and  C_8
REMARK    4  A    between atoms: C_10  and  C_12
REMARK    5  A    between atoms: C_12  and  O_13
REMARK    6  A    between atoms: C_15  and  O_17
REMARK    7  A    between atoms: O_17  and  C_18
REMARK    8  A    between atoms: C_18  and  C_19
REMARK    9  A    between atoms: C_22  and  O_24
REMARK   10  A    between atoms: C_25  and  O_27
REMARK   11  A    between atoms: C_28  and  O_30
REMARK   12  A    between atoms: C_31  and  O_33
REMARK   13  A    between atoms: C_34  and  O_36
REMARK   14  A    between atoms: C_37  and  O_39
REMARK   15  A    between atoms: C_40  and  O_42
REMARK   16  A    between atoms: C_43  and  O_45
REMARK   17  A    between atoms: C_46  and  N_48
REMARK   18  A    between atoms: N_48  and  C_49
REMARK   19  A    between atoms: C_52  and  C_53
REMARK   20  A    between atoms: C_53  and  O_54
REMARK   21  A    between atoms: C_55  and  O_57
REMARK   22  A    between atoms: O_57  and  C_58
REMARK   23  A    between atoms: C_61  and  C_63
REMARK   24  A    between atoms: C_63  and  O_64
REMARK   25  A    between atoms: C_65  and  O_67
REMARK   26  A    between atoms: O_67  and  C_68
REMARK   27  A    between atoms: C_71  and  C_73
REMARK   28  A    between atoms: C_73  and  O_74
REMARK   29  A    between atoms: C_75  and  O_77
REMARK   30  A    between atoms: C_78  and  O_80
REMARK   31  A    between atoms: C_81  and  O_83
REMARK   32  A    between atoms: C_84  and  O_86
REMARK   33  A    between atoms: C_87  and  O_89
REMARK   34  A    between atoms: C_90  and  O_92
REMARK   35  A    between atoms: C_93  and  O_95
REMARK                            x       y       z     vdW  Elec       q    Type
REMARK                         _______ _______ _______ _____ _____    ______ ____
ROOT
ATOM      1  N   UNL     1       7.149  -3.717  22.740  0.00  0.00    -0.300 NA
ATOM      2  H   UNL     1       7.828  -3.774  21.978  0.00  0.00    +0.123 HD
ENDROOT
BRANCH   1   5
ATOM      3  C   UNL     1       6.029  -0.496  24.442  0.00  0.00    +0.039 C 
ATOM      4  C   UNL     1       6.769  -1.129  23.255  0.00  0.00    +0.138 C 
ATOM      5  C   UNL     1       7.470  -2.498  23.588  0.00  0.00    +0.114 C 
ATOM      6  C   UNL     1       9.025  -2.350  23.651  0.00  0.00    +0.167 C 
ATOM      7  C   UNL     1       9.655  -1.262  22.775  0.00  0.00    +0.200 C 
ATOM      8  C   UNL     1       8.933   0.087  22.890  0.00  0.00    +0.282 C 
ATOM      9  O   UNL     1       7.521  -0.058  22.675  0.00  0.00    -0.344 OA
BRANCH   7  10
ATOM     10  O   UNL     1       9.646  -1.666  21.392  0.00  0.00    -0.384 OA
ATOM     11  H   UNL     1       8.731  -1.890  21.156  0.00  0.00    +0.210 HD
ENDBRANCH   7  10
BRANCH   6  12
ATOM     12  O   UNL     1       9.454  -2.158  25.007  0.00  0.00    -0.387 OA
ATOM     13  H   UNL     1       8.665  -2.133  25.575  0.00  0.00    +0.210 HD
ENDBRANCH   6  12
BRANCH   8  14
ATOM     14  O   UNL     1       9.316   0.970  23.981  0.00  0.00    -0.340 OA
BRANCH  14  15
ATOM     15  C   UNL     1       9.087   2.422  23.814  0.00  0.00    +0.183 C 
ATOM     16  C   UNL     1       8.062   2.806  22.712  0.00  0.00    +0.179 C 
ATOM     17  C   UNL     1       7.716   4.309  22.676  0.00  0.00    +0.201 C 
ATOM     18  C   UNL     1       7.379   4.909  24.037  0.00  0.00    +0.282 C 
ATOM     19  O   UNL     1       8.341   4.530  25.030  0.00  0.00    -0.341 OA
ATOM     20  C   UNL     1       8.592   3.084  25.152  0.00  0.00    +0.178 C 
BRANCH  17  21
ATOM     21  O   UNL     1       6.605   4.492  21.775  0.00  0.00    -0.384 OA
ATOM     22  H   UNL     1       6.416   5.447  21.783  0.00  0.00    +0.210 HD
ENDBRANCH  17  21
BRANCH  16  23
ATOM     23  O   UNL     1       8.579   2.547  21.394  0.00  0.00    -0.386 OA
ATOM     24  H   UNL     1       8.636   1.577  21.283  0.00  0.00    +0.210 HD
ENDBRANCH  16  23
BRANCH  18  25
ATOM     25  O   UNL     1       7.044   6.316  23.927  0.00  0.00    -0.346 OA
BRANCH  25  26
ATOM     26  C   UNL     1       5.748   6.911  24.127  0.00  0.00    +0.197 C 
BRANCH  26  27
ATOM     27  C   UNL     1       4.439   6.119  23.727  0.00  0.00    +0.178 C 
ATOM     28  C   UNL     1       3.198   6.573  24.586  0.00  0.00    +0.177 C 
ATOM     29  C   UNL     1       1.888   5.933  24.073  0.00  0.00    +0.179 C 
ATOM     30  C   UNL     1       1.714   6.241  22.595  0.00  0.00    +0.201 C 
ATOM     31  C   UNL     1       2.972   5.797  21.834  0.00  0.00    +0.279 C 
ATOM     32  O   UNL     1       4.172   6.374  22.332  0.00  0.00    -0.341 OA
BRANCH  29  33
ATOM     33  O   UNL     1       0.726   6.412  24.764  0.00  0.00    -0.386 OA
ATOM     34  H   UNL     1      -0.035   6.185  24.170  0.00  0.00    +0.210 HD
ENDBRANCH  29  33
BRANCH  30  35
ATOM     35  O   UNL     1       0.501   5.576  22.170  0.00  0.00    -0.384 OA
ATOM     36  H   UNL     1       0.277   5.898  21.280  0.00  0.00    +0.210 HD
ENDBRANCH  30  35
BRANCH  28  37
ATOM     37  O   UNL     1       3.394   6.281  25.973  0.00  0.00    -0.386 OA
ATOM     38  H   UNL     1       4.282   6.569  26.244  0.00  0.00    +0.210 HD
ENDBRANCH  28  37
BRANCH  31  39
ATOM     39  O   UNL     1       2.823   6.229  20.487  0.00  0.00    -0.365 OA
ATOM     40  H   UNL     1       3.361   5.605  19.970  0.00  0.00    +0.213 HD
ENDBRANCH  31  39
ENDBRANCH  26  27
ENDBRANCH  25  26
ENDBRANCH  18  25
BRANCH  20  41
ATOM     41  C   UNL     1       7.404   2.314  25.791  0.00  0.00    +0.190 C 
BRANCH  41  42
ATOM     42  O   UNL     1       7.537   2.211  27.208  0.00  0.00    -0.392 OA
ATOM     43  H   UNL     1       7.361   3.092  27.584  0.00  0.00    +0.210 HD
ENDBRANCH  41  42
ENDBRANCH  20  41
ENDBRANCH  14  15
ENDBRANCH   8  14
ENDBRANCH   1   5
BRANCH   1  44
ATOM     44  C   UNL     1       7.095  -5.078  23.351  0.00  0.00    +0.109 C 
ATOM     45  C   UNL     1       5.910  -5.976  22.871  0.00  0.00    +0.166 C 
ATOM     46  C   UNL     1       4.955  -6.616  23.908  0.00  0.00    +0.178 C 
ATOM     47  C   UNL     1       5.170  -6.269  25.395  0.00  0.00    +0.180 C 
ATOM     48  C   UNL     1       6.401  -5.557  25.781  0.00  0.00    -0.016 C 
ATOM     49  C   UNL     1       7.220  -4.988  24.852  0.00  0.00    -0.002 C 
BRANCH  45  50
ATOM     50  O   UNL     1       6.445  -7.027  22.024  0.00  0.00    -0.387 OA
ATOM     51  H   UNL     1       7.407  -7.061  22.147  0.00  0.00    +0.210 HD
ENDBRANCH  45  50
BRANCH  46  52
ATOM     52  O   UNL     1       3.585  -6.356  23.523  0.00  0.00    -0.386 OA
ATOM     53  H   UNL     1       3.642  -5.787  22.731  0.00  0.00    +0.210 HD
ENDBRANCH  46  52
BRANCH  47  54
ATOM     54  O   UNL     1       4.010  -5.720  26.057  0.00  0.00    -0.338 OA
BRANCH  54  55
ATOM     55  C   UNL     1       4.044  -4.385  26.580  0.00  0.00    +0.282 C 
ATOM     56  C   UNL     1       2.832  -3.691  25.942  0.00  0.00    +0.201 C 
ATOM     57  C   UNL     1       2.721  -2.235  26.381  0.00  0.00    +0.179 C 
ATOM     58  C   UNL     1       3.196  -1.876  27.809  0.00  0.00    +0.183 C 
ATOM     59  C   UNL     1       4.099  -2.958  28.478  0.00  0.00    +0.178 C 
ATOM     60  O   UNL     1       3.833  -4.294  27.987  0.00  0.00    -0.341 OA
BRANCH  56  61
ATOM     61  O   UNL     1       2.864  -3.719  24.500  0.00  0.00    -0.384 OA
ATOM     62  H   UNL     1       2.644  -2.829  24.174  0.00  0.00    +0.210 HD
ENDBRANCH  56  61
BRANCH  57  63
ATOM     63  O   UNL     1       1.340  -1.819  26.241  0.00  0.00    -0.386 OA
ATOM     64  H   UNL     1       1.194  -1.170  26.962  0.00  0.00    +0.210 HD
ENDBRANCH  57  63
BRANCH  59  65
ATOM     65  C   UNL     1       3.860  -2.972  30.004  0.00  0.00    +0.190 C 
BRANCH  65  66
ATOM     66  O   UNL     1       2.640  -2.316  30.350  0.00  0.00    -0.392 OA
ATOM     67  H   UNL     1       2.851  -1.384  30.496  0.00  0.00    +0.210 HD
ENDBRANCH  65  66
ENDBRANCH  59  65
BRANCH  58  68
ATOM     68  O   UNL     1       3.672  -0.492  27.924  0.00  0.00    -0.340 OA
BRANCH  68  69
ATOM     69  C   UNL     1       3.031   0.517  27.120  0.00  0.00    +0.282 C 
ATOM     70  C   UNL     1       4.023   1.641  26.655  0.00  0.00    +0.201 C 
ATOM     71  C   UNL     1       4.100   2.869  27.587  0.00  0.00    +0.179 C 
ATOM     72  C   UNL     1       2.693   3.291  28.036  0.00  0.00    +0.177 C 
ATOM     73  C   UNL     1       1.963   2.101  28.670  0.00  0.00    +0.178 C 
ATOM     74  O   UNL     1       1.842   1.032  27.711  0.00  0.00    -0.341 OA
BRANCH  72  75
ATOM     75  O   UNL     1       1.963   3.763  26.888  0.00  0.00    -0.386 OA
ATOM     76  H   UNL     1       1.093   3.325  26.904  0.00  0.00    +0.210 HD
ENDBRANCH  72  75
BRANCH  71  77
ATOM     77  O   UNL     1       4.932   2.670  28.727  0.00  0.00    -0.386 OA
ATOM     78  H   UNL     1       4.369   2.519  29.510  0.00  0.00    +0.210 HD
ENDBRANCH  71  77
BRANCH  70  79
ATOM     79  O   UNL     1       3.627   2.106  25.344  0.00  0.00    -0.384 OA
ATOM     80  H   UNL     1       3.942   1.439  24.693  0.00  0.00    +0.210 HD
ENDBRANCH  70  79
BRANCH  73  81
ATOM     81  C   UNL     1       2.608   1.720  30.020  0.00  0.00    +0.190 C 
BRANCH  81  82
ATOM     82  O   UNL     1       2.234   0.415  30.443  0.00  0.00    -0.392 OA
ATOM     83  H   UNL     1       3.046  -0.138  30.296  0.00  0.00    +0.210 HD
ENDBRANCH  81  82
ENDBRANCH  73  81
ENDBRANCH  68  69
ENDBRANCH  58  68
ENDBRANCH  54  55
ENDBRANCH  47  54
BRANCH  48  84
ATOM     84  C   UNL     1       6.642  -5.518  27.269  0.00  0.00    +0.189 C 
BRANCH  84  85
ATOM     85  O   UNL     1       7.978  -5.920  27.528  0.00  0.00    -0.391 OA
ATOM     86  H   UNL     1       8.144  -6.725  27.008  0.00  0.00    +0.210 HD
ENDBRANCH  84  85
ENDBRANCH  48  84
ENDBRANCH   1  44
TORSDOF 34
ENDMDL
MODEL 7
REMARK VINA RESULT:      -4.6      1.431      2.040
REMARK  Name = 
REMARK  35 active torsions:
REMARK  status: ('A' for Active; 'I' for Inactive)
REMARK    1  A    between atoms: C_1  and  C_2
REMARK    2  A    between atoms: C_5  and  O_7
REMARK    3  A    between atoms: O_7  and  C_8
REMARK    4  A    between atoms: C_10  and  C_12
REMARK    5  A    between atoms: C_12  and  O_13
REMARK    6  A    between atoms: C_15  and  O_17
REMARK    7  A    between atoms: O_17  and  C_18
REMARK    8  A    between atoms: C_18  and  C_19
REMARK    9  A    between atoms: C_22  and  O_24
REMARK   10  A    between atoms: C_25  and  O_27
REMARK   11  A    between atoms: C_28  and  O_30
REMARK   12  A    between atoms: C_31  and  O_33
REMARK   13  A    between atoms: C_34  and  O_36
REMARK   14  A    between atoms: C_37  and  O_39
REMARK   15  A    between atoms: C_40  and  O_42
REMARK   16  A    between atoms: C_43  and  O_45
REMARK   17  A    between atoms: C_46  and  N_48
REMARK   18  A    between atoms: N_48  and  C_49
REMARK   19  A    between atoms: C_52  and  C_53
REMARK   20  A    between atoms: C_53  and  O_54
REMARK   21  A    between atoms: C_55  and  O_57
REMARK   22  A    between atoms: O_57  and  C_58
REMARK   23  A    between atoms: C_61  and  C_63
REMARK   24  A    between atoms: C_63  and  O_64
REMARK   25  A    between atoms: C_65  and  O_67
REMARK   26  A    between atoms: O_67  and  C_68
REMARK   27  A    between atoms: C_71  and  C_73
REMARK   28  A    between atoms: C_73  and  O_74
REMARK   29  A    between atoms: C_75  and  O_77
REMARK   30  A    between atoms: C_78  and  O_80
REMARK   31  A    between atoms: C_81  and  O_83
REMARK   32  A    between atoms: C_84  and  O_86
REMARK   33  A    between atoms: C_87  and  O_89
REMARK   34  A    between atoms: C_90  and  O_92
REMARK   35  A    between atoms: C_93  and  O_95
REMARK                            x       y       z     vdW  Elec       q    Type
REMARK                         _______ _______ _______ _____ _____    ______ ____
ROOT
ATOM      1  N   UNL     1       7.025   4.421  23.257  0.00  0.00    -0.300 NA
ATOM      2  H   UNL     1       6.067   4.080  23.356  0.00  0.00    +0.123 HD
ENDROOT
BRANCH   1   5
ATOM      3  C   UNL     1      10.507   2.883  23.451  0.00  0.00    +0.039 C 
ATOM      4  C   UNL     1       9.078   2.758  22.903  0.00  0.00    +0.138 C 
ATOM      5  C   UNL     1       7.974   3.384  23.833  0.00  0.00    +0.114 C 
ATOM      6  C   UNL     1       7.115   2.281  24.533  0.00  0.00    +0.167 C 
ATOM      7  C   UNL     1       6.946   0.954  23.787  0.00  0.00    +0.200 C 
ATOM      8  C   UNL     1       8.271   0.406  23.240  0.00  0.00    +0.282 C 
ATOM      9  O   UNL     1       8.968   1.398  22.470  0.00  0.00    -0.344 OA
BRANCH   7  10
ATOM     10  O   UNL     1       6.031   1.113  22.686  0.00  0.00    -0.384 OA
ATOM     11  H   UNL     1       6.348   1.854  22.143  0.00  0.00    +0.210 HD
ENDBRANCH   7  10
BRANCH   6  12
ATOM     12  O   UNL     1       7.625   2.011  25.848  0.00  0.00    -0.387 OA
ATOM     13  H   UNL     1       7.926   1.086  25.873  0.00  0.00    +0.210 HD
ENDBRANCH   6  12
BRANCH   8  14
ATOM     14  O   UNL     1       9.097  -0.389  24.136  0.00  0.00    -0.340 OA
BRANCH  14  15
ATOM     15  C   UNL     1       8.592  -1.715  24.554  0.00  0.00    +0.183 C 
ATOM     16  C   UNL     1       9.622  -2.874  24.458  0.00  0.00    +0.179 C 
ATOM     17  C   UNL     1       9.126  -4.205  25.058  0.00  0.00    +0.201 C 
ATOM     18  C   UNL     1       8.505  -4.075  26.445  0.00  0.00    +0.282 C 
ATOM     19  O   UNL     1       7.564  -2.994  26.500  0.00  0.00    -0.341 OA
ATOM     20  C   UNL     1       8.067  -1.690  26.037  0.00  0.00    +0.178 C 
BRANCH  17  21
ATOM     21  O   UNL     1      10.240  -5.119  25.108  0.00  0.00    -0.384 OA
ATOM     22  H   UNL     1      10.794  -4.816  25.849  0.00  0.00    +0.210 HD
ENDBRANCH  17  21
BRANCH  16  23
ATOM     23  O   UNL     1       9.916  -3.209  23.089  0.00  0.00    -0.386 OA
ATOM     24  H   UNL     1      10.659  -3.845  23.092  0.00  0.00    +0.210 HD
ENDBRANCH  16  23
BRANCH  18  25
ATOM     25  O   UNL     1       8.080  -5.363  26.957  0.00  0.00    -0.346 OA
BRANCH  25  26
ATOM     26  C   UNL     1       6.833  -5.660  27.615  0.00  0.00    +0.197 C 
BRANCH  26  27
ATOM     27  C   UNL     1       5.599  -6.189  26.780  0.00  0.00    +0.178 C 
ATOM     28  C   UNL     1       4.374  -6.537  27.708  0.00  0.00    +0.177 C 
ATOM     29  C   UNL     1       3.114  -6.879  26.880  0.00  0.00    +0.179 C 
ATOM     30  C   UNL     1       2.809  -5.740  25.920  0.00  0.00    +0.201 C 
ATOM     31  C   UNL     1       4.057  -5.444  25.076  0.00  0.00    +0.279 C 
ATOM     32  O   UNL     1       5.215  -5.155  25.850  0.00  0.00    -0.341 OA
BRANCH  29  33
ATOM     33  O   UNL     1       1.953  -7.092  27.694  0.00  0.00    -0.386 OA
ATOM     34  H   UNL     1       1.196  -7.131  27.055  0.00  0.00    +0.210 HD
ENDBRANCH  29  33
BRANCH  30  35
ATOM     35  O   UNL     1       1.655  -6.144  25.147  0.00  0.00    -0.384 OA
ATOM     36  H   UNL     1       1.973  -6.551  24.323  0.00  0.00    +0.210 HD
ENDBRANCH  30  35
BRANCH  28  37
ATOM     37  O   UNL     1       4.692  -7.603  28.608  0.00  0.00    -0.386 OA
ATOM     38  H   UNL     1       5.614  -7.878  28.474  0.00  0.00    +0.210 HD
ENDBRANCH  28  37
BRANCH  31  39
ATOM     39  O   UNL     1       3.773  -4.289  24.296  0.00  0.00    -0.365 OA
ATOM     40  H   UNL     1       3.541  -3.605  24.947  0.00  0.00    +0.213 HD
ENDBRANCH  31  39
ENDBRANCH  26  27
ENDBRANCH  25  26
ENDBRANCH  18  25
BRANCH  20  41
ATOM     41  C   UNL     1       9.089  -1.052  27.017  0.00  0.00    +0.190 C 
BRANCH  41  42
ATOM     42  O   UNL     1       8.484  -0.057  27.843  0.00  0.00    -0.392 OA
ATOM     43  H   UNL     1       7.524  -0.222  27.844  0.00  0.00    +0.210 HD
ENDBRANCH  41  42
ENDBRANCH  20  41
ENDBRANCH  14  15
ENDBRANCH   8  14
ENDBRANCH   1   5
BRANCH   1  44
ATOM     44  C   UNL     1       7.023   5.822  23.772  0.00  0.00    +0.109 C 
ATOM     45  C   UNL     1       8.239   6.202  24.676  0.00  0.00    +0.166 C 
ATOM     46  C   UNL     1       8.000   6.794  26.087  0.00  0.00    +0.178 C 
ATOM     47  C   UNL     1       6.543   6.912  26.580  0.00  0.00    +0.180 C 
ATOM     48  C   UNL     1       5.453   6.693  25.614  0.00  0.00    -0.016 C 
ATOM     49  C   UNL     1       5.684   6.157  24.382  0.00  0.00    -0.002 C 
BRANCH  45  50
ATOM     50  O   UNL     1       9.097   7.108  23.934  0.00  0.00    -0.387 OA
ATOM     51  H   UNL     1       8.582   7.897  23.699  0.00  0.00    +0.210 HD
ENDBRANCH  45  50
BRANCH  46  52
ATOM     52  O   UNL     1       8.802   6.073  27.051  0.00  0.00    -0.386 OA
ATOM     53  H   UNL     1       8.272   6.061  27.871  0.00  0.00    +0.210 HD
ENDBRANCH  46  52
BRANCH  47  54
ATOM     54  O   UNL     1       6.280   6.250  27.836  0.00  0.00    -0.338 OA
BRANCH  54  55
ATOM     55  C   UNL     1       5.462   5.073  27.872  0.00  0.00    +0.282 C 
ATOM     56  C   UNL     1       6.305   4.042  28.635  0.00  0.00    +0.201 C 
ATOM     57  C   UNL     1       5.585   2.702  28.756  0.00  0.00    +0.179 C 
ATOM     58  C   UNL     1       4.042   2.723  28.865  0.00  0.00    +0.183 C 
ATOM     59  C   UNL     1       3.383   4.071  28.438  0.00  0.00    +0.178 C 
ATOM     60  O   UNL     1       4.259   5.209  28.625  0.00  0.00    -0.341 OA
BRANCH  56  61
ATOM     61  O   UNL     1       7.589   3.802  28.023  0.00  0.00    -0.384 OA
ATOM     62  H   UNL     1       8.257   4.321  28.506  0.00  0.00    +0.210 HD
ENDBRANCH  56  61
BRANCH  57  63
ATOM     63  O   UNL     1       6.116   1.999  29.906  0.00  0.00    -0.386 OA
ATOM     64  H   UNL     1       5.526   2.245  30.650  0.00  0.00    +0.210 HD
ENDBRANCH  57  63
BRANCH  59  65
ATOM     65  C   UNL     1       2.112   4.325  29.276  0.00  0.00    +0.190 C 
BRANCH  65  66
ATOM     66  O   UNL     1       2.303   5.388  30.210  0.00  0.00    -0.392 OA
ATOM     67  H   UNL     1       1.782   5.171  30.995  0.00  0.00    +0.210 HD
ENDBRANCH  65  66
ENDBRANCH  59  65
BRANCH  58  68
ATOM     68  O   UNL     1       3.412   1.510  28.329  0.00  0.00    -0.340 OA
BRANCH  68  69
ATOM     69  C   UNL     1       4.267   0.434  27.897  0.00  0.00    +0.282 C 
ATOM     70  C   UNL     1       3.630  -0.421  26.745  0.00  0.00    +0.201 C 
ATOM     71  C   UNL     1       2.830  -1.654  27.214  0.00  0.00    +0.179 C 
ATOM     72  C   UNL     1       3.589  -2.395  28.325  0.00  0.00    +0.177 C 
ATOM     73  C   UNL     1       3.928  -1.430  29.467  0.00  0.00    +0.178 C 
ATOM     74  O   UNL     1       4.758  -0.359  28.973  0.00  0.00    -0.341 OA
BRANCH  72  75
ATOM     75  O   UNL     1       4.798  -2.947  27.771  0.00  0.00    -0.386 OA
ATOM     76  H   UNL     1       5.397  -2.200  27.593  0.00  0.00    +0.210 HD
ENDBRANCH  72  75
BRANCH  71  77
ATOM     77  O   UNL     1       1.510  -1.346  27.654  0.00  0.00    -0.386 OA
ATOM     78  H   UNL     1       1.053  -2.173  27.898  0.00  0.00    +0.210 HD
ENDBRANCH  71  77
BRANCH  70  79
ATOM     79  O   UNL     1       4.681  -0.884  25.866  0.00  0.00    -0.384 OA
ATOM     80  H   UNL     1       4.689  -1.866  25.916  0.00  0.00    +0.210 HD
ENDBRANCH  70  79
BRANCH  73  81
ATOM     81  C   UNL     1       2.649  -0.995  30.215  0.00  0.00    +0.190 C 
BRANCH  81  82
ATOM     82  O   UNL     1       1.690  -2.042  30.289  0.00  0.00    -0.392 OA
ATOM     83  H   UNL     1       0.811  -1.580  30.250  0.00  0.00    +0.210 HD
ENDBRANCH  81  82
ENDBRANCH  73  81
ENDBRANCH  68  69
ENDBRANCH  58  68
ENDBRANCH  54  55
ENDBRANCH  47  54
BRANCH  48  84
ATOM     84  C   UNL     1       4.095   7.105  26.124  0.00  0.00    +0.189 C 
BRANCH  84  85
ATOM     85  O   UNL     1       3.120   6.209  25.611  0.00  0.00    -0.391 OA
ATOM     86  H   UNL     1       3.536   5.332  25.554  0.00  0.00    +0.210 HD
ENDBRANCH  84  85
ENDBRANCH  48  84
ENDBRANCH   1  44
TORSDOF 34
ENDMDL
MODEL 8
REMARK VINA RESULT:      -4.5      2.119      8.878
REMARK  Name = 
REMARK  35 active torsions:
REMARK  status: ('A' for Active; 'I' for Inactive)
REMARK    1  A    between atoms: C_1  and  C_2
REMARK    2  A    between atoms: C_5  and  O_7
REMARK    3  A    between atoms: O_7  and  C_8
REMARK    4  A    between atoms: C_10  and  C_12
REMARK    5  A    between atoms: C_12  and  O_13
REMARK    6  A    between atoms: C_15  and  O_17
REMARK    7  A    between atoms: O_17  and  C_18
REMARK    8  A    between atoms: C_18  and  C_19
REMARK    9  A    between atoms: C_22  and  O_24
REMARK   10  A    between atoms: C_25  and  O_27
REMARK   11  A    between atoms: C_28  and  O_30
REMARK   12  A    between atoms: C_31  and  O_33
REMARK   13  A    between atoms: C_34  and  O_36
REMARK   14  A    between atoms: C_37  and  O_39
REMARK   15  A    between atoms: C_40  and  O_42
REMARK   16  A    between atoms: C_43  and  O_45
REMARK   17  A    between atoms: C_46  and  N_48
REMARK   18  A    between atoms: N_48  and  C_49
REMARK   19  A    between atoms: C_52  and  C_53
REMARK   20  A    between atoms: C_53  and  O_54
REMARK   21  A    between atoms: C_55  and  O_57
REMARK   22  A    between atoms: O_57  and  C_58
REMARK   23  A    between atoms: C_61  and  C_63
REMARK   24  A    between atoms: C_63  and  O_64
REMARK   25  A    between atoms: C_65  and  O_67
REMARK   26  A    between atoms: O_67  and  C_68
REMARK   27  A    between atoms: C_71  and  C_73
REMARK   28  A    between atoms: C_73  and  O_74
REMARK   29  A    between atoms: C_75  and  O_77
REMARK   30  A    between atoms: C_78  and  O_80
REMARK   31  A    between atoms: C_81  and  O_83
REMARK   32  A    between atoms: C_84  and  O_86
REMARK   33  A    between atoms: C_87  and  O_89
REMARK   34  A    between atoms: C_90  and  O_92
REMARK   35  A    between atoms: C_93  and  O_95
REMARK                            x       y       z     vdW  Elec       q    Type
REMARK                         _______ _______ _______ _____ _____    ______ ____
ROOT
ATOM      1  N   UNL     1       7.676  -3.289  26.134  0.00  0.00    -0.300 NA
ATOM      2  H   UNL     1       6.872  -3.051  26.718  0.00  0.00    +0.123 HD
ENDROOT
BRANCH   1   5
ATOM      3  C   UNL     1       8.973  -2.274  22.697  0.00  0.00    +0.039 C 
ATOM      4  C   UNL     1       9.142  -2.155  24.218  0.00  0.00    +0.138 C 
ATOM      5  C   UNL     1       7.795  -2.256  25.027  0.00  0.00    +0.114 C 
ATOM      6  C   UNL     1       7.367  -0.870  25.610  0.00  0.00    +0.167 C 
ATOM      7  C   UNL     1       8.488   0.119  25.944  0.00  0.00    +0.200 C 
ATOM      8  C   UNL     1       9.520   0.252  24.817  0.00  0.00    +0.282 C 
ATOM      9  O   UNL     1      10.011  -1.032  24.405  0.00  0.00    -0.344 OA
BRANCH   7  10
ATOM     10  O   UNL     1       9.175  -0.290  27.144  0.00  0.00    -0.384 OA
ATOM     11  H   UNL     1       9.775  -1.015  26.907  0.00  0.00    +0.210 HD
ENDBRANCH   7  10
BRANCH   6  12
ATOM     12  O   UNL     1       6.429  -0.228  24.735  0.00  0.00    -0.387 OA
ATOM     13  H   UNL     1       6.926   0.189  24.010  0.00  0.00    +0.210 HD
ENDBRANCH   6  12
BRANCH   8  14
ATOM     14  O   UNL     1       9.233   1.190  23.743  0.00  0.00    -0.340 OA
BRANCH  14  15
ATOM     15  C   UNL     1       8.726   2.531  24.107  0.00  0.00    +0.183 C 
ATOM     16  C   UNL     1       9.424   3.718  23.388  0.00  0.00    +0.179 C 
ATOM     17  C   UNL     1       8.766   5.087  23.655  0.00  0.00    +0.201 C 
ATOM     18  C   UNL     1       7.250   5.098  23.487  0.00  0.00    +0.282 C 
ATOM     19  O   UNL     1       6.640   3.988  24.158  0.00  0.00    -0.341 OA
ATOM     20  C   UNL     1       7.185   2.663  23.819  0.00  0.00    +0.178 C 
BRANCH  17  21
ATOM     21  O   UNL     1       9.361   6.053  22.764  0.00  0.00    -0.384 OA
ATOM     22  H   UNL     1      10.274   6.173  23.079  0.00  0.00    +0.210 HD
ENDBRANCH  17  21
BRANCH  16  23
ATOM     23  O   UNL     1      10.776   3.898  23.849  0.00  0.00    -0.386 OA
ATOM     24  H   UNL     1      11.373   3.724  23.095  0.00  0.00    +0.210 HD
ENDBRANCH  16  23
BRANCH  18  25
ATOM     25  O   UNL     1       6.700   6.418  23.732  0.00  0.00    -0.346 OA
BRANCH  25  26
ATOM     26  C   UNL     1       5.376   6.875  23.396  0.00  0.00    +0.197 C 
BRANCH  26  27
ATOM     27  C   UNL     1       4.107   6.114  23.952  0.00  0.00    +0.178 C 
ATOM     28  C   UNL     1       3.789   4.819  23.112  0.00  0.00    +0.177 C 
ATOM     29  C   UNL     1       2.665   3.981  23.762  0.00  0.00    +0.179 C 
ATOM     30  C   UNL     1       3.035   3.660  25.202  0.00  0.00    +0.201 C 
ATOM     31  C   UNL     1       3.358   4.966  25.943  0.00  0.00    +0.279 C 
ATOM     32  O   UNL     1       4.376   5.739  25.320  0.00  0.00    -0.341 OA
BRANCH  29  33
ATOM     33  O   UNL     1       2.428   2.742  23.081  0.00  0.00    -0.386 OA
ATOM     34  H   UNL     1       2.648   2.926  22.132  0.00  0.00    +0.210 HD
ENDBRANCH  29  33
BRANCH  30  35
ATOM     35  O   UNL     1       1.925   2.922  25.763  0.00  0.00    -0.384 OA
ATOM     36  H   UNL     1       1.450   2.491  25.032  0.00  0.00    +0.210 HD
ENDBRANCH  30  35
BRANCH  28  37
ATOM     37  O   UNL     1       3.455   5.150  21.760  0.00  0.00    -0.386 OA
ATOM     38  H   UNL     1       4.094   5.795  21.415  0.00  0.00    +0.210 HD
ENDBRANCH  28  37
BRANCH  31  39
ATOM     39  O   UNL     1       3.830   4.610  27.236  0.00  0.00    -0.365 OA
ATOM     40  H   UNL     1       4.726   4.984  27.281  0.00  0.00    +0.213 HD
ENDBRANCH  31  39
ENDBRANCH  26  27
ENDBRANCH  25  26
ENDBRANCH  18  25
BRANCH  20  41
ATOM     41  C   UNL     1       6.808   2.200  22.386  0.00  0.00    +0.190 C 
BRANCH  41  42
ATOM     42  O   UNL     1       6.861   0.780  22.254  0.00  0.00    -0.392 OA
ATOM     43  H   UNL     1       5.945   0.449  22.275  0.00  0.00    +0.210 HD
ENDBRANCH  41  42
ENDBRANCH  20  41
ENDBRANCH  14  15
ENDBRANCH   8  14
ENDBRANCH   1   5
BRANCH   1  44
ATOM     44  C   UNL     1       7.540  -4.740  25.812  0.00  0.00    +0.109 C 
ATOM     45  C   UNL     1       7.124  -5.060  24.341  0.00  0.00    +0.166 C 
ATOM     46  C   UNL     1       5.891  -5.955  24.062  0.00  0.00    +0.178 C 
ATOM     47  C   UNL     1       5.064  -6.437  25.271  0.00  0.00    +0.180 C 
ATOM     48  C   UNL     1       5.612  -6.237  26.624  0.00  0.00    -0.016 C 
ATOM     49  C   UNL     1       6.689  -5.432  26.849  0.00  0.00    -0.002 C 
BRANCH  45  50
ATOM     50  O   UNL     1       8.271  -5.624  23.652  0.00  0.00    -0.387 OA
ATOM     51  H   UNL     1       8.880  -5.987  24.315  0.00  0.00    +0.210 HD
ENDBRANCH  45  50
BRANCH  46  52
ATOM     52  O   UNL     1       5.037  -5.305  23.093  0.00  0.00    -0.386 OA
ATOM     53  H   UNL     1       5.308  -5.663  22.226  0.00  0.00    +0.210 HD
ENDBRANCH  46  52
BRANCH  47  54
ATOM     54  O   UNL     1       3.662  -6.100  25.211  0.00  0.00    -0.338 OA
BRANCH  54  55
ATOM     55  C   UNL     1       3.144  -5.029  26.012  0.00  0.00    +0.282 C 
ATOM     56  C   UNL     1       2.268  -4.216  25.047  0.00  0.00    +0.201 C 
ATOM     57  C   UNL     1       1.640  -3.009  25.737  0.00  0.00    +0.179 C 
ATOM     58  C   UNL     1       1.279  -3.144  27.235  0.00  0.00    +0.183 C 
ATOM     59  C   UNL     1       1.963  -4.346  27.957  0.00  0.00    +0.178 C 
ATOM     60  O   UNL     1       2.269  -5.441  27.059  0.00  0.00    -0.341 OA
BRANCH  56  61
ATOM     61  O   UNL     1       2.994  -3.741  23.894  0.00  0.00    -0.384 OA
ATOM     62  H   UNL     1       2.545  -4.071  23.096  0.00  0.00    +0.210 HD
ENDBRANCH  56  61
BRANCH  57  63
ATOM     63  O   UNL     1       0.443  -2.638  25.009  0.00  0.00    -0.386 OA
ATOM     64  H   UNL     1      -0.102  -2.137  25.653  0.00  0.00    +0.210 HD
ENDBRANCH  57  63
BRANCH  59  65
ATOM     65  C   UNL     1       1.031  -4.899  29.057  0.00  0.00    +0.190 C 
BRANCH  65  66
ATOM     66  O   UNL     1       1.189  -6.310  29.218  0.00  0.00    -0.392 OA
ATOM     67  H   UNL     1       0.561  -6.734  28.617  0.00  0.00    +0.210 HD
ENDBRANCH  65  66
ENDBRANCH  59  65
BRANCH  58  68
ATOM     68  O   UNL     1       1.321  -1.865  27.953  0.00  0.00    -0.340 OA
BRANCH  68  69
ATOM     69  C   UNL     1       2.046  -0.773  27.355  0.00  0.00    +0.282 C 
ATOM     70  C   UNL     1       3.602  -0.977  27.411  0.00  0.00    +0.201 C 
ATOM     71  C   UNL     1       4.297  -0.361  28.644  0.00  0.00    +0.179 C 
ATOM     72  C   UNL     1       3.745   1.044  28.925  0.00  0.00    +0.177 C 
ATOM     73  C   UNL     1       2.218   0.994  29.059  0.00  0.00    +0.178 C 
ATOM     74  O   UNL     1       1.634   0.502  27.836  0.00  0.00    -0.341 OA
BRANCH  72  75
ATOM     75  O   UNL     1       4.116   1.913  27.837  0.00  0.00    -0.386 OA
ATOM     76  H   UNL     1       4.447   1.345  27.118  0.00  0.00    +0.210 HD
ENDBRANCH  72  75
BRANCH  71  77
ATOM     77  O   UNL     1       4.196  -1.163  29.817  0.00  0.00    -0.386 OA
ATOM     78  H   UNL     1       4.498  -0.644  30.586  0.00  0.00    +0.210 HD
ENDBRANCH  71  77
BRANCH  70  79
ATOM     79  O   UNL     1       4.196  -0.391  26.230  0.00  0.00    -0.384 OA
ATOM     80  H   UNL     1       4.792   0.331  26.532  0.00  0.00    +0.210 HD
ENDBRANCH  70  79
BRANCH  73  81
ATOM     81  C   UNL     1       1.806   0.247  30.345  0.00  0.00    +0.190 C 
BRANCH  81  82
ATOM     82  O   UNL     1       0.443  -0.155  30.318  0.00  0.00    -0.392 OA
ATOM     83  H   UNL     1       0.463  -1.126  30.528  0.00  0.00    +0.210 HD
ENDBRANCH  81  82
ENDBRANCH  73  81
ENDBRANCH  68  69
ENDBRANCH  58  68
ENDBRANCH  54  55
ENDBRANCH  47  54
BRANCH  48  84
ATOM     84  C   UNL     1       4.868  -6.986  27.700  0.00  0.00    +0.189 C 
BRANCH  84  85
ATOM     85  O   UNL     1       5.809  -7.564  28.592  0.00  0.00    -0.391 OA
ATOM     86  H   UNL     1       6.693  -7.279  28.303  0.00  0.00    +0.210 HD
ENDBRANCH  84  85
ENDBRANCH  48  84
ENDBRANCH   1  44
TORSDOF 34
ENDMDL
MODEL 9
REMARK VINA RESULT:      -4.2      1.906      4.821
REMARK  Name = 
REMARK  35 active torsions:
REMARK  status: ('A' for Active; 'I' for Inactive)
REMARK    1  A    between atoms: C_1  and  C_2
REMARK    2  A    between atoms: C_5  and  O_7
REMARK    3  A    between atoms: O_7  and  C_8
REMARK    4  A    between atoms: C_10  and  C_12
REMARK    5  A    between atoms: C_12  and  O_13
REMARK    6  A    between atoms: C_15  and  O_17
REMARK    7  A    between atoms: O_17  and  C_18
REMARK    8  A    between atoms: C_18  and  C_19
REMARK    9  A    between atoms: C_22  and  O_24
REMARK   10  A    between atoms: C_25  and  O_27
REMARK   11  A    between atoms: C_28  and  O_30
REMARK   12  A    between atoms: C_31  and  O_33
REMARK   13  A    between atoms: C_34  and  O_36
REMARK   14  A    between atoms: C_37  and  O_39
REMARK   15  A    between atoms: C_40  and  O_42
REMARK   16  A    between atoms: C_43  and  O_45
REMARK   17  A    between atoms: C_46  and  N_48
REMARK   18  A    between atoms: N_48  and  C_49
REMARK   19  A    between atoms: C_52  and  C_53
REMARK   20  A    between atoms: C_53  and  O_54
REMARK   21  A    between atoms: C_55  and  O_57
REMARK   22  A    between atoms: O_57  and  C_58
REMARK   23  A    between atoms: C_61  and  C_63
REMARK   24  A    between atoms: C_63  and  O_64
REMARK   25  A    between atoms: C_65  and  O_67
REMARK   26  A    between atoms: O_67  and  C_68
REMARK   27  A    between atoms: C_71  and  C_73
REMARK   28  A    between atoms: C_73  and  O_74
REMARK   29  A    between atoms: C_75  and  O_77
REMARK   30  A    between atoms: C_78  and  O_80
REMARK   31  A    between atoms: C_81  and  O_83
REMARK   32  A    between atoms: C_84  and  O_86
REMARK   33  A    between atoms: C_87  and  O_89
REMARK   34  A    between atoms: C_90  and  O_92
REMARK   35  A    between atoms: C_93  and  O_95
REMARK                            x       y       z     vdW  Elec       q    Type
REMARK                         _______ _______ _______ _____ _____    ______ ____
ROOT
ATOM      1  N   UNL     1       7.082   7.084  25.561  0.00  0.00    -0.300 NA
ATOM      2  H   UNL     1       6.559   7.909  25.263  0.00  0.00    +0.123 HD
ENDROOT
BRANCH   1   5
ATOM      3  C   UNL     1       5.942   4.078  23.514  0.00  0.00    +0.039 C 
ATOM      4  C   UNL     1       6.952   4.628  24.531  0.00  0.00    +0.138 C 
ATOM      5  C   UNL     1       7.261   6.163  24.366  0.00  0.00    +0.114 C 
ATOM      6  C   UNL     1       8.691   6.404  23.781  0.00  0.00    +0.167 C 
ATOM      7  C   UNL     1       9.757   5.350  24.095  0.00  0.00    +0.200 C 
ATOM      8  C   UNL     1       9.263   3.916  23.863  0.00  0.00    +0.282 C 
ATOM      9  O   UNL     1       8.021   3.676  24.540  0.00  0.00    -0.344 OA
BRANCH   7  10
ATOM     10  O   UNL     1      10.186   5.467  25.466  0.00  0.00    -0.384 OA
ATOM     11  H   UNL     1      11.156   5.527  25.467  0.00  0.00    +0.210 HD
ENDBRANCH   7  10
BRANCH   6  12
ATOM     12  O   UNL     1       8.624   6.585  22.359  0.00  0.00    -0.387 OA
ATOM     13  H   UNL     1       8.415   7.519  22.180  0.00  0.00    +0.210 HD
ENDBRANCH   6  12
BRANCH   8  14
ATOM     14  O   UNL     1       9.359   3.377  22.515  0.00  0.00    -0.340 OA
BRANCH  14  15
ATOM     15  C   UNL     1       9.672   1.940  22.361  0.00  0.00    +0.183 C 
ATOM     16  C   UNL     1       9.749   1.135  23.687  0.00  0.00    +0.179 C 
ATOM     17  C   UNL     1       9.907  -0.386  23.488  0.00  0.00    +0.201 C 
ATOM     18  C   UNL     1       8.934  -0.992  22.481  0.00  0.00    +0.282 C 
ATOM     19  O   UNL     1       8.884  -0.222  21.273  0.00  0.00    -0.341 OA
ATOM     20  C   UNL     1       8.617   1.215  21.446  0.00  0.00    +0.178 C 
BRANCH  17  21
ATOM     21  O   UNL     1       9.740  -1.026  24.770  0.00  0.00    -0.384 OA
ATOM     22  H   UNL     1       8.795  -0.941  24.985  0.00  0.00    +0.210 HD
ENDBRANCH  17  21
BRANCH  16  23
ATOM     23  O   UNL     1      10.909   1.497  24.460  0.00  0.00    -0.386 OA
ATOM     24  H   UNL     1      11.636   1.685  23.834  0.00  0.00    +0.210 HD
ENDBRANCH  16  23
BRANCH  18  25
ATOM     25  O   UNL     1       9.123  -2.425  22.359  0.00  0.00    -0.346 OA
BRANCH  25  26
ATOM     26  C   UNL     1       8.177  -3.451  22.714  0.00  0.00    +0.197 C 
BRANCH  26  27
ATOM     27  C   UNL     1       7.831  -3.724  24.232  0.00  0.00    +0.178 C 
ATOM     28  C   UNL     1       6.759  -4.868  24.389  0.00  0.00    +0.177 C 
ATOM     29  C   UNL     1       6.557  -5.258  25.871  0.00  0.00    +0.179 C 
ATOM     30  C   UNL     1       7.896  -5.630  26.488  0.00  0.00    +0.201 C 
ATOM     31  C   UNL     1       8.890  -4.481  26.268  0.00  0.00    +0.279 C 
ATOM     32  O   UNL     1       9.048  -4.116  24.903  0.00  0.00    -0.341 OA
BRANCH  29  33
ATOM     33  O   UNL     1       5.669  -6.371  26.038  0.00  0.00    -0.386 OA
ATOM     34  H   UNL     1       4.997  -6.272  25.316  0.00  0.00    +0.210 HD
ENDBRANCH  29  33
BRANCH  30  35
ATOM     35  O   UNL     1       7.644  -5.935  27.879  0.00  0.00    -0.384 OA
ATOM     36  H   UNL     1       7.884  -6.865  28.032  0.00  0.00    +0.210 HD
ENDBRANCH  30  35
BRANCH  28  37
ATOM     37  O   UNL     1       5.514  -4.495  23.790  0.00  0.00    -0.386 OA
ATOM     38  H   UNL     1       5.427  -3.528  23.792  0.00  0.00    +0.210 HD
ENDBRANCH  28  37
BRANCH  31  39
ATOM     39  O   UNL     1      10.158  -4.926  26.734  0.00  0.00    -0.365 OA
ATOM     40  H   UNL     1      10.635  -4.111  26.964  0.00  0.00    +0.213 HD
ENDBRANCH  31  39
ENDBRANCH  26  27
ENDBRANCH  25  26
ENDBRANCH  18  25
BRANCH  20  41
ATOM     41  C   UNL     1       7.155   1.513  21.876  0.00  0.00    +0.190 C 
BRANCH  41  42
ATOM     42  O   UNL     1       6.610   0.463  22.674  0.00  0.00    -0.392 OA
ATOM     43  H   UNL     1       5.684   0.693  22.869  0.00  0.00    +0.210 HD
ENDBRANCH  41  42
ENDBRANCH  20  41
ENDBRANCH  14  15
ENDBRANCH   8  14
ENDBRANCH   1   5
BRANCH   1  44
ATOM     44  C   UNL     1       6.418   6.598  26.806  0.00  0.00    +0.109 C 
ATOM     45  C   UNL     1       7.052   5.321  27.445  0.00  0.00    +0.166 C 
ATOM     46  C   UNL     1       6.170   4.083  27.741  0.00  0.00    +0.178 C 
ATOM     47  C   UNL     1       4.690   4.135  27.311  0.00  0.00    +0.180 C 
ATOM     48  C   UNL     1       4.129   5.425  26.872  0.00  0.00    -0.016 C 
ATOM     49  C   UNL     1       4.926   6.498  26.602  0.00  0.00    -0.002 C 
BRANCH  45  50
ATOM     50  O   UNL     1       7.730   5.709  28.669  0.00  0.00    -0.387 OA
ATOM     51  H   UNL     1       8.648   5.941  28.452  0.00  0.00    +0.210 HD
ENDBRANCH  45  50
BRANCH  46  52
ATOM     52  O   UNL     1       6.809   2.901  27.206  0.00  0.00    -0.386 OA
ATOM     53  H   UNL     1       6.082   2.338  26.879  0.00  0.00    +0.210 HD
ENDBRANCH  46  52
BRANCH  47  54
ATOM     54  O   UNL     1       4.279   3.056  26.445  0.00  0.00    -0.338 OA
BRANCH  54  55
ATOM     55  C   UNL     1       4.278   1.705  26.928  0.00  0.00    +0.282 C 
ATOM     56  C   UNL     1       2.799   1.293  26.917  0.00  0.00    +0.201 C 
ATOM     57  C   UNL     1       2.607  -0.133  27.424  0.00  0.00    +0.179 C 
ATOM     58  C   UNL     1       3.732  -1.156  27.137  0.00  0.00    +0.183 C 
ATOM     59  C   UNL     1       5.093  -0.517  26.721  0.00  0.00    +0.178 C 
ATOM     60  O   UNL     1       4.936   0.771  26.076  0.00  0.00    -0.341 OA
BRANCH  56  61
ATOM     61  O   UNL     1       1.968   2.164  27.712  0.00  0.00    -0.384 OA
ATOM     62  H   UNL     1       1.995   3.053  27.317  0.00  0.00    +0.210 HD
ENDBRANCH  56  61
BRANCH  57  63
ATOM     63  O   UNL     1       1.368  -0.650  26.878  0.00  0.00    -0.386 OA
ATOM     64  H   UNL     1       1.290  -1.558  27.240  0.00  0.00    +0.210 HD
ENDBRANCH  57  63
BRANCH  59  65
ATOM     65  C   UNL     1       5.828  -1.444  25.729  0.00  0.00    +0.190 C 
BRANCH  65  66
ATOM     66  O   UNL     1       5.267  -1.359  24.418  0.00  0.00    -0.392 OA
ATOM     67  H   UNL     1       5.747  -0.663  23.950  0.00  0.00    +0.210 HD
ENDBRANCH  65  66
ENDBRANCH  59  65
BRANCH  58  68
ATOM     68  O   UNL     1       3.811  -2.219  28.145  0.00  0.00    -0.340 OA
BRANCH  68  69
ATOM     69  C   UNL     1       3.793  -3.587  27.692  0.00  0.00    +0.282 C 
ATOM     70  C   UNL     1       2.696  -3.850  26.600  0.00  0.00    +0.201 C 
ATOM     71  C   UNL     1       1.335  -4.333  27.145  0.00  0.00    +0.179 C 
ATOM     72  C   UNL     1       1.540  -5.401  28.229  0.00  0.00    +0.177 C 
ATOM     73  C   UNL     1       2.471  -4.868  29.325  0.00  0.00    +0.178 C 
ATOM     74  O   UNL     1       3.753  -4.530  28.759  0.00  0.00    -0.341 OA
BRANCH  72  75
ATOM     75  O   UNL     1       2.116  -6.573  27.622  0.00  0.00    -0.386 OA
ATOM     76  H   UNL     1       1.612  -6.748  26.806  0.00  0.00    +0.210 HD
ENDBRANCH  72  75
BRANCH  71  77
ATOM     77  O   UNL     1       0.516  -3.283  27.650  0.00  0.00    -0.386 OA
ATOM     78  H   UNL     1       0.757  -3.109  28.581  0.00  0.00    +0.210 HD
ENDBRANCH  71  77
BRANCH  70  79
ATOM     79  O   UNL     1       3.182  -4.849  25.675  0.00  0.00    -0.384 OA
ATOM     80  H   UNL     1       3.155  -5.714  26.142  0.00  0.00    +0.210 HD
ENDBRANCH  70  79
BRANCH  73  81
ATOM     81  C   UNL     1       1.780  -3.748  30.133  0.00  0.00    +0.190 C 
BRANCH  81  82
ATOM     82  O   UNL     1       0.445  -4.087  30.485  0.00  0.00    -0.392 OA
ATOM     83  H   UNL     1      -0.053  -4.069  29.625  0.00  0.00    +0.210 HD
ENDBRANCH  81  82
ENDBRANCH  73  81
ENDBRANCH  68  69
ENDBRANCH  58  68
ENDBRANCH  54  55
ENDBRANCH  47  54
BRANCH  48  84
ATOM     84  C   UNL     1       2.627   5.425  26.746  0.00  0.00    +0.189 C 
BRANCH  84  85
ATOM     85  O   UNL     1       2.064   4.964  27.965  0.00  0.00    -0.391 OA
ATOM     86  H   UNL     1       2.699   4.343  28.360  0.00  0.00    +0.210 HD
ENDBRANCH  84  85
ENDBRANCH  48  84
ENDBRANCH   1  44
TORSDOF 34
ENDMDL
