MODEL 1
REMARK VINA RESULT:      -4.2      0.000      0.000
REMARK  Name = 
REMARK  8 active torsions:
REMARK  status: ('A' for Active; 'I' for Inactive)
REMARK    1  A    between atoms: NZ_1  and  CE_2
REMARK    2  A    between atoms: CE_2  and  CD_3
REMARK    3  A    between atoms: CD_3  and  CG_4
REMARK    4  A    between atoms: CG_4  and  CB_5
REMARK    5  A    between atoms: CB_5  and  CA_6
REMARK    6  A    between atoms: CA_6  and  N_8
REMARK    7  A    between atoms: CA_6  and  C_9
REMARK    8  A    between atoms: C_9  and  O_10
REMARK                            x       y       z     vdW  Elec       q    Type
REMARK                         _______ _______ _______ _____ _____    ______ ____
ROOT
ATOM      1  CA  LYS A   1       9.156  -4.554  25.385  0.00  0.00    +0.161 C 
ENDROOT
BRANCH   1   2
ATOM      2  N   LYS A   1      10.001  -5.781  25.290  0.00  0.00    -0.318 NA
ATOM      3  H1  LYS A   1      10.955  -5.496  25.048  0.00  0.00    +0.119 HD
ATOM      4  H2  LYS A   1      10.094  -6.167  26.236  0.00  0.00    +0.119 HD
ENDBRANCH   1   2
BRANCH   1   5
ATOM      5  C   LYS A   1       8.228  -4.714  26.600  0.00  0.00    +0.322 C 
ATOM      6  OXT LYS A   1       7.565  -3.824  27.106  0.00  0.00    -0.249 OA
BRANCH   5   7
ATOM      7  O   LYS A   1       8.208  -6.006  27.030  0.00  0.00    -0.480 OA
ATOM      8  H   LYS A   1       7.546  -6.034  27.765  0.00  0.00    +0.295 HD
ENDBRANCH   5   7
ENDBRANCH   1   5
BRANCH   1   9
ATOM      9  CB  LYS A   1       8.292  -4.357  24.131  0.00  0.00    +0.030 C 
BRANCH   9  10
ATOM     10  CG  LYS A   1       8.496  -2.994  23.464  0.00  0.00    +0.003 C 
BRANCH  10  11
ATOM     11  CD  LYS A   1       9.892  -2.429  23.749  0.00  0.00    +0.015 C 
BRANCH  11  12
ATOM     12  CE  LYS A   1      10.224  -1.213  22.881  0.00  0.00    +0.077 C 
BRANCH  12  13
ATOM     13  NZ  LYS A   1      10.052  -1.500  21.462  0.00  0.00    -0.330 NA
ATOM     14  HZ1 LYS A   1      10.832  -2.068  21.131  0.00  0.00    +0.118 HD
ATOM     15  HZ2 LYS A   1       9.214  -2.067  21.331  0.00  0.00    +0.118 HD
ENDBRANCH  12  13
ENDBRANCH  11  12
ENDBRANCH  10  11
ENDBRANCH   9  10
ENDBRANCH   1   9
TORSDOF 8
ENDMDL
MODEL 2
REMARK VINA RESULT:      -4.2      4.070      5.023
REMARK  Name = 
REMARK  8 active torsions:
REMARK  status: ('A' for Active; 'I' for Inactive)
REMARK    1  A    between atoms: NZ_1  and  CE_2
REMARK    2  A    between atoms: CE_2  and  CD_3
REMARK    3  A    between atoms: CD_3  and  CG_4
REMARK    4  A    between atoms: CG_4  and  CB_5
REMARK    5  A    between atoms: CB_5  and  CA_6
REMARK    6  A    between atoms: CA_6  and  N_8
REMARK    7  A    between atoms: CA_6  and  C_9
REMARK    8  A    between atoms: C_9  and  O_10
REMARK                            x       y       z     vdW  Elec       q    Type
REMARK                         _______ _______ _______ _____ _____    ______ ____
ROOT
ATOM      1  CA  LYS A   1       8.924  -0.804  23.468  0.00  0.00    +0.161 C 
ENDROOT
BRANCH   1   2
ATOM      2  N   LYS A   1       7.831  -1.799  23.679  0.00  0.00    -0.318 NA
ATOM      3  H1  LYS A   1       7.002  -1.480  23.169  0.00  0.00    +0.119 HD
ATOM      4  H2  LYS A   1       8.100  -2.662  23.192  0.00  0.00    +0.119 HD
ENDBRANCH   1   2
BRANCH   1   5
ATOM      5  C   LYS A   1       9.909  -1.394  22.447  0.00  0.00    +0.322 C 
ATOM      6  OXT LYS A   1      10.697  -2.298  22.666  0.00  0.00    -0.249 OA
BRANCH   5   7
ATOM      7  O   LYS A   1       9.766  -0.795  21.232  0.00  0.00    -0.480 OA
ATOM      8  H   LYS A   1       8.816  -0.918  20.982  0.00  0.00    +0.295 HD
ENDBRANCH   5   7
ENDBRANCH   1   5
BRANCH   1   9
ATOM      9  CB  LYS A   1       9.685  -0.508  24.769  0.00  0.00    +0.030 C 
BRANCH   9  10
ATOM     10  CG  LYS A   1      10.607   0.710  24.666  0.00  0.00    +0.003 C 
BRANCH  10  11
ATOM     11  CD  LYS A   1       9.846   1.958  24.203  0.00  0.00    +0.015 C 
BRANCH  11  12
ATOM     12  CE  LYS A   1      10.536   2.669  23.037  0.00  0.00    +0.077 C 
BRANCH  12  13
ATOM     13  NZ  LYS A   1      10.039   2.200  21.748  0.00  0.00    -0.330 NA
ATOM     14  HZ1 LYS A   1      10.643   2.544  21.003  0.00  0.00    +0.118 HD
ATOM     15  HZ2 LYS A   1      10.097   1.182  21.715  0.00  0.00    +0.118 HD
ENDBRANCH  12  13
ENDBRANCH  11  12
ENDBRANCH  10  11
ENDBRANCH   9  10
ENDBRANCH   1   9
TORSDOF 8
ENDMDL
MODEL 3
REMARK VINA RESULT:      -4.1      2.881      4.073
REMARK  Name = 
REMARK  8 active torsions:
REMARK  status: ('A' for Active; 'I' for Inactive)
REMARK    1  A    between atoms: NZ_1  and  CE_2
REMARK    2  A    between atoms: CE_2  and  CD_3
REMARK    3  A    between atoms: CD_3  and  CG_4
REMARK    4  A    between atoms: CG_4  and  CB_5
REMARK    5  A    between atoms: CB_5  and  CA_6
REMARK    6  A    between atoms: CA_6  and  N_8
REMARK    7  A    between atoms: CA_6  and  C_9
REMARK    8  A    between atoms: C_9  and  O_10
REMARK                            x       y       z     vdW  Elec       q    Type
REMARK                         _______ _______ _______ _____ _____    ______ ____
ROOT
ATOM      1  CA  LYS A   1      10.177  -1.682  23.307  0.00  0.00    +0.161 C 
ENDROOT
BRANCH   1   2
ATOM      2  N   LYS A   1      10.145  -1.451  21.832  0.00  0.00    -0.318 NA
ATOM      3  H1  LYS A   1      10.039  -2.357  21.367  0.00  0.00    +0.119 HD
ATOM      4  H2  LYS A   1       9.270  -0.961  21.614  0.00  0.00    +0.119 HD
ENDBRANCH   1   2
BRANCH   1   5
ATOM      5  C   LYS A   1       9.264  -2.879  23.616  0.00  0.00    +0.322 C 
ATOM      6  OXT LYS A   1       8.119  -3.016  23.219  0.00  0.00    -0.249 OA
BRANCH   5   7
ATOM      7  O   LYS A   1       9.915  -3.804  24.375  0.00  0.00    -0.480 OA
ATOM      8  H   LYS A   1       9.255  -4.113  25.045  0.00  0.00    +0.295 HD
ENDBRANCH   5   7
ENDBRANCH   1   5
BRANCH   1   9
ATOM      9  CB  LYS A   1       9.667  -0.462  24.088  0.00  0.00    +0.030 C 
BRANCH   9  10
ATOM     10  CG  LYS A   1      10.781   0.508  24.490  0.00  0.00    +0.003 C 
BRANCH  10  11
ATOM     11  CD  LYS A   1      10.573   1.896  23.875  0.00  0.00    +0.015 C 
BRANCH  11  12
ATOM     12  CE  LYS A   1       9.392   1.936  22.902  0.00  0.00    +0.077 C 
BRANCH  12  13
ATOM     13  NZ  LYS A   1       9.837   1.945  21.513  0.00  0.00    -0.330 NA
ATOM     14  HZ1 LYS A   1       9.205   2.518  20.955  0.00  0.00    +0.118 HD
ATOM     15  HZ2 LYS A   1      10.752   2.394  21.455  0.00  0.00    +0.118 HD
ENDBRANCH  12  13
ENDBRANCH  11  12
ENDBRANCH  10  11
ENDBRANCH   9  10
ENDBRANCH   1   9
TORSDOF 8
ENDMDL
MODEL 4
REMARK VINA RESULT:      -4.1      5.055      6.616
REMARK  Name = 
REMARK  8 active torsions:
REMARK  status: ('A' for Active; 'I' for Inactive)
REMARK    1  A    between atoms: NZ_1  and  CE_2
REMARK    2  A    between atoms: CE_2  and  CD_3
REMARK    3  A    between atoms: CD_3  and  CG_4
REMARK    4  A    between atoms: CG_4  and  CB_5
REMARK    5  A    between atoms: CB_5  and  CA_6
REMARK    6  A    between atoms: CA_6  and  N_8
REMARK    7  A    between atoms: CA_6  and  C_9
REMARK    8  A    between atoms: C_9  and  O_10
REMARK                            x       y       z     vdW  Elec       q    Type
REMARK                         _______ _______ _______ _____ _____    ______ ____
ROOT
ATOM      1  CA  LYS A   1       9.516   1.879  23.065  0.00  0.00    +0.161 C 
ENDROOT
BRANCH   1   2
ATOM      2  N   LYS A   1       9.975   1.982  21.648  0.00  0.00    -0.318 NA
ATOM      3  H1  LYS A   1      10.892   2.438  21.640  0.00  0.00    +0.119 HD
ATOM      4  H2  LYS A   1      10.173   1.031  21.317  0.00  0.00    +0.119 HD
ENDBRANCH   1   2
BRANCH   1   5
ATOM      5  C   LYS A   1       8.964   3.251  23.482  0.00  0.00    +0.322 C 
ATOM      6  OXT LYS A   1       9.011   3.720  24.607  0.00  0.00    -0.249 OA
BRANCH   5   7
ATOM      7  O   LYS A   1       8.437   3.909  22.413  0.00  0.00    -0.480 OA
ATOM      8  H   LYS A   1       7.899   4.649  22.792  0.00  0.00    +0.295 HD
ENDBRANCH   5   7
ENDBRANCH   1   5
BRANCH   1   9
ATOM      9  CB  LYS A   1      10.665   1.504  24.013  0.00  0.00    +0.030 C 
BRANCH   9  10
ATOM     10  CG  LYS A   1      10.476   0.141  24.683  0.00  0.00    +0.003 C 
BRANCH  10  11
ATOM     11  CD  LYS A   1       9.484  -0.736  23.911  0.00  0.00    +0.015 C 
BRANCH  11  12
ATOM     12  CE  LYS A   1      10.179  -1.773  23.025  0.00  0.00    +0.077 C 
BRANCH  12  13
ATOM     13  NZ  LYS A   1      10.142  -1.392  21.618  0.00  0.00    -0.330 NA
ATOM     14  HZ1 LYS A   1       9.601  -0.535  21.509  0.00  0.00    +0.118 HD
ATOM     15  HZ2 LYS A   1      11.087  -1.172  21.303  0.00  0.00    +0.118 HD
ENDBRANCH  12  13
ENDBRANCH  11  12
ENDBRANCH  10  11
ENDBRANCH   9  10
ENDBRANCH   1   9
TORSDOF 8
ENDMDL
MODEL 5
REMARK VINA RESULT:      -4.0      2.355      3.084
REMARK  Name = 
REMARK  8 active torsions:
REMARK  status: ('A' for Active; 'I' for Inactive)
REMARK    1  A    between atoms: NZ_1  and  CE_2
REMARK    2  A    between atoms: CE_2  and  CD_3
REMARK    3  A    between atoms: CD_3  and  CG_4
REMARK    4  A    between atoms: CG_4  and  CB_5
REMARK    5  A    between atoms: CB_5  and  CA_6
REMARK    6  A    between atoms: CA_6  and  N_8
REMARK    7  A    between atoms: CA_6  and  C_9
REMARK    8  A    between atoms: C_9  and  O_10
REMARK                            x       y       z     vdW  Elec       q    Type
REMARK                         _______ _______ _______ _____ _____    ______ ____
ROOT
ATOM      1  CA  LYS A   1       9.041  -4.687  25.193  0.00  0.00    +0.161 C 
ENDROOT
BRANCH   1   2
ATOM      2  N   LYS A   1      10.176  -5.641  25.373  0.00  0.00    -0.318 NA
ATOM      3  H1  LYS A   1      10.940  -5.146  25.841  0.00  0.00    +0.119 HD
ATOM      4  H2  LYS A   1       9.883  -6.344  26.060  0.00  0.00    +0.119 HD
ENDBRANCH   1   2
BRANCH   1   5
ATOM      5  C   LYS A   1       8.193  -4.716  26.474  0.00  0.00    +0.322 C 
ATOM      6  OXT LYS A   1       7.533  -3.786  26.906  0.00  0.00    -0.249 OA
BRANCH   5   7
ATOM      7  O   LYS A   1       8.242  -5.944  27.061  0.00  0.00    -0.480 OA
ATOM      8  H   LYS A   1       9.191  -6.222  27.022  0.00  0.00    +0.295 HD
ENDBRANCH   5   7
ENDBRANCH   1   5
BRANCH   1   9
ATOM      9  CB  LYS A   1       8.149  -5.078  24.005  0.00  0.00    +0.030 C 
BRANCH   9  10
ATOM     10  CG  LYS A   1       7.709  -3.880  23.159  0.00  0.00    +0.003 C 
BRANCH  10  11
ATOM     11  CD  LYS A   1       6.894  -4.320  21.938  0.00  0.00    +0.015 C 
BRANCH  11  12
ATOM     12  CE  LYS A   1       6.990  -5.825  21.677  0.00  0.00    +0.077 C 
BRANCH  12  13
ATOM     13  NZ  LYS A   1       5.678  -6.462  21.706  0.00  0.00    -0.330 NA
ATOM     14  HZ1 LYS A   1       4.970  -5.775  21.963  0.00  0.00    +0.118 HD
ATOM     15  HZ2 LYS A   1       5.438  -6.780  20.767  0.00  0.00    +0.118 HD
ENDBRANCH  12  13
ENDBRANCH  11  12
ENDBRANCH  10  11
ENDBRANCH   9  10
ENDBRANCH   1   9
TORSDOF 8
ENDMDL
MODEL 6
REMARK VINA RESULT:      -4.0      1.999      2.301
REMARK  Name = 
REMARK  8 active torsions:
REMARK  status: ('A' for Active; 'I' for Inactive)
REMARK    1  A    between atoms: NZ_1  and  CE_2
REMARK    2  A    between atoms: CE_2  and  CD_3
REMARK    3  A    between atoms: CD_3  and  CG_4
REMARK    4  A    between atoms: CG_4  and  CB_5
REMARK    5  A    between atoms: CB_5  and  CA_6
REMARK    6  A    between atoms: CA_6  and  N_8
REMARK    7  A    between atoms: CA_6  and  C_9
REMARK    8  A    between atoms: C_9  and  O_10
REMARK                            x       y       z     vdW  Elec       q    Type
REMARK                         _______ _______ _______ _____ _____    ______ ____
ROOT
ATOM      1  CA  LYS A   1       8.048  -4.796  26.031  0.00  0.00    +0.161 C 
ENDROOT
BRANCH   1   2
ATOM      2  N   LYS A   1       8.166  -5.696  27.216  0.00  0.00    -0.318 NA
ATOM      3  H1  LYS A   1       8.279  -6.657  26.880  0.00  0.00    +0.119 HD
ATOM      4  H2  LYS A   1       9.062  -5.491  27.673  0.00  0.00    +0.119 HD
ENDBRANCH   1   2
BRANCH   1   5
ATOM      5  C   LYS A   1       8.972  -5.342  24.931  0.00  0.00    +0.322 C 
ATOM      6  OXT LYS A   1       8.663  -5.501  23.761  0.00  0.00    -0.249 OA
BRANCH   5   7
ATOM      7  O   LYS A   1      10.215  -5.600  25.423  0.00  0.00    -0.480 OA
ATOM      8  H   LYS A   1      10.416  -6.536  25.169  0.00  0.00    +0.295 HD
ENDBRANCH   5   7
ENDBRANCH   1   5
BRANCH   1   9
ATOM      9  CB  LYS A   1       8.475  -3.359  26.360  0.00  0.00    +0.030 C 
BRANCH   9  10
ATOM     10  CG  LYS A   1       8.094  -2.350  25.273  0.00  0.00    +0.003 C 
BRANCH  10  11
ATOM     11  CD  LYS A   1       9.332  -1.686  24.660  0.00  0.00    +0.015 C 
BRANCH  11  12
ATOM     12  CE  LYS A   1       9.522  -2.043  23.184  0.00  0.00    +0.077 C 
BRANCH  12  13
ATOM     13  NZ  LYS A   1       8.320  -2.639  22.614  0.00  0.00    -0.330 NA
ATOM     14  HZ1 LYS A   1       7.597  -1.926  22.518  0.00  0.00    +0.118 HD
ATOM     15  HZ2 LYS A   1       8.521  -2.967  21.669  0.00  0.00    +0.118 HD
ENDBRANCH  12  13
ENDBRANCH  11  12
ENDBRANCH  10  11
ENDBRANCH   9  10
ENDBRANCH   1   9
TORSDOF 8
ENDMDL
MODEL 7
REMARK VINA RESULT:      -3.9      4.189      6.083
REMARK  Name = 
REMARK  8 active torsions:
REMARK  status: ('A' for Active; 'I' for Inactive)
REMARK    1  A    between atoms: NZ_1  and  CE_2
REMARK    2  A    between atoms: CE_2  and  CD_3
REMARK    3  A    between atoms: CD_3  and  CG_4
REMARK    4  A    between atoms: CG_4  and  CB_5
REMARK    5  A    between atoms: CB_5  and  CA_6
REMARK    6  A    between atoms: CA_6  and  N_8
REMARK    7  A    between atoms: CA_6  and  C_9
REMARK    8  A    between atoms: C_9  and  O_10
REMARK                            x       y       z     vdW  Elec       q    Type
REMARK                         _______ _______ _______ _____ _____    ______ ____
ROOT
ATOM      1  CA  LYS A   1       9.917   2.416  23.197  0.00  0.00    +0.161 C 
ENDROOT
BRANCH   1   2
ATOM      2  N   LYS A   1      10.879   3.553  23.297  0.00  0.00    -0.318 NA
ATOM      3  H1  LYS A   1      10.443   4.382  22.883  0.00  0.00    +0.119 HD
ATOM      4  H2  LYS A   1      10.970   3.796  24.290  0.00  0.00    +0.119 HD
ENDBRANCH   1   2
BRANCH   1   5
ATOM      5  C   LYS A   1      10.221   1.439  24.343  0.00  0.00    +0.322 C 
ATOM      6  OXT LYS A   1      11.215   0.737  24.429  0.00  0.00    -0.249 OA
BRANCH   5   7
ATOM      7  O   LYS A   1       9.241   1.477  25.288  0.00  0.00    -0.480 OA
ATOM      8  H   LYS A   1       9.516   0.832  25.986  0.00  0.00    +0.295 HD
ENDBRANCH   5   7
ENDBRANCH   1   5
BRANCH   1   9
ATOM      9  CB  LYS A   1      10.055   1.667  21.863  0.00  0.00    +0.030 C 
BRANCH   9  10
ATOM     10  CG  LYS A   1       8.926   0.663  21.614  0.00  0.00    +0.003 C 
BRANCH  10  11
ATOM     11  CD  LYS A   1       9.465  -0.759  21.425  0.00  0.00    +0.015 C 
BRANCH  11  12
ATOM     12  CE  LYS A   1       9.017  -1.711  22.537  0.00  0.00    +0.077 C 
BRANCH  12  13
ATOM     13  NZ  LYS A   1      10.125  -2.079  23.412  0.00  0.00    -0.330 NA
ATOM     14  HZ1 LYS A   1       9.843  -1.968  24.385  0.00  0.00    +0.118 HD
ATOM     15  HZ2 LYS A   1      10.337  -3.069  23.289  0.00  0.00    +0.118 HD
ENDBRANCH  12  13
ENDBRANCH  11  12
ENDBRANCH  10  11
ENDBRANCH   9  10
ENDBRANCH   1   9
TORSDOF 8
ENDMDL
MODEL 8
REMARK VINA RESULT:      -3.9      3.618      4.827
REMARK  Name = 
REMARK  8 active torsions:
REMARK  status: ('A' for Active; 'I' for Inactive)
REMARK    1  A    between atoms: NZ_1  and  CE_2
REMARK    2  A    between atoms: CE_2  and  CD_3
REMARK    3  A    between atoms: CD_3  and  CG_4
REMARK    4  A    between atoms: CG_4  and  CB_5
REMARK    5  A    between atoms: CB_5  and  CA_6
REMARK    6  A    between atoms: CA_6  and  N_8
REMARK    7  A    between atoms: CA_6  and  C_9
REMARK    8  A    between atoms: C_9  and  O_10
REMARK                            x       y       z     vdW  Elec       q    Type
REMARK                         _______ _______ _______ _____ _____    ______ ____
ROOT
ATOM      1  CA  LYS A   1       8.873  -1.314  22.591  0.00  0.00    +0.161 C 
ENDROOT
BRANCH   1   2
ATOM      2  N   LYS A   1       7.761  -0.570  23.254  0.00  0.00    -0.318 NA
ATOM      3  H1  LYS A   1       7.859  -0.681  24.267  0.00  0.00    +0.119 HD
ATOM      4  H2  LYS A   1       7.925   0.432  23.101  0.00  0.00    +0.119 HD
ENDBRANCH   1   2
BRANCH   1   5
ATOM      5  C   LYS A   1       9.804  -1.848  23.691  0.00  0.00    +0.322 C 
ATOM      6  OXT LYS A   1      10.194  -2.999  23.790  0.00  0.00    -0.249 OA
BRANCH   5   7
ATOM      7  O   LYS A   1      10.177  -0.850  24.539  0.00  0.00    -0.480 OA
ATOM      8  H   LYS A   1       9.883  -0.008  24.109  0.00  0.00    +0.295 HD
ENDBRANCH   5   7
ENDBRANCH   1   5
BRANCH   1   9
ATOM      9  CB  LYS A   1       9.689  -0.408  21.656  0.00  0.00    +0.030 C 
BRANCH   9  10
ATOM     10  CG  LYS A   1       9.205   1.044  21.647  0.00  0.00    +0.003 C 
BRANCH  10  11
ATOM     11  CD  LYS A   1      10.181   1.970  22.380  0.00  0.00    +0.015 C 
BRANCH  11  12
ATOM     12  CE  LYS A   1       9.526   2.709  23.550  0.00  0.00    +0.077 C 
BRANCH  12  13
ATOM     13  NZ  LYS A   1       9.441   1.870  24.739  0.00  0.00    -0.330 NA
ATOM     14  HZ1 LYS A   1       9.598   0.895  24.482  0.00  0.00    +0.118 HD
ATOM     15  HZ2 LYS A   1      10.195   2.118  25.381  0.00  0.00    +0.118 HD
ENDBRANCH  12  13
ENDBRANCH  11  12
ENDBRANCH  10  11
ENDBRANCH   9  10
ENDBRANCH   1   9
TORSDOF 8
ENDMDL
MODEL 9
REMARK VINA RESULT:      -3.9      4.344      5.894
REMARK  Name = 
REMARK  8 active torsions:
REMARK  status: ('A' for Active; 'I' for Inactive)
REMARK    1  A    between atoms: NZ_1  and  CE_2
REMARK    2  A    between atoms: CE_2  and  CD_3
REMARK    3  A    between atoms: CD_3  and  CG_4
REMARK    4  A    between atoms: CG_4  and  CB_5
REMARK    5  A    between atoms: CB_5  and  CA_6
REMARK    6  A    between atoms: CA_6  and  N_8
REMARK    7  A    between atoms: CA_6  and  C_9
REMARK    8  A    between atoms: C_9  and  O_10
REMARK                            x       y       z     vdW  Elec       q    Type
REMARK                         _______ _______ _______ _____ _____    ______ ____
ROOT
ATOM      1  CA  LYS A   1       9.559   1.210  23.539  0.00  0.00    +0.161 C 
ENDROOT
BRANCH   1   2
ATOM      2  N   LYS A   1       8.104   0.985  23.788  0.00  0.00    -0.318 NA
ATOM      3  H1  LYS A   1       7.995   0.088  24.270  0.00  0.00    +0.119 HD
ATOM      4  H2  LYS A   1       7.799   1.675  24.484  0.00  0.00    +0.119 HD
ENDBRANCH   1   2
BRANCH   1   5
ATOM      5  C   LYS A   1       9.792   1.150  22.021  0.00  0.00    +0.322 C 
ATOM      6  OXT LYS A   1       9.556   0.191  21.306  0.00  0.00    -0.249 OA
BRANCH   5   7
ATOM      7  O   LYS A   1      10.271   2.337  21.556  0.00  0.00    -0.480 OA
ATOM      8  H   LYS A   1      10.806   2.114  20.753  0.00  0.00    +0.295 HD
ENDBRANCH   5   7
ENDBRANCH   1   5
BRANCH   1   9
ATOM      9  CB  LYS A   1      10.426   0.134  24.210  0.00  0.00    +0.030 C 
BRANCH   9  10
ATOM     10  CG  LYS A   1       9.620  -1.071  24.703  0.00  0.00    +0.003 C 
BRANCH  10  11
ATOM     11  CD  LYS A   1       9.831  -2.296  23.807  0.00  0.00    +0.015 C 
BRANCH  11  12
ATOM     12  CE  LYS A   1       8.516  -2.869  23.274  0.00  0.00    +0.077 C 
BRANCH  12  13
ATOM     13  NZ  LYS A   1       7.759  -1.875  22.522  0.00  0.00    -0.330 NA
ATOM     14  HZ1 LYS A   1       8.177  -1.753  21.600  0.00  0.00    +0.118 HD
ATOM     15  HZ2 LYS A   1       6.813  -2.221  22.362  0.00  0.00    +0.118 HD
ENDBRANCH  12  13
ENDBRANCH  11  12
ENDBRANCH  10  11
ENDBRANCH   9  10
ENDBRANCH   1   9
TORSDOF 8
ENDMDL
