MODEL 1
REMARK VINA RESULT:      -6.8      0.000      0.000
REMARK  Name = 
REMARK  6 active torsions:
REMARK  status: ('A' for Active; 'I' for Inactive)
REMARK    1  A    between atoms: C_1  and  C_2
REMARK    2  A    between atoms: C_2  and  N_3
REMARK    3  A    between atoms: C_5  and  C_6
REMARK    4  A    between atoms: C_6  and  O_7
REMARK    5  A    between atoms: C_15  and  N_18
REMARK    6  A    between atoms: N_21  and  C_22
REMARK                            x       y       z     vdW  Elec       q    Type
REMARK                         _______ _______ _______ _____ _____    ______ ____
ROOT
ATOM      1  N   UNL     1       8.141  -0.917  25.754  0.00  0.00    -0.346 N 
ATOM      2  C   UNL     1       8.759  -0.083  24.793  0.00  0.00    +0.055 A 
ATOM      3  C   UNL     1       9.589  -0.646  23.810  0.00  0.00    +0.049 A 
ATOM      4  C   UNL     1      10.189   0.144  22.827  0.00  0.00    +0.054 A 
ATOM      5  C   UNL     1       9.938   1.515  22.796  0.00  0.00    +0.145 A 
ATOM      6  C   UNL     1       9.119   2.148  23.747  0.00  0.00    +0.067 A 
ATOM      7  F   UNL     1      10.484   2.207  21.785  0.00  0.00    -0.204 F 
ATOM      8  C   UNL     1       9.814  -2.111  23.795  0.00  0.00    +0.203 A 
ATOM      9  O   UNL     1      10.565  -2.641  22.979  0.00  0.00    -0.286 OA
ATOM     10  C   UNL     1       9.089  -2.938  24.778  0.00  0.00    +0.122 A 
ATOM     11  C   UNL     1       8.584   1.312  24.750  0.00  0.00    +0.052 A 
ATOM     12  C   UNL     1       8.320  -2.290  25.665  0.00  0.00    +0.105 A 
ENDROOT
BRANCH   6  13
ATOM     13  N   UNL     1       8.849   3.507  23.768  0.00  0.00    -0.325 N 
ATOM     14  C   UNL     1       7.510   4.062  23.511  0.00  0.00    +0.120 C 
ATOM     15  C   UNL     1       7.636   5.319  22.608  0.00  0.00    +0.103 C 
ATOM     16  N   UNL     1       8.602   6.353  23.053  0.00  0.00    -0.302 NA
ATOM     17  C   UNL     1       8.089   7.108  24.192  0.00  0.00    +0.105 C 
ATOM     18  C   UNL     1       9.895   5.705  23.370  0.00  0.00    +0.103 C 
ATOM     19  C   UNL     1       9.794   4.492  24.325  0.00  0.00    +0.120 C 
ENDBRANCH   6  13
BRANCH   1  21
ATOM     20  C   UNL     1       5.740  -0.680  26.307  0.00  0.00    +0.027 C 
ATOM     21  C   UNL     1       7.171  -0.347  26.711  0.00  0.00    +0.118 C 
ENDBRANCH   1  21
BRANCH  10  22
ATOM     22  C   UNL     1       9.150  -4.413  24.818  0.00  0.00    +0.342 C 
ATOM     23  O   UNL     1       8.156  -5.126  24.803  0.00  0.00    -0.245 OA
BRANCH  22  24
ATOM     24  O   UNL     1      10.400  -4.919  24.854  0.00  0.00    -0.477 OA
ATOM     25  H   UNL     1      10.749  -5.195  23.971  0.00  0.00    +0.295 HD
ENDBRANCH  22  24
ENDBRANCH  10  22
TORSDOF 4
ENDMDL
MODEL 2
REMARK VINA RESULT:      -6.7      1.294      1.719
REMARK  Name = 
REMARK  6 active torsions:
REMARK  status: ('A' for Active; 'I' for Inactive)
REMARK    1  A    between atoms: C_1  and  C_2
REMARK    2  A    between atoms: C_2  and  N_3
REMARK    3  A    between atoms: C_5  and  C_6
REMARK    4  A    between atoms: C_6  and  O_7
REMARK    5  A    between atoms: C_15  and  N_18
REMARK    6  A    between atoms: N_21  and  C_22
REMARK                            x       y       z     vdW  Elec       q    Type
REMARK                         _______ _______ _______ _____ _____    ______ ____
ROOT
ATOM      1  N   UNL     1       7.691  -1.328  26.176  0.00  0.00    -0.346 N 
ATOM      2  C   UNL     1       8.285  -0.716  25.047  0.00  0.00    +0.055 A 
ATOM      3  C   UNL     1       9.171  -1.450  24.240  0.00  0.00    +0.049 A 
ATOM      4  C   UNL     1       9.750  -0.887  23.101  0.00  0.00    +0.054 A 
ATOM      5  C   UNL     1       9.422   0.417  22.733  0.00  0.00    +0.145 A 
ATOM      6  C   UNL     1       8.545   1.211  23.492  0.00  0.00    +0.067 A 
ATOM      7  F   UNL     1       9.954   0.875  21.590  0.00  0.00    -0.204 F 
ATOM      8  C   UNL     1       9.479  -2.857  24.586  0.00  0.00    +0.203 A 
ATOM      9  O   UNL     1      10.279  -3.524  23.933  0.00  0.00    -0.286 OA
ATOM     10  C   UNL     1       8.777  -3.463  25.733  0.00  0.00    +0.122 A 
ATOM     11  C   UNL     1       8.032   0.613  24.663  0.00  0.00    +0.052 A 
ATOM     12  C   UNL     1       7.949  -2.668  26.427  0.00  0.00    +0.105 A 
ENDROOT
BRANCH   6  13
ATOM     13  N   UNL     1       8.197   2.515  23.177  0.00  0.00    -0.325 N 
ATOM     14  C   UNL     1       8.926   3.686  23.693  0.00  0.00    +0.120 C 
ATOM     15  C   UNL     1       7.909   4.785  24.108  0.00  0.00    +0.103 C 
ATOM     16  N   UNL     1       6.889   5.152  23.095  0.00  0.00    -0.302 NA
ATOM     17  C   UNL     1       7.467   5.960  22.025  0.00  0.00    +0.105 C 
ATOM     18  C   UNL     1       6.264   3.919  22.567  0.00  0.00    +0.103 C 
ATOM     19  C   UNL     1       7.263   2.842  22.085  0.00  0.00    +0.120 C 
ENDBRANCH   6  13
BRANCH   1  21
ATOM     20  C   UNL     1       5.283  -1.204  26.735  0.00  0.00    +0.027 C 
ATOM     21  C   UNL     1       6.666  -0.603  26.954  0.00  0.00    +0.118 C 
ENDBRANCH   1  21
BRANCH  10  22
ATOM     22  C   UNL     1       8.921  -4.878  26.133  0.00  0.00    +0.342 C 
ATOM     23  O   UNL     1       8.024  -5.520  26.663  0.00  0.00    -0.245 OA
BRANCH  22  24
ATOM     24  O   UNL     1      10.124  -5.418  25.849  0.00  0.00    -0.477 OA
ATOM     25  H   UNL     1      10.820  -5.229  26.526  0.00  0.00    +0.295 HD
ENDBRANCH  22  24
ENDBRANCH  10  22
TORSDOF 4
ENDMDL
MODEL 3
REMARK VINA RESULT:      -6.6      3.617      7.353
REMARK  Name = 
REMARK  6 active torsions:
REMARK  status: ('A' for Active; 'I' for Inactive)
REMARK    1  A    between atoms: C_1  and  C_2
REMARK    2  A    between atoms: C_2  and  N_3
REMARK    3  A    between atoms: C_5  and  C_6
REMARK    4  A    between atoms: C_6  and  O_7
REMARK    5  A    between atoms: C_15  and  N_18
REMARK    6  A    between atoms: N_21  and  C_22
REMARK                            x       y       z     vdW  Elec       q    Type
REMARK                         _______ _______ _______ _____ _____    ______ ____
ROOT
ATOM      1  N   UNL     1       7.777   1.783  22.875  0.00  0.00    -0.346 N 
ATOM      2  C   UNL     1       8.309   0.505  23.165  0.00  0.00    +0.055 A 
ATOM      3  C   UNL     1       9.636   0.384  23.610  0.00  0.00    +0.049 A 
ATOM      4  C   UNL     1      10.181  -0.859  23.935  0.00  0.00    +0.054 A 
ATOM      5  C   UNL     1       9.390  -2.004  23.851  0.00  0.00    +0.145 A 
ATOM      6  C   UNL     1       8.055  -1.960  23.413  0.00  0.00    +0.067 A 
ATOM      7  F   UNL     1       9.950  -3.157  24.247  0.00  0.00    -0.204 F 
ATOM      8  C   UNL     1      10.468   1.600  23.764  0.00  0.00    +0.203 A 
ATOM      9  O   UNL     1      11.646   1.539  24.110  0.00  0.00    -0.286 OA
ATOM     10  C   UNL     1       9.840   2.912  23.513  0.00  0.00    +0.122 A 
ATOM     11  C   UNL     1       7.571  -0.686  23.044  0.00  0.00    +0.052 A 
ATOM     12  C   UNL     1       8.565   2.904  23.098  0.00  0.00    +0.105 A 
ENDROOT
BRANCH   6  13
ATOM     13  N   UNL     1       7.231  -3.068  23.299  0.00  0.00    -0.325 N 
ATOM     14  C   UNL     1       6.607  -3.726  24.459  0.00  0.00    +0.120 C 
ATOM     15  C   UNL     1       6.694  -5.268  24.288  0.00  0.00    +0.103 C 
ATOM     16  N   UNL     1       6.209  -5.814  22.997  0.00  0.00    -0.302 NA
ATOM     17  C   UNL     1       4.751  -5.795  22.924  0.00  0.00    +0.105 C 
ATOM     18  C   UNL     1       6.817  -5.047  21.886  0.00  0.00    +0.103 C 
ATOM     19  C   UNL     1       6.678  -3.511  22.007  0.00  0.00    +0.120 C 
ENDBRANCH   6  13
BRANCH   1  21
ATOM     20  C   UNL     1       5.999   3.382  22.235  0.00  0.00    +0.027 C 
ATOM     21  C   UNL     1       6.349   1.927  22.527  0.00  0.00    +0.118 C 
ENDBRANCH   1  21
BRANCH  10  22
ATOM     22  C   UNL     1      10.525   4.204  23.715  0.00  0.00    +0.342 C 
ATOM     23  O   UNL     1      10.086   5.091  24.435  0.00  0.00    -0.245 OA
BRANCH  22  24
ATOM     24  O   UNL     1      11.692   4.327  23.050  0.00  0.00    -0.477 OA
ATOM     25  H   UNL     1      11.590   4.589  22.101  0.00  0.00    +0.295 HD
ENDBRANCH  22  24
ENDBRANCH  10  22
TORSDOF 4
ENDMDL
MODEL 4
REMARK VINA RESULT:      -6.6      3.433      7.252
REMARK  Name = 
REMARK  6 active torsions:
REMARK  status: ('A' for Active; 'I' for Inactive)
REMARK    1  A    between atoms: C_1  and  C_2
REMARK    2  A    between atoms: C_2  and  N_3
REMARK    3  A    between atoms: C_5  and  C_6
REMARK    4  A    between atoms: C_6  and  O_7
REMARK    5  A    between atoms: C_15  and  N_18
REMARK    6  A    between atoms: N_21  and  C_22
REMARK                            x       y       z     vdW  Elec       q    Type
REMARK                         _______ _______ _______ _____ _____    ______ ____
ROOT
ATOM      1  N   UNL     1       7.825   2.595  25.423  0.00  0.00    -0.346 N 
ATOM      2  C   UNL     1       8.469   1.462  24.873  0.00  0.00    +0.055 A 
ATOM      3  C   UNL     1       9.576   1.630  24.026  0.00  0.00    +0.049 A 
ATOM      4  C   UNL     1      10.254   0.532  23.491  0.00  0.00    +0.054 A 
ATOM      5  C   UNL     1       9.850  -0.758  23.827  0.00  0.00    +0.145 A 
ATOM      6  C   UNL     1       8.751  -1.004  24.668  0.00  0.00    +0.067 A 
ATOM      7  F   UNL     1      10.586  -1.769  23.341  0.00  0.00    -0.204 F 
ATOM      8  C   UNL     1      10.054   2.997  23.711  0.00  0.00    +0.203 A 
ATOM      9  O   UNL     1      10.993   3.193  22.942  0.00  0.00    -0.286 OA
ATOM     10  C   UNL     1       9.388   4.138  24.367  0.00  0.00    +0.122 A 
ATOM     11  C   UNL     1       8.067   0.140  25.135  0.00  0.00    +0.052 A 
ATOM     12  C   UNL     1       8.345   3.855  25.161  0.00  0.00    +0.105 A 
ENDROOT
BRANCH   6  13
ATOM     13  N   UNL     1       8.301  -2.265  25.022  0.00  0.00    -0.325 N 
ATOM     14  C   UNL     1       8.245  -2.735  26.417  0.00  0.00    +0.120 C 
ATOM     15  C   UNL     1       8.743  -4.205  26.487  0.00  0.00    +0.103 C 
ATOM     16  N   UNL     1       8.112  -5.158  25.542  0.00  0.00    -0.302 NA
ATOM     17  C   UNL     1       6.754  -5.500  25.956  0.00  0.00    +0.105 C 
ATOM     18  C   UNL     1       8.133  -4.577  24.180  0.00  0.00    +0.103 C 
ATOM     19  C   UNL     1       7.576  -3.138  24.081  0.00  0.00    +0.120 C 
ENDBRANCH   6  13
BRANCH   1  21
ATOM     20  C   UNL     1       6.957   3.315  27.627  0.00  0.00    +0.027 C 
ATOM     21  C   UNL     1       6.741   2.421  26.411  0.00  0.00    +0.118 C 
ENDBRANCH   1  21
BRANCH  10  22
ATOM     22  C   UNL     1       9.818   5.542  24.214  0.00  0.00    +0.342 C 
ATOM     23  O   UNL     1      10.025   6.288  25.162  0.00  0.00    -0.245 OA
BRANCH  22  24
ATOM     24  O   UNL     1       9.984   5.939  22.935  0.00  0.00    -0.477 OA
ATOM     25  H   UNL     1      10.930   6.023  22.659  0.00  0.00    +0.295 HD
ENDBRANCH  22  24
ENDBRANCH  10  22
TORSDOF 4
ENDMDL
MODEL 5
REMARK VINA RESULT:      -6.6      3.327      5.265
REMARK  Name = 
REMARK  6 active torsions:
REMARK  status: ('A' for Active; 'I' for Inactive)
REMARK    1  A    between atoms: C_1  and  C_2
REMARK    2  A    between atoms: C_2  and  N_3
REMARK    3  A    between atoms: C_5  and  C_6
REMARK    4  A    between atoms: C_6  and  O_7
REMARK    5  A    between atoms: C_15  and  N_18
REMARK    6  A    between atoms: N_21  and  C_22
REMARK                            x       y       z     vdW  Elec       q    Type
REMARK                         _______ _______ _______ _____ _____    ______ ____
ROOT
ATOM      1  N   UNL     1       6.186  -4.445  23.482  0.00  0.00    -0.346 N 
ATOM      2  C   UNL     1       6.675  -3.469  24.383  0.00  0.00    +0.055 A 
ATOM      3  C   UNL     1       6.443  -3.612  25.761  0.00  0.00    +0.049 A 
ATOM      4  C   UNL     1       6.938  -2.684  26.680  0.00  0.00    +0.054 A 
ATOM      5  C   UNL     1       7.706  -1.611  26.231  0.00  0.00    +0.145 A 
ATOM      6  C   UNL     1       7.979  -1.404  24.868  0.00  0.00    +0.067 A 
ATOM      7  F   UNL     1       8.214  -0.797  27.169  0.00  0.00    -0.204 F 
ATOM      8  C   UNL     1       5.680  -4.782  26.256  0.00  0.00    +0.203 A 
ATOM      9  O   UNL     1       5.418  -4.926  27.448  0.00  0.00    -0.286 OA
ATOM     10  C   UNL     1       5.255  -5.802  25.278  0.00  0.00    +0.122 A 
ATOM     11  C   UNL     1       7.407  -2.339  23.978  0.00  0.00    +0.052 A 
ATOM     12  C   UNL     1       5.538  -5.562  23.990  0.00  0.00    +0.105 A 
ENDROOT
BRANCH   6  13
ATOM     13  N   UNL     1       8.725  -0.348  24.370  0.00  0.00    -0.325 N 
ATOM     14  C   UNL     1      10.126  -0.488  23.942  0.00  0.00    +0.120 C 
ATOM     15  C   UNL     1      10.943   0.737  24.437  0.00  0.00    +0.103 C 
ATOM     16  N   UNL     1      10.383   2.073  24.118  0.00  0.00    -0.302 NA
ATOM     17  C   UNL     1      10.566   2.404  22.708  0.00  0.00    +0.105 C 
ATOM     18  C   UNL     1       8.954   2.104  24.501  0.00  0.00    +0.103 C 
ATOM     19  C   UNL     1       8.111   0.927  23.957  0.00  0.00    +0.120 C 
ENDBRANCH   6  13
BRANCH   1  21
ATOM     20  C   UNL     1       7.163  -5.666  21.563  0.00  0.00    +0.027 C 
ATOM     21  C   UNL     1       6.533  -4.365  22.049  0.00  0.00    +0.118 C 
ENDBRANCH   1  21
BRANCH  10  22
ATOM     22  C   UNL     1       4.570  -7.058  25.644  0.00  0.00    +0.342 C 
ATOM     23  O   UNL     1       3.808  -7.650  24.892  0.00  0.00    -0.245 OA
BRANCH  22  24
ATOM     24  O   UNL     1       4.864  -7.515  26.879  0.00  0.00    -0.477 OA
ATOM     25  H   UNL     1       4.122  -7.430  27.528  0.00  0.00    +0.295 HD
ENDBRANCH  22  24
ENDBRANCH  10  22
TORSDOF 4
ENDMDL
MODEL 6
REMARK VINA RESULT:      -6.6      2.780      4.050
REMARK  Name = 
REMARK  6 active torsions:
REMARK  status: ('A' for Active; 'I' for Inactive)
REMARK    1  A    between atoms: C_1  and  C_2
REMARK    2  A    between atoms: C_2  and  N_3
REMARK    3  A    between atoms: C_5  and  C_6
REMARK    4  A    between atoms: C_6  and  O_7
REMARK    5  A    between atoms: C_15  and  N_18
REMARK    6  A    between atoms: N_21  and  C_22
REMARK                            x       y       z     vdW  Elec       q    Type
REMARK                         _______ _______ _______ _____ _____    ______ ____
ROOT
ATOM      1  N   UNL     1       5.929  -3.249  25.779  0.00  0.00    -0.346 N 
ATOM      2  C   UNL     1       6.798  -2.869  24.728  0.00  0.00    +0.055 A 
ATOM      3  C   UNL     1       7.082  -3.777  23.695  0.00  0.00    +0.049 A 
ATOM      4  C   UNL     1       7.909  -3.424  22.627  0.00  0.00    +0.054 A 
ATOM      5  C   UNL     1       8.440  -2.137  22.561  0.00  0.00    +0.145 A 
ATOM      6  C   UNL     1       8.200  -1.177  23.559  0.00  0.00    +0.067 A 
ATOM      7  F   UNL     1       9.166  -1.837  21.473  0.00  0.00    -0.204 F 
ATOM      8  C   UNL     1       6.473  -5.128  23.721  0.00  0.00    +0.203 A 
ATOM      9  O   UNL     1       6.726  -5.968  22.860  0.00  0.00    -0.286 OA
ATOM     10  C   UNL     1       5.522  -5.443  24.804  0.00  0.00    +0.122 A 
ATOM     11  C   UNL     1       7.404  -1.604  24.643  0.00  0.00    +0.052 A 
ATOM     12  C   UNL     1       5.324  -4.496  25.732  0.00  0.00    +0.105 A 
ENDROOT
BRANCH   6  13
ATOM     13  N   UNL     1       8.714   0.110  23.547  0.00  0.00    -0.325 N 
ATOM     14  C   UNL     1       8.314   1.125  22.559  0.00  0.00    +0.120 C 
ATOM     15  C   UNL     1       9.569   1.906  22.083  0.00  0.00    +0.103 C 
ATOM     16  N   UNL     1      10.439   2.464  23.148  0.00  0.00    -0.302 NA
ATOM     17  C   UNL     1       9.831   3.635  23.772  0.00  0.00    +0.105 C 
ATOM     18  C   UNL     1      10.726   1.406  24.143  0.00  0.00    +0.103 C 
ATOM     19  C   UNL     1       9.479   0.665  24.679  0.00  0.00    +0.120 C 
ENDBRANCH   6  13
BRANCH   1  21
ATOM     20  C   UNL     1       4.015  -2.096  26.844  0.00  0.00    +0.027 C 
ATOM     21  C   UNL     1       5.530  -2.259  26.800  0.00  0.00    +0.118 C 
ENDBRANCH   1  21
BRANCH  10  22
ATOM     22  C   UNL     1       4.776  -6.715  24.900  0.00  0.00    +0.342 C 
ATOM     23  O   UNL     1       4.380  -7.182  25.959  0.00  0.00    -0.245 OA
BRANCH  22  24
ATOM     24  O   UNL     1       4.549  -7.320  23.715  0.00  0.00    -0.477 OA
ATOM     25  H   UNL     1       4.962  -8.215  23.634  0.00  0.00    +0.295 HD
ENDBRANCH  22  24
ENDBRANCH  10  22
TORSDOF 4
ENDMDL
MODEL 7
REMARK VINA RESULT:      -6.5      3.533      7.617
REMARK  Name = 
REMARK  6 active torsions:
REMARK  status: ('A' for Active; 'I' for Inactive)
REMARK    1  A    between atoms: C_1  and  C_2
REMARK    2  A    between atoms: C_2  and  N_3
REMARK    3  A    between atoms: C_5  and  C_6
REMARK    4  A    between atoms: C_6  and  O_7
REMARK    5  A    between atoms: C_15  and  N_18
REMARK    6  A    between atoms: N_21  and  C_22
REMARK                            x       y       z     vdW  Elec       q    Type
REMARK                         _______ _______ _______ _____ _____    ______ ____
ROOT
ATOM      1  N   UNL     1       7.846   0.434  25.150  0.00  0.00    -0.346 N 
ATOM      2  C   UNL     1       7.857  -0.924  24.753  0.00  0.00    +0.055 A 
ATOM      3  C   UNL     1       8.634  -1.323  23.653  0.00  0.00    +0.049 A 
ATOM      4  C   UNL     1       8.693  -2.660  23.254  0.00  0.00    +0.054 A 
ATOM      5  C   UNL     1       7.996  -3.627  23.976  0.00  0.00    +0.145 A 
ATOM      6  C   UNL     1       7.199  -3.302  25.087  0.00  0.00    +0.067 A 
ATOM      7  F   UNL     1       8.152  -4.902  23.588  0.00  0.00    -0.204 F 
ATOM      8  C   UNL     1       9.429  -0.314  22.914  0.00  0.00    +0.203 A 
ATOM      9  O   UNL     1      10.089  -0.611  21.921  0.00  0.00    -0.286 OA
ATOM     10  C   UNL     1       9.432   1.074  23.415  0.00  0.00    +0.122 A 
ATOM     11  C   UNL     1       7.129  -1.930  25.412  0.00  0.00    +0.052 A 
ATOM     12  C   UNL     1       8.657   1.337  24.477  0.00  0.00    +0.105 A 
ENDROOT
BRANCH   6  13
ATOM     13  N   UNL     1       6.477  -4.222  25.830  0.00  0.00    -0.325 N 
ATOM     14  C   UNL     1       6.672  -4.414  27.277  0.00  0.00    +0.120 C 
ATOM     15  C   UNL     1       6.651  -5.933  27.604  0.00  0.00    +0.103 C 
ATOM     16  N   UNL     1       5.495  -6.701  27.080  0.00  0.00    -0.302 NA
ATOM     17  C   UNL     1       4.281  -6.424  27.844  0.00  0.00    +0.105 C 
ATOM     18  C   UNL     1       5.314  -6.389  25.645  0.00  0.00    +0.103 C 
ATOM     19  C   UNL     1       5.264  -4.880  25.311  0.00  0.00    +0.120 C 
ENDBRANCH   6  13
BRANCH   1  21
ATOM     20  C   UNL     1       7.193   2.348  26.578  0.00  0.00    +0.027 C 
ATOM     21  C   UNL     1       7.131   0.838  26.378  0.00  0.00    +0.118 C 
ENDBRANCH   1  21
BRANCH  10  22
ATOM     22  C   UNL     1      10.248   2.158  22.831  0.00  0.00    +0.342 C 
ATOM     23  O   UNL     1      10.931   2.919  23.502  0.00  0.00    -0.245 OA
BRANCH  22  24
ATOM     24  O   UNL     1      10.195   2.233  21.485  0.00  0.00    -0.477 OA
ATOM     25  H   UNL     1       9.277   2.301  21.122  0.00  0.00    +0.295 HD
ENDBRANCH  22  24
ENDBRANCH  10  22
TORSDOF 4
ENDMDL
MODEL 8
REMARK VINA RESULT:      -6.2      4.012      7.637
REMARK  Name = 
REMARK  6 active torsions:
REMARK  status: ('A' for Active; 'I' for Inactive)
REMARK    1  A    between atoms: C_1  and  C_2
REMARK    2  A    between atoms: C_2  and  N_3
REMARK    3  A    between atoms: C_5  and  C_6
REMARK    4  A    between atoms: C_6  and  O_7
REMARK    5  A    between atoms: C_15  and  N_18
REMARK    6  A    between atoms: N_21  and  C_22
REMARK                            x       y       z     vdW  Elec       q    Type
REMARK                         _______ _______ _______ _____ _____    ______ ____
ROOT
ATOM      1  N   UNL     1       7.029   0.145  24.325  0.00  0.00    -0.346 N 
ATOM      2  C   UNL     1       7.078  -1.138  23.732  0.00  0.00    +0.055 A 
ATOM      3  C   UNL     1       8.060  -1.427  22.770  0.00  0.00    +0.049 A 
ATOM      4  C   UNL     1       8.156  -2.693  22.189  0.00  0.00    +0.054 A 
ATOM      5  C   UNL     1       7.284  -3.704  22.589  0.00  0.00    +0.145 A 
ATOM      6  C   UNL     1       6.276  -3.488  23.545  0.00  0.00    +0.067 A 
ATOM      7  F   UNL     1       7.474  -4.917  22.048  0.00  0.00    -0.204 F 
ATOM      8  C   UNL     1       9.033  -0.379  22.382  0.00  0.00    +0.203 A 
ATOM      9  O   UNL     1       9.883  -0.575  21.516  0.00  0.00    -0.286 OA
ATOM     10  C   UNL     1       8.978   0.918  23.083  0.00  0.00    +0.122 A 
ATOM     11  C   UNL     1       6.187  -2.176  24.059  0.00  0.00    +0.052 A 
ATOM     12  C   UNL     1       8.000   1.078  23.986  0.00  0.00    +0.105 A 
ENDROOT
BRANCH   6  13
ATOM     13  N   UNL     1       5.377  -4.454  23.967  0.00  0.00    -0.325 N 
ATOM     14  C   UNL     1       4.046  -4.630  23.363  0.00  0.00    +0.120 C 
ATOM     15  C   UNL     1       2.998  -4.879  24.482  0.00  0.00    +0.103 C 
ATOM     16  N   UNL     1       3.323  -5.947  25.459  0.00  0.00    -0.302 NA
ATOM     17  C   UNL     1       3.152  -7.274  24.875  0.00  0.00    +0.105 C 
ATOM     18  C   UNL     1       4.703  -5.748  25.956  0.00  0.00    +0.103 C 
ATOM     19  C   UNL     1       5.769  -5.567  24.851  0.00  0.00    +0.120 C 
ENDBRANCH   6  13
BRANCH   1  21
ATOM     20  C   UNL     1       6.253   1.831  25.963  0.00  0.00    +0.027 C 
ATOM     21  C   UNL     1       6.080   0.416  25.423  0.00  0.00    +0.118 C 
ENDBRANCH   1  21
BRANCH  10  22
ATOM     22  C   UNL     1       9.940   2.016  22.860  0.00  0.00    +0.342 C 
ATOM     23  O   UNL     1      10.505   2.608  23.769  0.00  0.00    -0.245 OA
BRANCH  22  24
ATOM     24  O   UNL     1      10.163   2.307  21.561  0.00  0.00    -0.477 OA
ATOM     25  H   UNL     1      10.249   1.512  20.979  0.00  0.00    +0.295 HD
ENDBRANCH  22  24
ENDBRANCH  10  22
TORSDOF 4
ENDMDL
MODEL 9
REMARK VINA RESULT:      -6.2      3.563      5.487
REMARK  Name = 
REMARK  6 active torsions:
REMARK  status: ('A' for Active; 'I' for Inactive)
REMARK    1  A    between atoms: C_1  and  C_2
REMARK    2  A    between atoms: C_2  and  N_3
REMARK    3  A    between atoms: C_5  and  C_6
REMARK    4  A    between atoms: C_6  and  O_7
REMARK    5  A    between atoms: C_15  and  N_18
REMARK    6  A    between atoms: N_21  and  C_22
REMARK                            x       y       z     vdW  Elec       q    Type
REMARK                         _______ _______ _______ _____ _____    ______ ____
ROOT
ATOM      1  N   UNL     1       4.846  -3.468  26.521  0.00  0.00    -0.346 N 
ATOM      2  C   UNL     1       6.181  -3.375  26.060  0.00  0.00    +0.055 A 
ATOM      3  C   UNL     1       7.135  -4.310  26.494  0.00  0.00    +0.049 A 
ATOM      4  C   UNL     1       8.453  -4.267  26.035  0.00  0.00    +0.054 A 
ATOM      5  C   UNL     1       8.828  -3.300  25.103  0.00  0.00    +0.145 A 
ATOM      6  C   UNL     1       7.928  -2.333  24.625  0.00  0.00    +0.067 A 
ATOM      7  F   UNL     1      10.088  -3.357  24.645  0.00  0.00    -0.204 F 
ATOM      8  C   UNL     1       6.734  -5.381  27.436  0.00  0.00    +0.203 A 
ATOM      9  O   UNL     1       7.545  -6.194  27.874  0.00  0.00    -0.286 OA
ATOM     10  C   UNL     1       5.315  -5.469  27.828  0.00  0.00    +0.122 A 
ATOM     11  C   UNL     1       6.624  -2.387  25.164  0.00  0.00    +0.052 A 
ATOM     12  C   UNL     1       4.493  -4.525  27.347  0.00  0.00    +0.105 A 
ENDROOT
BRANCH   6  13
ATOM     13  N   UNL     1       8.253  -1.344  23.710  0.00  0.00    -0.325 N 
ATOM     14  C   UNL     1       8.553  -1.627  22.297  0.00  0.00    +0.120 C 
ATOM     15  C   UNL     1       9.767  -0.769  21.845  0.00  0.00    +0.103 C 
ATOM     16  N   UNL     1       9.685   0.685  22.127  0.00  0.00    -0.302 NA
ATOM     17  C   UNL     1       8.757   1.353  21.221  0.00  0.00    +0.105 C 
ATOM     18  C   UNL     1       9.299   0.883  23.542  0.00  0.00    +0.103 C 
ATOM     19  C   UNL     1       8.049   0.089  23.990  0.00  0.00    +0.120 C 
ENDBRANCH   6  13
BRANCH   1  21
ATOM     20  C   UNL     1       2.559  -3.339  25.583  0.00  0.00    +0.027 C 
ATOM     21  C   UNL     1       3.813  -2.566  25.973  0.00  0.00    +0.118 C 
ENDBRANCH   1  21
BRANCH  10  22
ATOM     22  C   UNL     1       4.763  -6.537  28.687  0.00  0.00    +0.342 C 
ATOM     23  O   UNL     1       3.816  -6.367  29.443  0.00  0.00    -0.245 OA
BRANCH  22  24
ATOM     24  O   UNL     1       5.378  -7.730  28.558  0.00  0.00    -0.477 OA
ATOM     25  H   UNL     1       6.215  -7.698  28.032  0.00  0.00    +0.295 HD
ENDBRANCH  22  24
ENDBRANCH  10  22
TORSDOF 4
ENDMDL
