MODEL 1
REMARK VINA RESULT:      -5.6      0.000      0.000
REMARK  Name = 
REMARK  7 active torsions:
REMARK  status: ('A' for Active; 'I' for Inactive)
REMARK    1  A    between atoms: N_4  and  C_5
REMARK    2  A    between atoms: C_5  and  C_6
REMARK    3  A    between atoms: C_6  and  C_7
REMARK    4  A    between atoms: C_7  and  C_8
REMARK    5  A    between atoms: C_8  and  N_10
REMARK    6  A    between atoms: C_8  and  C_15
REMARK    7  A    between atoms: C_15  and  O_16
REMARK                            x       y       z     vdW  Elec       q    Type
REMARK                         _______ _______ _______ _____ _____    ______ ____
ROOT
ATOM      1  C   UNL     1       9.240  -0.952  25.232  0.00  0.00    +0.037 C 
ENDROOT
BRANCH   1   2
ATOM      2  C   UNL     1       7.826  -1.391  25.646  0.00  0.00    +0.039 C 
BRANCH   2   3
ATOM      3  C   UNL     1       7.830  -2.738  26.367  0.00  0.00    +0.196 C 
BRANCH   3   8
ATOM      4  N   UNL     1      10.031  -5.534  25.782  0.00  0.00    -0.289 N 
ATOM      5  H   UNL     1      10.440  -5.179  24.930  0.00  0.00    +0.255 HD
ATOM      6  H   UNL     1       9.996  -6.543  25.822  0.00  0.00    +0.255 HD
ATOM      7  C   UNL     1       8.979  -4.873  26.287  0.00  0.00    +0.376 C 
ATOM      8  N   UNL     1       8.936  -3.568  25.929  0.00  0.00    -0.276 N 
ATOM      9  H   UNL     1       9.342  -3.320  25.040  0.00  0.00    +0.258 HD
ATOM     10  N   UNL     1       8.125  -5.422  27.075  0.00  0.00    -0.130 NA
ATOM     11  H   UNL     1       8.385  -6.396  27.237  0.00  0.00    +0.306 HD
ENDBRANCH   3   8
ENDBRANCH   2   3
ENDBRANCH   1   2
BRANCH   1  12
ATOM     12  C   UNL     1       9.385  -0.712  23.721  0.00  0.00    +0.184 C 
BRANCH  12  13
ATOM     13  N   UNL     1      10.040   0.548  23.426  0.00  0.00    -0.288 N 
ATOM     14  C   UNL     1       9.774   1.352  22.369  0.00  0.00    +0.218 C 
ATOM     15  O   UNL     1       9.206   1.077  21.335  0.00  0.00    -0.276 OA
ATOM     16  C   UNL     1      10.163   2.605  23.170  0.00  0.00    +0.115 C 
ATOM     17  C   UNL     1      10.340   1.635  24.354  0.00  0.00    +0.118 C 
ENDBRANCH  12  13
BRANCH  12  18
ATOM     18  C   UNL     1      10.049  -1.910  23.023  0.00  0.00    +0.325 C 
ATOM     19  O   UNL     1      10.374  -2.930  23.615  0.00  0.00    -0.249 OA
BRANCH  18  20
ATOM     20  O   UNL     1      10.290  -1.748  21.702  0.00  0.00    -0.479 OA
ATOM     21  H   UNL     1      10.071  -2.533  21.143  0.00  0.00    +0.295 HD
ENDBRANCH  18  20
ENDBRANCH  12  18
ENDBRANCH   1  12
TORSDOF 7
ENDMDL
MODEL 2
REMARK VINA RESULT:      -5.6      1.804      5.674
REMARK  Name = 
REMARK  7 active torsions:
REMARK  status: ('A' for Active; 'I' for Inactive)
REMARK    1  A    between atoms: N_4  and  C_5
REMARK    2  A    between atoms: C_5  and  C_6
REMARK    3  A    between atoms: C_6  and  C_7
REMARK    4  A    between atoms: C_7  and  C_8
REMARK    5  A    between atoms: C_8  and  N_10
REMARK    6  A    between atoms: C_8  and  C_15
REMARK    7  A    between atoms: C_15  and  O_16
REMARK                            x       y       z     vdW  Elec       q    Type
REMARK                         _______ _______ _______ _____ _____    ______ ____
ROOT
ATOM      1  C   UNL     1       9.256  -0.950  24.894  0.00  0.00    +0.037 C 
ENDROOT
BRANCH   1   2
ATOM      2  C   UNL     1      10.344   0.134  24.826  0.00  0.00    +0.039 C 
BRANCH   2   3
ATOM      3  C   UNL     1       9.778   1.490  24.408  0.00  0.00    +0.196 C 
BRANCH   3   8
ATOM      4  N   UNL     1       8.376   1.596  21.087  0.00  0.00    -0.289 N 
ATOM      5  H   UNL     1       7.730   0.831  21.213  0.00  0.00    +0.255 HD
ATOM      6  H   UNL     1       8.698   1.700  20.135  0.00  0.00    +0.255 HD
ATOM      7  C   UNL     1       9.277   1.813  22.057  0.00  0.00    +0.376 C 
ATOM      8  N   UNL     1       8.886   1.363  23.272  0.00  0.00    -0.276 N 
ATOM      9  H   UNL     1       8.265   0.568  23.292  0.00  0.00    +0.258 HD
ATOM     10  N   UNL     1      10.384   2.433  21.852  0.00  0.00    -0.130 NA
ATOM     11  H   UNL     1      10.442   2.716  20.873  0.00  0.00    +0.306 HD
ENDBRANCH   3   8
ENDBRANCH   2   3
ENDBRANCH   1   2
BRANCH   1  12
ATOM     12  C   UNL     1       9.544  -2.159  23.989  0.00  0.00    +0.184 C 
BRANCH  12  13
ATOM     13  N   UNL     1       8.685  -3.289  24.293  0.00  0.00    -0.288 N 
ATOM     14  C   UNL     1       9.078  -4.452  24.863  0.00  0.00    +0.218 C 
ATOM     15  O   UNL     1      10.195  -4.913  24.947  0.00  0.00    -0.276 OA
ATOM     16  C   UNL     1       7.702  -4.644  25.520  0.00  0.00    +0.115 C 
ATOM     17  C   UNL     1       7.369  -3.262  24.925  0.00  0.00    +0.118 C 
ENDBRANCH  12  13
BRANCH  12  18
ATOM     18  C   UNL     1       9.515  -1.767  22.503  0.00  0.00    +0.325 C 
ATOM     19  O   UNL     1       8.480  -1.516  21.901  0.00  0.00    -0.249 OA
BRANCH  18  20
ATOM     20  O   UNL     1      10.718  -1.753  21.886  0.00  0.00    -0.479 OA
ATOM     21  H   UNL     1      10.694  -1.994  20.929  0.00  0.00    +0.295 HD
ENDBRANCH  18  20
ENDBRANCH  12  18
ENDBRANCH   1  12
TORSDOF 7
ENDMDL
MODEL 3
REMARK VINA RESULT:      -5.4      1.357      1.424
REMARK  Name = 
REMARK  7 active torsions:
REMARK  status: ('A' for Active; 'I' for Inactive)
REMARK    1  A    between atoms: N_4  and  C_5
REMARK    2  A    between atoms: C_5  and  C_6
REMARK    3  A    between atoms: C_6  and  C_7
REMARK    4  A    between atoms: C_7  and  C_8
REMARK    5  A    between atoms: C_8  and  N_10
REMARK    6  A    between atoms: C_8  and  C_15
REMARK    7  A    between atoms: C_15  and  O_16
REMARK                            x       y       z     vdW  Elec       q    Type
REMARK                         _______ _______ _______ _____ _____    ______ ____
ROOT
ATOM      1  C   UNL     1       7.839  -1.869  24.492  0.00  0.00    +0.037 C 
ENDROOT
BRANCH   1   2
ATOM      2  C   UNL     1       6.925  -2.897  23.805  0.00  0.00    +0.039 C 
BRANCH   2   3
ATOM      3  C   UNL     1       7.082  -4.295  24.402  0.00  0.00    +0.196 C 
BRANCH   3   8
ATOM      4  N   UNL     1      10.210  -5.652  25.576  0.00  0.00    -0.289 N 
ATOM      5  H   UNL     1      10.643  -5.738  24.669  0.00  0.00    +0.255 HD
ATOM      6  H   UNL     1      10.531  -6.340  26.243  0.00  0.00    +0.255 HD
ATOM      7  C   UNL     1       8.907  -5.336  25.614  0.00  0.00    +0.376 C 
ATOM      8  N   UNL     1       8.480  -4.664  24.519  0.00  0.00    -0.276 N 
ATOM      9  H   UNL     1       8.957  -4.847  23.650  0.00  0.00    +0.258 HD
ATOM     10  N   UNL     1       8.154  -5.608  26.619  0.00  0.00    -0.130 NA
ATOM     11  H   UNL     1       8.703  -6.077  27.341  0.00  0.00    +0.306 HD
ENDBRANCH   3   8
ENDBRANCH   2   3
ENDBRANCH   1   2
BRANCH   1  12
ATOM     12  C   UNL     1       8.727  -1.092  23.507  0.00  0.00    +0.184 C 
BRANCH  12  13
ATOM     13  N   UNL     1       9.175   0.175  24.055  0.00  0.00    -0.288 N 
ATOM     14  C   UNL     1       9.563   1.256  23.336  0.00  0.00    +0.218 C 
ATOM     15  O   UNL     1       9.908   1.308  22.177  0.00  0.00    -0.276 OA
ATOM     16  C   UNL     1       9.077   2.213  24.437  0.00  0.00    +0.115 C 
ATOM     17  C   UNL     1       8.568   0.940  25.141  0.00  0.00    +0.118 C 
ENDBRANCH  12  13
BRANCH  12  18
ATOM     18  C   UNL     1       9.884  -1.962  22.988  0.00  0.00    +0.325 C 
ATOM     19  O   UNL     1      10.423  -2.826  23.665  0.00  0.00    -0.249 OA
BRANCH  18  20
ATOM     20  O   UNL     1      10.298  -1.682  21.731  0.00  0.00    -0.479 OA
ATOM     21  H   UNL     1      10.720  -0.796  21.623  0.00  0.00    +0.295 HD
ENDBRANCH  18  20
ENDBRANCH  12  18
ENDBRANCH   1  12
TORSDOF 7
ENDMDL
MODEL 4
REMARK VINA RESULT:      -5.3      2.017      2.406
REMARK  Name = 
REMARK  7 active torsions:
REMARK  status: ('A' for Active; 'I' for Inactive)
REMARK    1  A    between atoms: N_4  and  C_5
REMARK    2  A    between atoms: C_5  and  C_6
REMARK    3  A    between atoms: C_6  and  C_7
REMARK    4  A    between atoms: C_7  and  C_8
REMARK    5  A    between atoms: C_8  and  N_10
REMARK    6  A    between atoms: C_8  and  C_15
REMARK    7  A    between atoms: C_15  and  O_16
REMARK                            x       y       z     vdW  Elec       q    Type
REMARK                         _______ _______ _______ _____ _____    ______ ____
ROOT
ATOM      1  C   UNL     1       7.297  -2.486  23.593  0.00  0.00    +0.037 C 
ENDROOT
BRANCH   1   2
ATOM      2  C   UNL     1       6.850  -3.763  22.862  0.00  0.00    +0.039 C 
BRANCH   2   3
ATOM      3  C   UNL     1       7.671  -4.982  23.280  0.00  0.00    +0.196 C 
BRANCH   3   8
ATOM      4  N   UNL     1       8.445  -5.570  26.753  0.00  0.00    -0.289 N 
ATOM      5  H   UNL     1       7.586  -5.194  27.125  0.00  0.00    +0.255 HD
ATOM      6  H   UNL     1       9.233  -5.469  27.377  0.00  0.00    +0.255 HD
ATOM      7  C   UNL     1       8.685  -5.391  25.445  0.00  0.00    +0.376 C 
ATOM      8  N   UNL     1       7.563  -5.227  24.706  0.00  0.00    -0.276 N 
ATOM      9  H   UNL     1       6.767  -4.809  25.162  0.00  0.00    +0.258 HD
ATOM     10  N   UNL     1       9.868  -5.423  24.944  0.00  0.00    -0.130 NA
ATOM     11  H   UNL     1      10.549  -5.602  25.683  0.00  0.00    +0.306 HD
ENDBRANCH   3   8
ENDBRANCH   2   3
ENDBRANCH   1   2
BRANCH   1  12
ATOM     12  C   UNL     1       8.206  -1.585  22.743  0.00  0.00    +0.184 C 
BRANCH  12  13
ATOM     13  N   UNL     1       7.974  -0.175  22.997  0.00  0.00    -0.288 N 
ATOM     14  C   UNL     1       8.246   0.839  22.142  0.00  0.00    +0.218 C 
ATOM     15  O   UNL     1       8.984   0.841  21.182  0.00  0.00    -0.276 OA
ATOM     16  C   UNL     1       7.089   1.680  22.706  0.00  0.00    +0.115 C 
ATOM     17  C   UNL     1       6.779   0.441  23.568  0.00  0.00    +0.118 C 
ENDBRANCH  12  13
BRANCH  12  18
ATOM     18  C   UNL     1       9.685  -1.983  22.887  0.00  0.00    +0.325 C 
ATOM     19  O   UNL     1      10.138  -2.508  23.894  0.00  0.00    -0.249 OA
BRANCH  18  20
ATOM     20  O   UNL     1      10.470  -1.677  21.829  0.00  0.00    -0.479 OA
ATOM     21  H   UNL     1      10.176  -2.064  20.970  0.00  0.00    +0.295 HD
ENDBRANCH  18  20
ENDBRANCH  12  18
ENDBRANCH   1  12
TORSDOF 7
ENDMDL
MODEL 5
REMARK VINA RESULT:      -5.3      2.919      6.370
REMARK  Name = 
REMARK  7 active torsions:
REMARK  status: ('A' for Active; 'I' for Inactive)
REMARK    1  A    between atoms: N_4  and  C_5
REMARK    2  A    between atoms: C_5  and  C_6
REMARK    3  A    between atoms: C_6  and  C_7
REMARK    4  A    between atoms: C_7  and  C_8
REMARK    5  A    between atoms: C_8  and  N_10
REMARK    6  A    between atoms: C_8  and  C_15
REMARK    7  A    between atoms: C_15  and  O_16
REMARK                            x       y       z     vdW  Elec       q    Type
REMARK                         _______ _______ _______ _____ _____    ______ ____
ROOT
ATOM      1  C   UNL     1       7.493  -2.632  23.053  0.00  0.00    +0.037 C 
ENDROOT
BRANCH   1   2
ATOM      2  C   UNL     1       8.833  -1.880  23.111  0.00  0.00    +0.039 C 
BRANCH   2   3
ATOM      3  C   UNL     1       9.166  -1.195  21.787  0.00  0.00    +0.196 C 
BRANCH   3   8
ATOM      4  N   UNL     1      10.304   2.225  21.901  0.00  0.00    -0.289 N 
ATOM      5  H   UNL     1      10.951   2.103  22.666  0.00  0.00    +0.255 HD
ATOM      6  H   UNL     1       9.908   3.153  21.852  0.00  0.00    +0.255 HD
ATOM      7  C   UNL     1       9.482   1.203  21.614  0.00  0.00    +0.376 C 
ATOM      8  N   UNL     1       9.965  -0.003  21.995  0.00  0.00    -0.276 N 
ATOM      9  H   UNL     1      10.579  -0.023  22.795  0.00  0.00    +0.258 HD
ATOM     10  N   UNL     1       8.368   1.360  20.994  0.00  0.00    -0.130 NA
ATOM     11  H   UNL     1       8.236   2.347  20.770  0.00  0.00    +0.306 HD
ENDBRANCH   3   8
ENDBRANCH   2   3
ENDBRANCH   1   2
BRANCH   1  12
ATOM     12  C   UNL     1       7.650  -4.136  22.780  0.00  0.00    +0.184 C 
BRANCH  12  13
ATOM     13  N   UNL     1       7.648  -4.919  24.001  0.00  0.00    -0.288 N 
ATOM     14  C   UNL     1       8.702  -5.089  24.835  0.00  0.00    +0.218 C 
ATOM     15  O   UNL     1       9.879  -4.914  24.611  0.00  0.00    -0.276 OA
ATOM     16  C   UNL     1       7.771  -5.233  26.050  0.00  0.00    +0.115 C 
ATOM     17  C   UNL     1       6.636  -4.925  25.053  0.00  0.00    +0.118 C 
ENDBRANCH  12  13
BRANCH  12  18
ATOM     18  C   UNL     1       6.620  -4.630  21.750  0.00  0.00    +0.325 C 
ATOM     19  O   UNL     1       5.787  -3.896  21.237  0.00  0.00    -0.249 OA
BRANCH  18  20
ATOM     20  O   UNL     1       6.670  -5.953  21.472  0.00  0.00    -0.479 OA
ATOM     21  H   UNL     1       7.301  -6.468  22.030  0.00  0.00    +0.295 HD
ENDBRANCH  18  20
ENDBRANCH  12  18
ENDBRANCH   1  12
TORSDOF 7
ENDMDL
MODEL 6
REMARK VINA RESULT:      -5.1      3.187      6.105
REMARK  Name = 
REMARK  7 active torsions:
REMARK  status: ('A' for Active; 'I' for Inactive)
REMARK    1  A    between atoms: N_4  and  C_5
REMARK    2  A    between atoms: C_5  and  C_6
REMARK    3  A    between atoms: C_6  and  C_7
REMARK    4  A    between atoms: C_7  and  C_8
REMARK    5  A    between atoms: C_8  and  N_10
REMARK    6  A    between atoms: C_8  and  C_15
REMARK    7  A    between atoms: C_15  and  O_16
REMARK                            x       y       z     vdW  Elec       q    Type
REMARK                         _______ _______ _______ _____ _____    ______ ____
ROOT
ATOM      1  C   UNL     1       8.614  -3.031  23.575  0.00  0.00    +0.037 C 
ENDROOT
BRANCH   1   2
ATOM      2  C   UNL     1       8.169  -1.624  24.008  0.00  0.00    +0.039 C 
BRANCH   2   3
ATOM      3  C   UNL     1       7.499  -0.858  22.869  0.00  0.00    +0.196 C 
BRANCH   3   8
ATOM      4  N   UNL     1       9.631   1.722  21.525  0.00  0.00    -0.289 N 
ATOM      5  H   UNL     1       9.039   2.499  21.776  0.00  0.00    +0.255 HD
ATOM      6  H   UNL     1      10.183   1.887  20.695  0.00  0.00    +0.255 HD
ATOM      7  C   UNL     1       9.131   0.486  21.681  0.00  0.00    +0.376 C 
ATOM      8  N   UNL     1       8.161   0.408  22.622  0.00  0.00    -0.276 N 
ATOM      9  H   UNL     1       7.599   1.232  22.774  0.00  0.00    +0.258 HD
ATOM     10  N   UNL     1       9.572  -0.530  21.029  0.00  0.00    -0.130 NA
ATOM     11  H   UNL     1      10.331  -0.238  20.411  0.00  0.00    +0.306 HD
ENDBRANCH   3   8
ENDBRANCH   2   3
ENDBRANCH   1   2
BRANCH   1  12
ATOM     12  C   UNL     1       7.945  -4.155  24.382  0.00  0.00    +0.184 C 
BRANCH  12  13
ATOM     13  N   UNL     1       7.064  -4.968  23.564  0.00  0.00    -0.288 N 
ATOM     14  C   UNL     1       5.881  -4.572  23.037  0.00  0.00    +0.218 C 
ATOM     15  O   UNL     1       5.184  -3.638  23.364  0.00  0.00    -0.276 OA
ATOM     16  C   UNL     1       6.054  -5.513  21.834  0.00  0.00    +0.115 C 
ATOM     17  C   UNL     1       7.433  -5.830  22.444  0.00  0.00    +0.118 C 
ENDBRANCH  12  13
BRANCH  12  18
ATOM     18  C   UNL     1       8.983  -4.987  25.153  0.00  0.00    +0.325 C 
ATOM     19  O   UNL     1      10.181  -4.944  24.914  0.00  0.00    -0.249 OA
BRANCH  18  20
ATOM     20  O   UNL     1       8.476  -5.808  26.101  0.00  0.00    -0.479 OA
ATOM     21  H   UNL     1       7.742  -5.419  26.635  0.00  0.00    +0.295 HD
ENDBRANCH  18  20
ENDBRANCH  12  18
ENDBRANCH   1  12
TORSDOF 7
ENDMDL
MODEL 7
REMARK VINA RESULT:      -5.1      3.028      5.763
REMARK  Name = 
REMARK  7 active torsions:
REMARK  status: ('A' for Active; 'I' for Inactive)
REMARK    1  A    between atoms: N_4  and  C_5
REMARK    2  A    between atoms: C_5  and  C_6
REMARK    3  A    between atoms: C_6  and  C_7
REMARK    4  A    between atoms: C_7  and  C_8
REMARK    5  A    between atoms: C_8  and  N_10
REMARK    6  A    between atoms: C_8  and  C_15
REMARK    7  A    between atoms: C_15  and  O_16
REMARK                            x       y       z     vdW  Elec       q    Type
REMARK                         _______ _______ _______ _____ _____    ______ ____
ROOT
ATOM      1  C   UNL     1       7.362  -3.014  23.033  0.00  0.00    +0.037 C 
ENDROOT
BRANCH   1   2
ATOM      2  C   UNL     1       8.386  -2.216  22.210  0.00  0.00    +0.039 C 
BRANCH   2   3
ATOM      3  C   UNL     1       9.674  -1.959  22.989  0.00  0.00    +0.196 C 
BRANCH   3   8
ATOM      4  N   UNL     1       9.501  -0.121  26.087  0.00  0.00    -0.289 N 
ATOM      5  H   UNL     1       8.656  -0.554  26.428  0.00  0.00    +0.255 HD
ATOM      6  H   UNL     1       9.626   0.829  26.409  0.00  0.00    +0.255 HD
ATOM      7  C   UNL     1       9.867  -0.383  24.823  0.00  0.00    +0.376 C 
ATOM      8  N   UNL     1       9.395  -1.563  24.356  0.00  0.00    -0.276 N 
ATOM      9  H   UNL     1       8.521  -1.894  24.736  0.00  0.00    +0.258 HD
ATOM     10  N   UNL     1      10.632   0.395  24.144  0.00  0.00    -0.130 NA
ATOM     11  H   UNL     1      10.896   1.199  24.715  0.00  0.00    +0.306 HD
ENDBRANCH   3   8
ENDBRANCH   2   3
ENDBRANCH   1   2
BRANCH   1  12
ATOM     12  C   UNL     1       7.544  -4.536  22.922  0.00  0.00    +0.184 C 
BRANCH  12  13
ATOM     13  N   UNL     1       7.693  -5.168  24.219  0.00  0.00    -0.288 N 
ATOM     14  C   UNL     1       8.788  -5.100  25.013  0.00  0.00    +0.218 C 
ATOM     15  O   UNL     1       9.921  -4.795  24.713  0.00  0.00    -0.276 OA
ATOM     16  C   UNL     1       7.928  -5.226  26.281  0.00  0.00    +0.115 C 
ATOM     17  C   UNL     1       6.728  -5.189  25.315  0.00  0.00    +0.118 C 
ENDBRANCH  12  13
BRANCH  12  18
ATOM     18  C   UNL     1       6.435  -5.174  22.069  0.00  0.00    +0.325 C 
ATOM     19  O   UNL     1       5.584  -4.518  21.485  0.00  0.00    -0.249 OA
BRANCH  18  20
ATOM     20  O   UNL     1       6.437  -6.526  22.036  0.00  0.00    -0.479 OA
ATOM     21  H   UNL     1       7.328  -6.940  22.132  0.00  0.00    +0.295 HD
ENDBRANCH  18  20
ENDBRANCH  12  18
ENDBRANCH   1  12
TORSDOF 7
ENDMDL
MODEL 8
REMARK VINA RESULT:      -5.1      3.244      5.800
REMARK  Name = 
REMARK  7 active torsions:
REMARK  status: ('A' for Active; 'I' for Inactive)
REMARK    1  A    between atoms: N_4  and  C_5
REMARK    2  A    between atoms: C_5  and  C_6
REMARK    3  A    between atoms: C_6  and  C_7
REMARK    4  A    between atoms: C_7  and  C_8
REMARK    5  A    between atoms: C_8  and  N_10
REMARK    6  A    between atoms: C_8  and  C_15
REMARK    7  A    between atoms: C_15  and  O_16
REMARK                            x       y       z     vdW  Elec       q    Type
REMARK                         _______ _______ _______ _____ _____    ______ ____
ROOT
ATOM      1  C   UNL     1       8.629  -2.648  24.241  0.00  0.00    +0.037 C 
ENDROOT
BRANCH   1   2
ATOM      2  C   UNL     1       9.019  -1.245  24.733  0.00  0.00    +0.039 C 
BRANCH   2   3
ATOM      3  C   UNL     1      10.115  -0.618  23.874  0.00  0.00    +0.196 C 
BRANCH   3   8
ATOM      4  N   UNL     1       8.880   1.289  21.073  0.00  0.00    -0.289 N 
ATOM      5  H   UNL     1       8.322   1.934  21.613  0.00  0.00    +0.255 HD
ATOM      6  H   UNL     1       8.515   1.119  20.147  0.00  0.00    +0.255 HD
ATOM      7  C   UNL     1       9.410   0.238  21.716  0.00  0.00    +0.376 C 
ATOM      8  N   UNL     1       9.589   0.447  23.042  0.00  0.00    -0.276 N 
ATOM      9  H   UNL     1       8.955   1.085  23.498  0.00  0.00    +0.258 HD
ATOM     10  N   UNL     1       9.755  -0.844  21.114  0.00  0.00    -0.130 NA
ATOM     11  H   UNL     1       9.566  -0.755  20.115  0.00  0.00    +0.306 HD
ENDBRANCH   3   8
ENDBRANCH   2   3
ENDBRANCH   1   2
BRANCH   1  12
ATOM     12  C   UNL     1       7.469  -2.638  23.231  0.00  0.00    +0.184 C 
BRANCH  12  13
ATOM     13  N   UNL     1       6.951  -3.970  22.979  0.00  0.00    -0.288 N 
ATOM     14  C   UNL     1       6.282  -4.362  21.868  0.00  0.00    +0.218 C 
ATOM     15  O   UNL     1       5.723  -3.677  21.041  0.00  0.00    -0.276 OA
ATOM     16  C   UNL     1       6.818  -5.797  22.002  0.00  0.00    +0.115 C 
ATOM     17  C   UNL     1       7.630  -5.245  23.191  0.00  0.00    +0.118 C 
ENDBRANCH  12  13
BRANCH  12  18
ATOM     18  C   UNL     1       6.377  -1.637  23.641  0.00  0.00    +0.325 C 
ATOM     19  O   UNL     1       5.546  -1.876  24.506  0.00  0.00    -0.249 OA
BRANCH  18  20
ATOM     20  O   UNL     1       6.369  -0.476  22.948  0.00  0.00    -0.479 OA
ATOM     21  H   UNL     1       7.167  -0.324  22.388  0.00  0.00    +0.295 HD
ENDBRANCH  18  20
ENDBRANCH  12  18
ENDBRANCH   1  12
TORSDOF 7
ENDMDL
MODEL 9
REMARK VINA RESULT:      -4.7      2.676      5.504
REMARK  Name = 
REMARK  7 active torsions:
REMARK  status: ('A' for Active; 'I' for Inactive)
REMARK    1  A    between atoms: N_4  and  C_5
REMARK    2  A    between atoms: C_5  and  C_6
REMARK    3  A    between atoms: C_6  and  C_7
REMARK    4  A    between atoms: C_7  and  C_8
REMARK    5  A    between atoms: C_8  and  N_10
REMARK    6  A    between atoms: C_8  and  C_15
REMARK    7  A    between atoms: C_15  and  O_16
REMARK                            x       y       z     vdW  Elec       q    Type
REMARK                         _______ _______ _______ _____ _____    ______ ____
ROOT
ATOM      1  C   UNL     1       7.859  -2.536  26.426  0.00  0.00    +0.037 C 
ENDROOT
BRANCH   1   2
ATOM      2  C   UNL     1       7.074  -1.367  25.810  0.00  0.00    +0.039 C 
BRANCH   2   3
ATOM      3  C   UNL     1       7.977  -0.419  25.023  0.00  0.00    +0.196 C 
BRANCH   3   8
ATOM      4  N   UNL     1      10.409  -1.644  22.658  0.00  0.00    -0.289 N 
ATOM      5  H   UNL     1      11.120  -1.873  23.337  0.00  0.00    +0.255 HD
ATOM      6  H   UNL     1      10.782  -1.383  21.756  0.00  0.00    +0.255 HD
ATOM      7  C   UNL     1       9.338  -0.961  23.089  0.00  0.00    +0.376 C 
ATOM      8  N   UNL     1       9.081  -1.131  24.407  0.00  0.00    -0.276 N 
ATOM      9  H   UNL     1       9.867  -1.322  25.010  0.00  0.00    +0.258 HD
ATOM     10  N   UNL     1       8.603  -0.254  22.307  0.00  0.00    -0.130 NA
ATOM     11  H   UNL     1       8.964  -0.310  21.354  0.00  0.00    +0.306 HD
ENDBRANCH   3   8
ENDBRANCH   2   3
ENDBRANCH   1   2
BRANCH   1  12
ATOM     12  C   UNL     1       7.239  -3.910  26.125  0.00  0.00    +0.184 C 
BRANCH  12  13
ATOM     13  N   UNL     1       7.184  -4.188  24.703  0.00  0.00    -0.288 N 
ATOM     14  C   UNL     1       8.244  -4.466  23.907  0.00  0.00    +0.218 C 
ATOM     15  O   UNL     1       9.417  -4.247  24.109  0.00  0.00    -0.276 OA
ATOM     16  C   UNL     1       7.378  -5.345  22.990  0.00  0.00    +0.115 C 
ATOM     17  C   UNL     1       6.250  -5.067  24.003  0.00  0.00    +0.118 C 
ENDBRANCH  12  13
BRANCH  12  18
ATOM     18  C   UNL     1       7.932  -5.025  26.927  0.00  0.00    +0.325 C 
ATOM     19  O   UNL     1       7.326  -5.967  27.419  0.00  0.00    -0.249 OA
BRANCH  18  20
ATOM     20  O   UNL     1       9.267  -4.877  27.087  0.00  0.00    -0.479 OA
ATOM     21  H   UNL     1       9.720  -5.647  27.509  0.00  0.00    +0.295 HD
ENDBRANCH  18  20
ENDBRANCH  12  18
ENDBRANCH   1  12
TORSDOF 7
ENDMDL
