MODEL 1
REMARK VINA RESULT:      -6.3      0.000      0.000
REMARK  Name = 
REMARK  0 active torsions:
REMARK  status: ('A' for Active; 'I' for Inactive)
REMARK                            x       y       z     vdW  Elec       q    Type
REMARK                         _______ _______ _______ _____ _____    ______ ____
ROOT
ATOM      1  N   UNL     1       4.738  -7.297  28.994  0.00  0.00    -0.329 N 
ATOM      2  H   UNL     1       5.379  -7.615  29.707  0.00  0.00    +0.145 HD
ATOM      3  H   UNL     1       4.038  -7.994  28.758  0.00  0.00    +0.145 HD
ATOM      4  C   UNL     1       5.290  -6.745  27.888  0.00  0.00    +0.194 A 
ATOM      5  N   UNL     1       6.427  -6.017  28.069  0.00  0.00    -0.295 N 
ATOM      6  H   UNL     1       6.787  -5.862  28.996  0.00  0.00    +0.172 HD
ATOM      7  C   UNL     1       7.094  -5.381  27.053  0.00  0.00    +0.260 A 
ATOM      8  O   UNL     1       8.090  -4.696  27.258  0.00  0.00    -0.267 OA
ATOM      9  C   UNL     1       6.539  -5.582  25.705  0.00  0.00    +0.067 A 
ATOM     10  C   UNL     1       5.378  -6.356  25.603  0.00  0.00    +0.082 A 
ATOM     11  C   UNL     1       4.817  -6.604  24.343  0.00  0.00    +0.056 A 
ATOM     12  C   UNL     1       5.482  -6.078  23.232  0.00  0.00    +0.068 A 
ATOM     13  N   UNL     1       5.239  -6.162  21.884  0.00  0.00    -0.344 N 
ATOM     14  H   UNL     1       4.478  -6.660  21.447  0.00  0.00    +0.167 HD
ATOM     15  C   UNL     1       6.230  -5.480  21.235  0.00  0.00    +0.197 A 
ATOM     16  N   UNL     1       7.080  -4.941  22.079  0.00  0.00    -0.236 NA
ATOM     17  C   UNL     1       6.638  -5.308  23.325  0.00  0.00    +0.090 A 
ATOM     18  C   UNL     1       7.182  -5.032  24.585  0.00  0.00    +0.045 A 
ATOM     19  N   UNL     1       4.751  -6.927  26.726  0.00  0.00    -0.216 NA
ENDROOT
TORSDOF 0
ENDMDL
MODEL 2
REMARK VINA RESULT:      -6.1      4.690      5.895
REMARK  Name = 
REMARK  0 active torsions:
REMARK  status: ('A' for Active; 'I' for Inactive)
REMARK                            x       y       z     vdW  Elec       q    Type
REMARK                         _______ _______ _______ _____ _____    ______ ____
ROOT
ATOM      1  N   UNL     1       9.936  -5.699  25.632  0.00  0.00    -0.329 N 
ATOM      2  H   UNL     1      10.049  -5.918  26.610  0.00  0.00    +0.145 HD
ATOM      3  H   UNL     1      10.741  -5.969  25.073  0.00  0.00    +0.145 HD
ATOM      4  C   UNL     1       9.522  -4.443  25.338  0.00  0.00    +0.194 A 
ATOM      5  N   UNL     1       8.646  -3.868  26.209  0.00  0.00    -0.295 N 
ATOM      6  H   UNL     1       8.293  -4.392  26.992  0.00  0.00    +0.172 HD
ATOM      7  C   UNL     1       8.121  -2.612  26.043  0.00  0.00    +0.260 A 
ATOM      8  O   UNL     1       7.299  -2.143  26.822  0.00  0.00    -0.267 OA
ATOM      9  C   UNL     1       8.614  -1.867  24.874  0.00  0.00    +0.067 A 
ATOM     10  C   UNL     1       9.525  -2.522  24.038  0.00  0.00    +0.082 A 
ATOM     11  C   UNL     1      10.049  -1.855  22.924  0.00  0.00    +0.056 A 
ATOM     12  C   UNL     1       9.648  -0.531  22.723  0.00  0.00    +0.068 A 
ATOM     13  N   UNL     1       9.991   0.407  21.781  0.00  0.00    -0.344 N 
ATOM     14  H   UNL     1      10.642   0.275  21.022  0.00  0.00    +0.167 HD
ATOM     15  C   UNL     1       9.320   1.560  22.074  0.00  0.00    +0.197 A 
ATOM     16  N   UNL     1       8.548   1.419  23.126  0.00  0.00    -0.236 NA
ATOM     17  C   UNL     1       8.744   0.129  23.551  0.00  0.00    +0.090 A 
ATOM     18  C   UNL     1       8.194  -0.547  24.646  0.00  0.00    +0.045 A 
ATOM     19  N   UNL     1       9.963  -3.836  24.284  0.00  0.00    -0.216 NA
ENDROOT
TORSDOF 0
ENDMDL
MODEL 3
REMARK VINA RESULT:      -6.1      4.859      7.001
REMARK  Name = 
REMARK  0 active torsions:
REMARK  status: ('A' for Active; 'I' for Inactive)
REMARK                            x       y       z     vdW  Elec       q    Type
REMARK                         _______ _______ _______ _____ _____    ______ ____
ROOT
ATOM      1  N   UNL     1      10.033   2.247  21.483  0.00  0.00    -0.329 N 
ATOM      2  H   UNL     1       9.955   3.132  21.961  0.00  0.00    +0.145 HD
ATOM      3  H   UNL     1       9.500   2.221  20.618  0.00  0.00    +0.145 HD
ATOM      4  C   UNL     1       9.830   1.136  22.230  0.00  0.00    +0.194 A 
ATOM      5  N   UNL     1      10.257   1.182  23.522  0.00  0.00    -0.295 N 
ATOM      6  H   UNL     1      10.749   1.990  23.865  0.00  0.00    +0.172 HD
ATOM      7  C   UNL     1      10.141   0.133  24.400  0.00  0.00    +0.260 A 
ATOM      8  O   UNL     1      10.577   0.193  25.544  0.00  0.00    -0.267 OA
ATOM      9  C   UNL     1       9.455  -1.059  23.879  0.00  0.00    +0.067 A 
ATOM     10  C   UNL     1       9.032  -1.019  22.545  0.00  0.00    +0.082 A 
ATOM     11  C   UNL     1       8.350  -2.114  22.000  0.00  0.00    +0.056 A 
ATOM     12  C   UNL     1       8.096  -3.197  22.847  0.00  0.00    +0.068 A 
ATOM     13  N   UNL     1       7.432  -4.383  22.658  0.00  0.00    -0.344 N 
ATOM     14  H   UNL     1       6.985  -4.685  21.806  0.00  0.00    +0.167 HD
ATOM     15  C   UNL     1       7.455  -5.069  23.840  0.00  0.00    +0.197 A 
ATOM     16  N   UNL     1       8.112  -4.414  24.769  0.00  0.00    -0.236 NA
ATOM     17  C   UNL     1       8.511  -3.243  24.175  0.00  0.00    +0.090 A 
ATOM     18  C   UNL     1       9.221  -2.163  24.712  0.00  0.00    +0.045 A 
ATOM     19  N   UNL     1       9.245   0.100  21.720  0.00  0.00    -0.216 NA
ENDROOT
TORSDOF 0
ENDMDL
MODEL 4
REMARK VINA RESULT:      -6.0      4.195      5.422
REMARK  Name = 
REMARK  0 active torsions:
REMARK  status: ('A' for Active; 'I' for Inactive)
REMARK                            x       y       z     vdW  Elec       q    Type
REMARK                         _______ _______ _______ _____ _____    ______ ____
ROOT
ATOM      1  N   UNL     1       8.316  -5.641  26.729  0.00  0.00    -0.329 N 
ATOM      2  H   UNL     1       7.436  -6.099  26.915  0.00  0.00    +0.145 HD
ATOM      3  H   UNL     1       8.703  -5.187  27.552  0.00  0.00    +0.145 HD
ATOM      4  C   UNL     1       8.360  -4.832  25.644  0.00  0.00    +0.194 A 
ATOM      5  N   UNL     1       7.621  -5.215  24.566  0.00  0.00    -0.295 N 
ATOM      6  H   UNL     1       7.122  -6.088  24.578  0.00  0.00    +0.172 HD
ATOM      7  C   UNL     1       7.575  -4.514  23.387  0.00  0.00    +0.260 A 
ATOM      8  O   UNL     1       6.934  -4.911  22.420  0.00  0.00    -0.267 OA
ATOM      9  C   UNL     1       8.337  -3.257  23.365  0.00  0.00    +0.067 A 
ATOM     10  C   UNL     1       9.058  -2.927  24.519  0.00  0.00    +0.082 A 
ATOM     11  C   UNL     1       9.782  -1.730  24.567  0.00  0.00    +0.056 A 
ATOM     12  C   UNL     1       9.718  -0.897  23.446  0.00  0.00    +0.068 A 
ATOM     13  N   UNL     1      10.258   0.336  23.178  0.00  0.00    -0.344 N 
ATOM     14  H   UNL     1      10.833   0.882  23.803  0.00  0.00    +0.167 HD
ATOM     15  C   UNL     1       9.849   0.711  21.929  0.00  0.00    +0.197 A 
ATOM     16  N   UNL     1       9.105  -0.212  21.366  0.00  0.00    -0.236 NA
ATOM     17  C   UNL     1       9.004  -1.216  22.295  0.00  0.00    +0.090 A 
ATOM     18  C   UNL     1       8.305  -2.428  22.233  0.00  0.00    +0.045 A 
ATOM     19  N   UNL     1       9.067  -3.748  25.661  0.00  0.00    -0.216 NA
ENDROOT
TORSDOF 0
ENDMDL
MODEL 5
REMARK VINA RESULT:      -5.9      5.473      7.071
REMARK  Name = 
REMARK  0 active torsions:
REMARK  status: ('A' for Active; 'I' for Inactive)
REMARK                            x       y       z     vdW  Elec       q    Type
REMARK                         _______ _______ _______ _____ _____    ______ ____
ROOT
ATOM      1  N   UNL     1       7.547  -4.568  22.568  0.00  0.00    -0.329 N 
ATOM      2  H   UNL     1       7.848  -5.394  23.064  0.00  0.00    +0.145 HD
ATOM      3  H   UNL     1       7.668  -4.650  21.562  0.00  0.00    +0.145 HD
ATOM      4  C   UNL     1       8.007  -3.382  23.033  0.00  0.00    +0.194 A 
ATOM      5  N   UNL     1       8.162  -3.273  24.381  0.00  0.00    -0.295 N 
ATOM      6  H   UNL     1       7.887  -4.028  24.986  0.00  0.00    +0.172 HD
ATOM      7  C   UNL     1       8.599  -2.133  25.007  0.00  0.00    +0.260 A 
ATOM      8  O   UNL     1       8.685  -2.054  26.228  0.00  0.00    -0.267 OA
ATOM      9  C   UNL     1       8.964  -1.019  24.118  0.00  0.00    +0.067 A 
ATOM     10  C   UNL     1       8.790  -1.218  22.743  0.00  0.00    +0.082 A 
ATOM     11  C   UNL     1       9.144  -0.204  21.845  0.00  0.00    +0.056 A 
ATOM     12  C   UNL     1       9.692   0.965  22.382  0.00  0.00    +0.068 A 
ATOM     13  N   UNL     1      10.175   2.111  21.802  0.00  0.00    -0.344 N 
ATOM     14  H   UNL     1      10.214   2.306  20.812  0.00  0.00    +0.167 HD
ATOM     15  C   UNL     1      10.627   2.928  22.800  0.00  0.00    +0.197 A 
ATOM     16  N   UNL     1      10.442   2.394  23.984  0.00  0.00    -0.236 NA
ATOM     17  C   UNL     1       9.870   1.170  23.747  0.00  0.00    +0.090 A 
ATOM     18  C   UNL     1       9.487   0.170  24.649  0.00  0.00    +0.045 A 
ATOM     19  N   UNL     1       8.289  -2.421  22.214  0.00  0.00    -0.216 NA
ENDROOT
TORSDOF 0
ENDMDL
MODEL 6
REMARK VINA RESULT:      -5.9      2.496      4.055
REMARK  Name = 
REMARK  0 active torsions:
REMARK  status: ('A' for Active; 'I' for Inactive)
REMARK                            x       y       z     vdW  Elec       q    Type
REMARK                         _______ _______ _______ _____ _____    ______ ____
ROOT
ATOM      1  N   UNL     1       3.251  -6.398  22.968  0.00  0.00    -0.329 N 
ATOM      2  H   UNL     1       3.160  -7.373  23.211  0.00  0.00    +0.145 HD
ATOM      3  H   UNL     1       3.026  -6.214  21.994  0.00  0.00    +0.145 HD
ATOM      4  C   UNL     1       4.400  -5.786  23.341  0.00  0.00    +0.194 A 
ATOM      5  N   UNL     1       4.950  -6.185  24.521  0.00  0.00    -0.295 N 
ATOM      6  H   UNL     1       4.477  -6.860  25.099  0.00  0.00    +0.172 HD
ATOM      7  C   UNL     1       6.100  -5.651  25.044  0.00  0.00    +0.260 A 
ATOM      8  O   UNL     1       6.543  -6.002  26.132  0.00  0.00    -0.267 OA
ATOM      9  C   UNL     1       6.766  -4.638  24.212  0.00  0.00    +0.067 A 
ATOM     10  C   UNL     1       6.145  -4.295  23.005  0.00  0.00    +0.082 A 
ATOM     11  C   UNL     1       6.744  -3.355  22.157  0.00  0.00    +0.056 A 
ATOM     12  C   UNL     1       7.974  -2.824  22.559  0.00  0.00    +0.068 A 
ATOM     13  N   UNL     1       8.835  -1.935  21.964  0.00  0.00    -0.344 N 
ATOM     14  H   UNL     1       8.705  -1.490  21.068  0.00  0.00    +0.167 HD
ATOM     15  C   UNL     1       9.917  -1.787  22.786  0.00  0.00    +0.197 A 
ATOM     16  N   UNL     1       9.796  -2.501  23.881  0.00  0.00    -0.236 NA
ATOM     17  C   UNL     1       8.599  -3.160  23.756  0.00  0.00    +0.090 A 
ATOM     18  C   UNL     1       7.985  -4.075  24.619  0.00  0.00    +0.045 A 
ATOM     19  N   UNL     1       4.936  -4.881  22.588  0.00  0.00    -0.216 NA
ENDROOT
TORSDOF 0
ENDMDL
MODEL 7
REMARK VINA RESULT:      -5.9      2.987      4.067
REMARK  Name = 
REMARK  0 active torsions:
REMARK  status: ('A' for Active; 'I' for Inactive)
REMARK                            x       y       z     vdW  Elec       q    Type
REMARK                         _______ _______ _______ _____ _____    ______ ____
ROOT
ATOM      1  N   UNL     1       5.303  -6.729  26.587  0.00  0.00    -0.329 N 
ATOM      2  H   UNL     1       4.325  -6.652  26.826  0.00  0.00    +0.145 HD
ATOM      3  H   UNL     1       5.908  -6.719  27.403  0.00  0.00    +0.145 HD
ATOM      4  C   UNL     1       5.755  -5.897  25.618  0.00  0.00    +0.194 A 
ATOM      5  N   UNL     1       4.889  -5.607  24.607  0.00  0.00    -0.295 N 
ATOM      6  H   UNL     1       3.985  -6.048  24.572  0.00  0.00    +0.172 HD
ATOM      7  C   UNL     1       5.203  -4.798  23.545  0.00  0.00    +0.260 A 
ATOM      8  O   UNL     1       4.414  -4.595  22.628  0.00  0.00    -0.267 OA
ATOM      9  C   UNL     1       6.540  -4.187  23.584  0.00  0.00    +0.067 A 
ATOM     10  C   UNL     1       7.363  -4.523  24.666  0.00  0.00    +0.082 A 
ATOM     11  C   UNL     1       8.638  -3.954  24.771  0.00  0.00    +0.056 A 
ATOM     12  C   UNL     1       9.013  -3.037  23.785  0.00  0.00    +0.068 A 
ATOM     13  N   UNL     1      10.144  -2.279  23.609  0.00  0.00    -0.344 N 
ATOM     14  H   UNL     1      10.949  -2.263  24.217  0.00  0.00    +0.167 HD
ATOM     15  C   UNL     1       9.972  -1.523  22.484  0.00  0.00    +0.197 A 
ATOM     16  N   UNL     1       8.816  -1.764  21.910  0.00  0.00    -0.236 NA
ATOM     17  C   UNL     1       8.201  -2.696  22.707  0.00  0.00    +0.090 A 
ATOM     18  C   UNL     1       6.939  -3.289  22.583  0.00  0.00    +0.045 A 
ATOM     19  N   UNL     1       6.950  -5.405  25.681  0.00  0.00    -0.216 NA
ENDROOT
TORSDOF 0
ENDMDL
MODEL 8
REMARK VINA RESULT:      -5.9      6.222      8.338
REMARK  Name = 
REMARK  0 active torsions:
REMARK  status: ('A' for Active; 'I' for Inactive)
REMARK                            x       y       z     vdW  Elec       q    Type
REMARK                         _______ _______ _______ _____ _____    ______ ____
ROOT
ATOM      1  N   UNL     1      10.962   3.734  22.987  0.00  0.00    -0.329 N 
ATOM      2  H   UNL     1      11.576   3.893  22.203  0.00  0.00    +0.145 HD
ATOM      3  H   UNL     1      11.385   3.993  23.875  0.00  0.00    +0.145 HD
ATOM      4  C   UNL     1      10.365   2.520  23.052  0.00  0.00    +0.194 A 
ATOM      5  N   UNL     1      10.019   1.945  21.866  0.00  0.00    -0.295 N 
ATOM      6  H   UNL     1      10.156   2.443  21.003  0.00  0.00    +0.172 HD
ATOM      7  C   UNL     1       9.391   0.730  21.765  0.00  0.00    +0.260 A 
ATOM      8  O   UNL     1       9.053   0.262  20.683  0.00  0.00    -0.267 OA
ATOM      9  C   UNL     1       9.160   0.025  23.035  0.00  0.00    +0.067 A 
ATOM     10  C   UNL     1       9.560   0.677  24.208  0.00  0.00    +0.082 A 
ATOM     11  C   UNL     1       9.389   0.046  25.446  0.00  0.00    +0.056 A 
ATOM     12  C   UNL     1       8.846  -1.242  25.438  0.00  0.00    +0.068 A 
ATOM     13  N   UNL     1       8.588  -2.143  26.441  0.00  0.00    -0.344 N 
ATOM     14  H   UNL     1       8.766  -2.004  27.425  0.00  0.00    +0.167 HD
ATOM     15  C   UNL     1       8.078  -3.274  25.869  0.00  0.00    +0.197 A 
ATOM     16  N   UNL     1       7.967  -3.151  24.567  0.00  0.00    -0.236 NA
ATOM     17  C   UNL     1       8.447  -1.898  24.277  0.00  0.00    +0.090 A 
ATOM     18  C   UNL     1       8.587  -1.255  23.041  0.00  0.00    +0.045 A 
ATOM     19  N   UNL     1      10.158   1.951  24.195  0.00  0.00    -0.216 NA
ENDROOT
TORSDOF 0
ENDMDL
MODEL 9
REMARK VINA RESULT:      -5.8      6.132      7.988
REMARK  Name = 
REMARK  0 active torsions:
REMARK  status: ('A' for Active; 'I' for Inactive)
REMARK                            x       y       z     vdW  Elec       q    Type
REMARK                         _______ _______ _______ _____ _____    ______ ____
ROOT
ATOM      1  N   UNL     1       6.281   3.653  21.867  0.00  0.00    -0.329 N 
ATOM      2  H   UNL     1       6.618   4.570  22.118  0.00  0.00    +0.145 HD
ATOM      3  H   UNL     1       5.341   3.473  22.211  0.00  0.00    +0.145 HD
ATOM      4  C   UNL     1       7.112   2.614  22.118  0.00  0.00    +0.194 A 
ATOM      5  N   UNL     1       8.446   2.847  21.966  0.00  0.00    -0.295 N 
ATOM      6  H   UNL     1       8.769   3.738  21.627  0.00  0.00    +0.172 HD
ATOM      7  C   UNL     1       9.412   1.894  22.163  0.00  0.00    +0.260 A 
ATOM      8  O   UNL     1      10.601   2.126  21.974  0.00  0.00    -0.267 OA
ATOM      9  C   UNL     1       8.928   0.583  22.622  0.00  0.00    +0.067 A 
ATOM     10  C   UNL     1       7.545   0.430  22.768  0.00  0.00    +0.082 A 
ATOM     11  C   UNL     1       7.025  -0.788  23.227  0.00  0.00    +0.056 A 
ATOM     12  C   UNL     1       7.942  -1.793  23.550  0.00  0.00    +0.068 A 
ATOM     13  N   UNL     1       7.784  -3.060  24.054  0.00  0.00    -0.344 N 
ATOM     14  H   UNL     1       6.908  -3.501  24.292  0.00  0.00    +0.167 HD
ATOM     15  C   UNL     1       9.027  -3.607  24.210  0.00  0.00    +0.197 A 
ATOM     16  N   UNL     1       9.971  -2.786  23.814  0.00  0.00    -0.236 NA
ATOM     17  C   UNL     1       9.318  -1.648  23.408  0.00  0.00    +0.090 A 
ATOM     18  C   UNL     1       9.837  -0.444  22.920  0.00  0.00    +0.045 A 
ATOM     19  N   UNL     1       6.638   1.470  22.494  0.00  0.00    -0.216 NA
ENDROOT
TORSDOF 0
ENDMDL
