MODEL 1
REMARK VINA RESULT:      -7.7      0.000      0.000
REMARK  Name = 
REMARK  15 active torsions:
REMARK  status: ('A' for Active; 'I' for Inactive)
REMARK    1  A    between atoms: N_6  and  C_9
REMARK    2  A    between atoms: C_12  and  C_14
REMARK    3  A    between atoms: C_14  and  O_15
REMARK    4  A    between atoms: O_15  and  P_16
REMARK    5  A    between atoms: P_16  and  O_17
REMARK    6  A    between atoms: P_16  and  O_19
REMARK    7  A    between atoms: O_19  and  P_20
REMARK    8  A    between atoms: P_20  and  O_21
REMARK    9  A    between atoms: P_20  and  O_23
REMARK   10  A    between atoms: O_23  and  C_24
REMARK   11  A    between atoms: C_28  and  O_30
REMARK   12  A    between atoms: C_31  and  O_33
REMARK   13  A    between atoms: C_34  and  O_36
REMARK   14  A    between atoms: C_37  and  O_39
REMARK   15  A    between atoms: C_40  and  O_42
REMARK                            x       y       z     vdW  Elec       q    Type
REMARK                         _______ _______ _______ _____ _____    ______ ____
ROOT
ATOM      1  P   UNL     1       9.416  -1.407  22.617  0.00  0.00    +0.483 P 
ATOM      2  O   UNL     1      10.451  -2.401  23.003  0.00  0.00    -0.227 OA
ENDROOT
BRANCH   1   3
ATOM      3  O   UNL     1       9.857  -0.336  21.503  0.00  0.00    -0.302 OA
ATOM      4  H   UNL     1      10.681   0.112  21.806  0.00  0.00    +0.222 HD
ENDBRANCH   1   3
BRANCH   1   5
ATOM      5  O   UNL     1       8.068  -2.023  21.988  0.00  0.00    -0.284 OA
BRANCH   5   6
ATOM      6  C   UNL     1       6.876  -1.885  22.755  0.00  0.00    +0.206 C 
BRANCH   6  10
ATOM      7  C   UNL     1       7.395  -5.175  24.208  0.00  0.00    +0.255 C 
ATOM      8  C   UNL     1       6.573  -5.557  22.958  0.00  0.00    +0.195 C 
ATOM      9  C   UNL     1       5.939  -4.248  22.489  0.00  0.00    +0.178 C 
ATOM     10  C   UNL     1       6.462  -3.184  23.451  0.00  0.00    +0.178 C 
ATOM     11  O   UNL     1       7.570  -3.749  24.152  0.00  0.00    -0.346 OA
BRANCH   7  18
ATOM     12  N   UNL     1       5.539  -6.272  29.291  0.00  0.00    -0.343 N 
ATOM     13  H   UNL     1       4.554  -6.146  29.482  0.00  0.00    +0.144 HD
ATOM     14  H   UNL     1       6.148  -5.862  29.993  0.00  0.00    +0.144 HD
ATOM     15  C   UNL     1       5.976  -6.025  28.020  0.00  0.00    +0.123 A 
ATOM     16  C   UNL     1       5.048  -6.196  26.890  0.00  0.00    +0.061 A 
ATOM     17  C   UNL     1       5.533  -5.900  25.688  0.00  0.00    +0.096 A 
ATOM     18  N   UNL     1       6.841  -5.512  25.519  0.00  0.00    -0.270 N 
ATOM     19  C   UNL     1       7.698  -5.366  26.622  0.00  0.00    +0.352 A 
ATOM     20  O   UNL     1       8.873  -5.024  26.484  0.00  0.00    -0.244 OA
ATOM     21  N   UNL     1       7.199  -5.628  27.878  0.00  0.00    -0.178 NA
ENDBRANCH   7  18
BRANCH   8  22
ATOM     22  O   UNL     1       7.421  -6.069  21.912  0.00  0.00    -0.385 OA
ATOM     23  H   UNL     1       8.258  -6.362  22.331  0.00  0.00    +0.210 HD
ENDBRANCH   8  22
BRANCH   9  24
ATOM     24  O   UNL     1       4.512  -4.312  22.568  0.00  0.00    -0.386 OA
ATOM     25  H   UNL     1       4.157  -3.824  21.803  0.00  0.00    +0.210 HD
ENDBRANCH   9  24
ENDBRANCH   6  10
ENDBRANCH   5   6
ENDBRANCH   1   5
BRANCH   1  26
ATOM     26  O   UNL     1       8.892  -0.486  23.803  0.00  0.00    -0.186 OA
BRANCH  26  27
ATOM     27  P   UNL     1       9.930   0.481  24.516  0.00  0.00    +0.486 P 
ATOM     28  O   UNL     1      11.319   0.468  23.974  0.00  0.00    -0.227 OA
BRANCH  27  29
ATOM     29  O   UNL     1       9.783   0.095  26.062  0.00  0.00    -0.302 OA
ATOM     30  H   UNL     1      10.598  -0.250  26.463  0.00  0.00    +0.222 HD
ENDBRANCH  27  29
BRANCH  27  31
ATOM     31  O   UNL     1       9.184   1.894  24.498  0.00  0.00    -0.254 OA
BRANCH  31  32
ATOM     32  C   UNL     1       9.608   2.825  23.518  0.00  0.00    +0.293 C 
ATOM     33  C   UNL     1       9.175   4.227  23.986  0.00  0.00    +0.202 C 
ATOM     34  C   UNL     1       7.634   4.324  23.942  0.00  0.00    +0.178 C 
ATOM     35  C   UNL     1       7.098   3.951  22.556  0.00  0.00    +0.171 C 
ATOM     36  C   UNL     1       7.673   2.605  22.091  0.00  0.00    +0.197 C 
ATOM     37  O   UNL     1       9.090   2.504  22.224  0.00  0.00    -0.346 OA
BRANCH  33  38
ATOM     38  O   UNL     1       9.826   5.224  23.196  0.00  0.00    -0.384 OA
ATOM     39  H   UNL     1      10.527   5.636  23.733  0.00  0.00    +0.210 HD
ENDBRANCH  33  38
BRANCH  34  40
ATOM     40  O   UNL     1       7.024   3.482  24.938  0.00  0.00    -0.386 OA
ATOM     41  H   UNL     1       7.543   2.667  25.001  0.00  0.00    +0.210 HD
ENDBRANCH  34  40
BRANCH  35  42
ATOM     42  O   UNL     1       7.413   5.008  21.645  0.00  0.00    -0.387 OA
ATOM     43  H   UNL     1       6.664   5.124  21.035  0.00  0.00    +0.210 HD
ENDBRANCH  35  42
ENDBRANCH  31  32
ENDBRANCH  27  31
ENDBRANCH  26  27
ENDBRANCH   1  26
TORSDOF 15
ENDMDL
MODEL 2
REMARK VINA RESULT:      -7.7      0.900      1.676
REMARK  Name = 
REMARK  15 active torsions:
REMARK  status: ('A' for Active; 'I' for Inactive)
REMARK    1  A    between atoms: N_6  and  C_9
REMARK    2  A    between atoms: C_12  and  C_14
REMARK    3  A    between atoms: C_14  and  O_15
REMARK    4  A    between atoms: O_15  and  P_16
REMARK    5  A    between atoms: P_16  and  O_17
REMARK    6  A    between atoms: P_16  and  O_19
REMARK    7  A    between atoms: O_19  and  P_20
REMARK    8  A    between atoms: P_20  and  O_21
REMARK    9  A    between atoms: P_20  and  O_23
REMARK   10  A    between atoms: O_23  and  C_24
REMARK   11  A    between atoms: C_28  and  O_30
REMARK   12  A    between atoms: C_31  and  O_33
REMARK   13  A    between atoms: C_34  and  O_36
REMARK   14  A    between atoms: C_37  and  O_39
REMARK   15  A    between atoms: C_40  and  O_42
REMARK                            x       y       z     vdW  Elec       q    Type
REMARK                         _______ _______ _______ _____ _____    ______ ____
ROOT
ATOM      1  P   UNL     1       9.350  -1.532  22.957  0.00  0.00    +0.483 P 
ATOM      2  O   UNL     1      10.394  -2.577  23.124  0.00  0.00    -0.227 OA
ENDROOT
BRANCH   1   3
ATOM      3  O   UNL     1       9.776  -0.252  22.083  0.00  0.00    -0.302 OA
ATOM      4  H   UNL     1       9.400   0.556  22.504  0.00  0.00    +0.222 HD
ENDBRANCH   1   3
BRANCH   1   5
ATOM      5  O   UNL     1       8.000  -2.015  22.226  0.00  0.00    -0.284 OA
BRANCH   5   6
ATOM      6  C   UNL     1       6.791  -1.920  22.972  0.00  0.00    +0.206 C 
BRANCH   6  10
ATOM      7  C   UNL     1       7.316  -5.257  24.313  0.00  0.00    +0.255 C 
ATOM      8  C   UNL     1       6.537  -5.600  23.025  0.00  0.00    +0.195 C 
ATOM      9  C   UNL     1       5.897  -4.283  22.588  0.00  0.00    +0.178 C 
ATOM     10  C   UNL     1       6.377  -3.251  23.606  0.00  0.00    +0.178 C 
ATOM     11  O   UNL     1       7.471  -3.827  24.317  0.00  0.00    -0.346 OA
BRANCH   7  18
ATOM     12  N   UNL     1       5.319  -6.562  29.292  0.00  0.00    -0.343 N 
ATOM     13  H   UNL     1       4.321  -6.499  29.442  0.00  0.00    +0.144 HD
ATOM     14  H   UNL     1       5.871  -6.130  30.026  0.00  0.00    +0.144 HD
ATOM     15  C   UNL     1       5.793  -6.264  28.045  0.00  0.00    +0.123 A 
ATOM     16  C   UNL     1       4.925  -6.470  26.873  0.00  0.00    +0.061 A 
ATOM     17  C   UNL     1       5.442  -6.121  25.699  0.00  0.00    +0.096 A 
ATOM     18  N   UNL     1       6.729  -5.651  25.593  0.00  0.00    -0.270 N 
ATOM     19  C   UNL     1       7.529  -5.476  26.734  0.00  0.00    +0.352 A 
ATOM     20  O   UNL     1       8.685  -5.061  26.652  0.00  0.00    -0.244 OA
ATOM     21  N   UNL     1       6.994  -5.792  27.962  0.00  0.00    -0.178 NA
ENDBRANCH   7  18
BRANCH   8  22
ATOM     22  O   UNL     1       7.423  -6.060  21.986  0.00  0.00    -0.385 OA
ATOM     23  H   UNL     1       6.879  -6.213  21.185  0.00  0.00    +0.210 HD
ENDBRANCH   8  22
BRANCH   9  24
ATOM     24  O   UNL     1       4.470  -4.370  22.622  0.00  0.00    -0.386 OA
ATOM     25  H   UNL     1       4.239  -5.308  22.746  0.00  0.00    +0.210 HD
ENDBRANCH   9  24
ENDBRANCH   6  10
ENDBRANCH   5   6
ENDBRANCH   1   5
BRANCH   1  26
ATOM     26  O   UNL     1       8.832  -0.877  24.311  0.00  0.00    -0.186 OA
BRANCH  26  27
ATOM     27  P   UNL     1       9.558   0.435  24.835  0.00  0.00    +0.486 P 
ATOM     28  O   UNL     1      11.044   0.369  24.932  0.00  0.00    -0.227 OA
BRANCH  27  29
ATOM     29  O   UNL     1       8.785   0.758  26.197  0.00  0.00    -0.302 OA
ATOM     30  H   UNL     1       8.406  -0.025  26.632  0.00  0.00    +0.222 HD
ENDBRANCH  27  29
BRANCH  27  31
ATOM     31  O   UNL     1       8.968   1.580  23.889  0.00  0.00    -0.254 OA
BRANCH  31  32
ATOM     32  C   UNL     1       7.625   1.968  24.120  0.00  0.00    +0.293 C 
ATOM     33  C   UNL     1       6.838   1.725  22.819  0.00  0.00    +0.202 C 
ATOM     34  C   UNL     1       7.325   2.715  21.737  0.00  0.00    +0.178 C 
ATOM     35  C   UNL     1       7.244   4.161  22.238  0.00  0.00    +0.171 C 
ATOM     36  C   UNL     1       7.933   4.305  23.603  0.00  0.00    +0.197 C 
ATOM     37  O   UNL     1       7.534   3.326  24.560  0.00  0.00    -0.346 OA
BRANCH  33  38
ATOM     38  O   UNL     1       5.435   1.816  23.078  0.00  0.00    -0.384 OA
ATOM     39  H   UNL     1       5.020   0.967  22.841  0.00  0.00    +0.210 HD
ENDBRANCH  33  38
BRANCH  34  40
ATOM     40  O   UNL     1       8.671   2.422  21.323  0.00  0.00    -0.386 OA
ATOM     41  H   UNL     1       8.822   1.472  21.442  0.00  0.00    +0.210 HD
ENDBRANCH  34  40
BRANCH  35  42
ATOM     42  O   UNL     1       5.868   4.549  22.292  0.00  0.00    -0.387 OA
ATOM     43  H   UNL     1       5.733   5.096  23.085  0.00  0.00    +0.210 HD
ENDBRANCH  35  42
ENDBRANCH  31  32
ENDBRANCH  27  31
ENDBRANCH  26  27
ENDBRANCH   1  26
TORSDOF 15
ENDMDL
MODEL 3
REMARK VINA RESULT:      -7.7      3.852      8.458
REMARK  Name = 
REMARK  15 active torsions:
REMARK  status: ('A' for Active; 'I' for Inactive)
REMARK    1  A    between atoms: N_6  and  C_9
REMARK    2  A    between atoms: C_12  and  C_14
REMARK    3  A    between atoms: C_14  and  O_15
REMARK    4  A    between atoms: O_15  and  P_16
REMARK    5  A    between atoms: P_16  and  O_17
REMARK    6  A    between atoms: P_16  and  O_19
REMARK    7  A    between atoms: O_19  and  P_20
REMARK    8  A    between atoms: P_20  and  O_21
REMARK    9  A    between atoms: P_20  and  O_23
REMARK   10  A    between atoms: O_23  and  C_24
REMARK   11  A    between atoms: C_28  and  O_30
REMARK   12  A    between atoms: C_31  and  O_33
REMARK   13  A    between atoms: C_34  and  O_36
REMARK   14  A    between atoms: C_37  and  O_39
REMARK   15  A    between atoms: C_40  and  O_42
REMARK                            x       y       z     vdW  Elec       q    Type
REMARK                         _______ _______ _______ _____ _____    ______ ____
ROOT
ATOM      1  P   UNL     1       5.969  -4.858  22.695  0.00  0.00    +0.483 P 
ATOM      2  O   UNL     1       5.159  -5.645  21.729  0.00  0.00    -0.227 OA
ENDROOT
BRANCH   1   3
ATOM      3  O   UNL     1       7.556  -4.866  22.444  0.00  0.00    -0.302 OA
ATOM      4  H   UNL     1       7.902  -3.955  22.590  0.00  0.00    +0.222 HD
ENDBRANCH   1   3
BRANCH   1   5
ATOM      5  O   UNL     1       5.637  -3.284  22.753  0.00  0.00    -0.284 OA
BRANCH   5   6
ATOM      6  C   UNL     1       5.733  -2.650  24.024  0.00  0.00    +0.206 C 
BRANCH   6  10
ATOM      7  C   UNL     1       9.194  -1.824  23.286  0.00  0.00    +0.255 C 
ATOM      8  C   UNL     1       9.379  -2.631  24.589  0.00  0.00    +0.195 C 
ATOM      9  C   UNL     1       7.990  -2.679  25.223  0.00  0.00    +0.178 C 
ATOM     10  C   UNL     1       7.077  -1.950  24.240  0.00  0.00    +0.178 C 
ATOM     11  O   UNL     1       7.784  -1.836  23.005  0.00  0.00    -0.346 OA
BRANCH   7  18
ATOM     12  N   UNL     1      10.759   3.459  22.952  0.00  0.00    -0.343 N 
ATOM     13  H   UNL     1      10.609   4.058  23.754  0.00  0.00    +0.144 HD
ATOM     14  H   UNL     1      10.456   3.870  22.074  0.00  0.00    +0.144 HD
ATOM     15  C   UNL     1      10.392   2.147  23.063  0.00  0.00    +0.123 A 
ATOM     16  C   UNL     1      10.396   1.504  24.387  0.00  0.00    +0.061 A 
ATOM     17  C   UNL     1       9.992   0.238  24.421  0.00  0.00    +0.096 A 
ATOM     18  N   UNL     1       9.647  -0.434  23.273  0.00  0.00    -0.270 N 
ATOM     19  C   UNL     1       9.664   0.211  22.026  0.00  0.00    +0.352 A 
ATOM     20  O   UNL     1       9.362  -0.381  20.990  0.00  0.00    -0.244 OA
ATOM     21  N   UNL     1      10.039   1.535  21.979  0.00  0.00    -0.178 NA
ENDBRANCH   7  18
BRANCH   8  22
ATOM     22  O   UNL     1       9.815  -3.977  24.313  0.00  0.00    -0.385 OA
ATOM     23  H   UNL     1       9.146  -4.386  23.724  0.00  0.00    +0.210 HD
ENDBRANCH   8  22
BRANCH   9  24
ATOM     24  O   UNL     1       7.978  -2.005  26.484  0.00  0.00    -0.386 OA
ATOM     25  H   UNL     1       7.181  -1.446  26.507  0.00  0.00    +0.210 HD
ENDBRANCH   9  24
ENDBRANCH   6  10
ENDBRANCH   5   6
ENDBRANCH   1   5
BRANCH   1  26
ATOM     26  O   UNL     1       5.849  -5.324  24.211  0.00  0.00    -0.186 OA
BRANCH  26  27
ATOM     27  P   UNL     1       4.496  -6.012  24.679  0.00  0.00    +0.486 P 
ATOM     28  O   UNL     1       4.404  -7.486  24.475  0.00  0.00    -0.227 OA
BRANCH  27  29
ATOM     29  O   UNL     1       3.373  -5.136  23.950  0.00  0.00    -0.302 OA
ATOM     30  H   UNL     1       3.531  -4.178  23.991  0.00  0.00    +0.222 HD
ENDBRANCH  27  29
BRANCH  27  31
ATOM     31  O   UNL     1       4.330  -5.501  26.184  0.00  0.00    -0.254 OA
BRANCH  31  32
ATOM     32  C   UNL     1       5.510  -5.085  26.849  0.00  0.00    +0.293 C 
ATOM     33  C   UNL     1       6.100  -6.313  27.567  0.00  0.00    +0.202 C 
ATOM     34  C   UNL     1       5.157  -6.731  28.718  0.00  0.00    +0.178 C 
ATOM     35  C   UNL     1       4.878  -5.551  29.656  0.00  0.00    +0.171 C 
ATOM     36  C   UNL     1       4.422  -4.319  28.863  0.00  0.00    +0.197 C 
ATOM     37  O   UNL     1       5.257  -4.003  27.750  0.00  0.00    -0.346 OA
BRANCH  33  38
ATOM     38  O   UNL     1       7.431  -6.027  28.003  0.00  0.00    -0.384 OA
ATOM     39  H   UNL     1       7.386  -5.611  28.882  0.00  0.00    +0.210 HD
ENDBRANCH  33  38
BRANCH  34  40
ATOM     40  O   UNL     1       3.914  -7.255  28.217  0.00  0.00    -0.386 OA
ATOM     41  H   UNL     1       3.280  -7.275  28.949  0.00  0.00    +0.210 HD
ENDBRANCH  34  40
BRANCH  35  42
ATOM     42  O   UNL     1       6.058  -5.286  30.420  0.00  0.00    -0.387 OA
ATOM     43  H   UNL     1       5.933  -5.644  31.316  0.00  0.00    +0.210 HD
ENDBRANCH  35  42
ENDBRANCH  31  32
ENDBRANCH  27  31
ENDBRANCH  26  27
ENDBRANCH   1  26
TORSDOF 15
ENDMDL
MODEL 4
REMARK VINA RESULT:      -7.6      3.925      8.518
REMARK  Name = 
REMARK  15 active torsions:
REMARK  status: ('A' for Active; 'I' for Inactive)
REMARK    1  A    between atoms: N_6  and  C_9
REMARK    2  A    between atoms: C_12  and  C_14
REMARK    3  A    between atoms: C_14  and  O_15
REMARK    4  A    between atoms: O_15  and  P_16
REMARK    5  A    between atoms: P_16  and  O_17
REMARK    6  A    between atoms: P_16  and  O_19
REMARK    7  A    between atoms: O_19  and  P_20
REMARK    8  A    between atoms: P_20  and  O_21
REMARK    9  A    between atoms: P_20  and  O_23
REMARK   10  A    between atoms: O_23  and  C_24
REMARK   11  A    between atoms: C_28  and  O_30
REMARK   12  A    between atoms: C_31  and  O_33
REMARK   13  A    between atoms: C_34  and  O_36
REMARK   14  A    between atoms: C_37  and  O_39
REMARK   15  A    between atoms: C_40  and  O_42
REMARK                            x       y       z     vdW  Elec       q    Type
REMARK                         _______ _______ _______ _____ _____    ______ ____
ROOT
ATOM      1  P   UNL     1       7.125  -5.267  27.115  0.00  0.00    +0.483 P 
ATOM      2  O   UNL     1       7.215  -6.274  28.204  0.00  0.00    -0.227 OA
ENDROOT
BRANCH   1   3
ATOM      3  O   UNL     1       7.945  -3.905  27.352  0.00  0.00    -0.302 OA
ATOM      4  H   UNL     1       8.369  -3.641  26.502  0.00  0.00    +0.222 HD
ENDBRANCH   1   3
BRANCH   1   5
ATOM      5  O   UNL     1       7.671  -5.752  25.679  0.00  0.00    -0.284 OA
BRANCH   5   6
ATOM      6  C   UNL     1       8.788  -5.052  25.143  0.00  0.00    +0.206 C 
BRANCH   6  10
ATOM      7  C   UNL     1       7.302  -1.838  24.325  0.00  0.00    +0.255 C 
ATOM      8  C   UNL     1       6.317  -2.785  23.606  0.00  0.00    +0.195 C 
ATOM      9  C   UNL     1       7.049  -4.123  23.517  0.00  0.00    +0.178 C 
ATOM     10  C   UNL     1       8.382  -3.895  24.226  0.00  0.00    +0.178 C 
ATOM     11  O   UNL     1       8.268  -2.684  24.972  0.00  0.00    -0.346 OA
BRANCH   7  18
ATOM     12  N   UNL     1      10.093   2.018  21.529  0.00  0.00    -0.343 N 
ATOM     13  H   UNL     1      10.815   1.720  20.887  0.00  0.00    +0.144 HD
ATOM     14  H   UNL     1      10.381   2.773  22.146  0.00  0.00    +0.144 HD
ATOM     15  C   UNL     1       9.392   1.049  22.191  0.00  0.00    +0.123 A 
ATOM     16  C   UNL     1       9.230  -0.276  21.571  0.00  0.00    +0.061 A 
ATOM     17  C   UNL     1       8.570  -1.178  22.291  0.00  0.00    +0.096 A 
ATOM     18  N   UNL     1       8.027  -0.862  23.513  0.00  0.00    -0.270 N 
ATOM     19  C   UNL     1       8.197   0.417  24.068  0.00  0.00    +0.352 A 
ATOM     20  O   UNL     1       7.713   0.715  25.160  0.00  0.00    -0.244 OA
ATOM     21  N   UNL     1       8.915   1.350  23.355  0.00  0.00    -0.178 NA
ENDBRANCH   7  18
BRANCH   8  22
ATOM     22  O   UNL     1       5.109  -2.960  24.371  0.00  0.00    -0.385 OA
ATOM     23  H   UNL     1       5.298  -3.623  25.069  0.00  0.00    +0.210 HD
ENDBRANCH   8  22
BRANCH   9  24
ATOM     24  O   UNL     1       7.282  -4.490  22.155  0.00  0.00    -0.386 OA
ATOM     25  H   UNL     1       6.703  -3.935  21.601  0.00  0.00    +0.210 HD
ENDBRANCH   9  24
ENDBRANCH   6  10
ENDBRANCH   5   6
ENDBRANCH   1   5
BRANCH   1  26
ATOM     26  O   UNL     1       5.656  -4.743  26.801  0.00  0.00    -0.186 OA
BRANCH  26  27
ATOM     27  P   UNL     1       4.451  -5.768  26.938  0.00  0.00    +0.486 P 
ATOM     28  O   UNL     1       3.617  -5.641  28.168  0.00  0.00    -0.227 OA
BRANCH  27  29
ATOM     29  O   UNL     1       5.154  -7.187  26.717  0.00  0.00    -0.302 OA
ATOM     30  H   UNL     1       4.792  -7.899  27.272  0.00  0.00    +0.222 HD
ENDBRANCH  27  29
BRANCH  27  31
ATOM     31  O   UNL     1       3.677  -5.608  25.549  0.00  0.00    -0.254 OA
BRANCH  31  32
ATOM     32  C   UNL     1       4.121  -6.421  24.477  0.00  0.00    +0.293 C 
ATOM     33  C   UNL     1       3.695  -5.737  23.164  0.00  0.00    +0.202 C 
ATOM     34  C   UNL     1       2.155  -5.779  23.044  0.00  0.00    +0.178 C 
ATOM     35  C   UNL     1       1.631  -7.212  23.183  0.00  0.00    +0.171 C 
ATOM     36  C   UNL     1       2.200  -7.882  24.442  0.00  0.00    +0.197 C 
ATOM     37  O   UNL     1       3.614  -7.755  24.579  0.00  0.00    -0.346 OA
BRANCH  33  38
ATOM     38  O   UNL     1       4.364  -6.350  22.060  0.00  0.00    -0.384 OA
ATOM     39  H   UNL     1       3.825  -6.219  21.259  0.00  0.00    +0.210 HD
ENDBRANCH  33  38
BRANCH  34  40
ATOM     40  O   UNL     1       1.527  -4.937  24.029  0.00  0.00    -0.386 OA
ATOM     41  H   UNL     1       2.225  -4.529  24.563  0.00  0.00    +0.210 HD
ENDBRANCH  34  40
BRANCH  35  42
ATOM     42  O   UNL     1       1.967  -7.938  21.997  0.00  0.00    -0.387 OA
ATOM     43  H   UNL     1       1.239  -8.551  21.794  0.00  0.00    +0.210 HD
ENDBRANCH  35  42
ENDBRANCH  31  32
ENDBRANCH  27  31
ENDBRANCH  26  27
ENDBRANCH   1  26
TORSDOF 15
ENDMDL
MODEL 5
REMARK VINA RESULT:      -7.6      3.808      8.412
REMARK  Name = 
REMARK  15 active torsions:
REMARK  status: ('A' for Active; 'I' for Inactive)
REMARK    1  A    between atoms: N_6  and  C_9
REMARK    2  A    between atoms: C_12  and  C_14
REMARK    3  A    between atoms: C_14  and  O_15
REMARK    4  A    between atoms: O_15  and  P_16
REMARK    5  A    between atoms: P_16  and  O_17
REMARK    6  A    between atoms: P_16  and  O_19
REMARK    7  A    between atoms: O_19  and  P_20
REMARK    8  A    between atoms: P_20  and  O_21
REMARK    9  A    between atoms: P_20  and  O_23
REMARK   10  A    between atoms: O_23  and  C_24
REMARK   11  A    between atoms: C_28  and  O_30
REMARK   12  A    between atoms: C_31  and  O_33
REMARK   13  A    between atoms: C_34  and  O_36
REMARK   14  A    between atoms: C_37  and  O_39
REMARK   15  A    between atoms: C_40  and  O_42
REMARK                            x       y       z     vdW  Elec       q    Type
REMARK                         _______ _______ _______ _____ _____    ______ ____
ROOT
ATOM      1  P   UNL     1       8.660  -4.331  24.564  0.00  0.00    +0.483 P 
ATOM      2  O   UNL     1       9.354  -5.642  24.485  0.00  0.00    -0.227 OA
ENDROOT
BRANCH   1   3
ATOM      3  O   UNL     1       8.960  -3.459  25.880  0.00  0.00    -0.302 OA
ATOM      4  H   UNL     1       8.660  -3.968  26.669  0.00  0.00    +0.222 HD
ENDBRANCH   1   3
BRANCH   1   5
ATOM      5  O   UNL     1       9.004  -3.295  23.379  0.00  0.00    -0.284 OA
BRANCH   5   6
ATOM      6  C   UNL     1       7.935  -2.487  22.897  0.00  0.00    +0.206 C 
BRANCH   6  10
ATOM      7  C   UNL     1       8.969   0.124  25.203  0.00  0.00    +0.255 C 
ATOM      8  C   UNL     1       7.544  -0.153  25.727  0.00  0.00    +0.195 C 
ATOM      9  C   UNL     1       6.852  -0.921  24.602  0.00  0.00    +0.178 C 
ATOM     10  C   UNL     1       7.918  -1.090  23.522  0.00  0.00    +0.178 C 
ATOM     11  O   UNL     1       9.181  -0.793  24.117  0.00  0.00    -0.346 OA
BRANCH   7  18
ATOM     12  N   UNL     1      10.353   5.088  23.222  0.00  0.00    -0.343 N 
ATOM     13  H   UNL     1       9.624   5.673  22.838  0.00  0.00    +0.144 HD
ATOM     14  H   UNL     1      11.178   5.023  22.633  0.00  0.00    +0.144 HD
ATOM     15  C   UNL     1       9.988   3.874  23.735  0.00  0.00    +0.123 A 
ATOM     16  C   UNL     1       8.632   3.698  24.280  0.00  0.00    +0.061 A 
ATOM     17  C   UNL     1       8.338   2.480  24.726  0.00  0.00    +0.096 A 
ATOM     18  N   UNL     1       9.272   1.472  24.724  0.00  0.00    -0.270 N 
ATOM     19  C   UNL     1      10.558   1.681  24.202  0.00  0.00    +0.352 A 
ATOM     20  O   UNL     1      11.405   0.788  24.199  0.00  0.00    -0.244 OA
ATOM     21  N   UNL     1      10.865   2.924  23.697  0.00  0.00    -0.178 NA
ENDBRANCH   7  18
BRANCH   8  22
ATOM     22  O   UNL     1       7.573  -0.977  26.909  0.00  0.00    -0.385 OA
ATOM     23  H   UNL     1       7.471  -1.908  26.619  0.00  0.00    +0.210 HD
ENDBRANCH   8  22
BRANCH   9  24
ATOM     24  O   UNL     1       5.747  -0.180  24.079  0.00  0.00    -0.386 OA
ATOM     25  H   UNL     1       5.478  -0.608  23.246  0.00  0.00    +0.210 HD
ENDBRANCH   9  24
ENDBRANCH   6  10
ENDBRANCH   5   6
ENDBRANCH   1   5
BRANCH   1  26
ATOM     26  O   UNL     1       7.071  -4.408  24.547  0.00  0.00    -0.186 OA
BRANCH  26  27
ATOM     27  P   UNL     1       6.321  -4.713  25.913  0.00  0.00    +0.486 P 
ATOM     28  O   UNL     1       6.156  -3.559  26.843  0.00  0.00    -0.227 OA
BRANCH  27  29
ATOM     29  O   UNL     1       7.125  -5.967  26.495  0.00  0.00    -0.302 OA
ATOM     30  H   UNL     1       8.091  -5.876  26.446  0.00  0.00    +0.222 HD
ENDBRANCH  27  29
BRANCH  27  31
ATOM     31  O   UNL     1       4.973  -5.428  25.437  0.00  0.00    -0.254 OA
BRANCH  31  32
ATOM     32  C   UNL     1       5.060  -6.243  24.281  0.00  0.00    +0.293 C 
ATOM     33  C   UNL     1       4.421  -5.468  23.114  0.00  0.00    +0.202 C 
ATOM     34  C   UNL     1       2.901  -5.339  23.360  0.00  0.00    +0.178 C 
ATOM     35  C   UNL     1       2.264  -6.711  23.602  0.00  0.00    +0.171 C 
ATOM     36  C   UNL     1       3.030  -7.486  24.685  0.00  0.00    +0.197 C 
ATOM     37  O   UNL     1       4.442  -7.517  24.485  0.00  0.00    -0.346 OA
BRANCH  33  38
ATOM     38  O   UNL     1       4.740  -6.107  21.876  0.00  0.00    -0.384 OA
ATOM     39  H   UNL     1       4.639  -5.458  21.157  0.00  0.00    +0.210 HD
ENDBRANCH  33  38
BRANCH  34  40
ATOM     40  O   UNL     1       2.619  -4.472  24.474  0.00  0.00    -0.386 OA
ATOM     41  H   UNL     1       2.597  -5.013  25.278  0.00  0.00    +0.210 HD
ENDBRANCH  34  40
BRANCH  35  42
ATOM     42  O   UNL     1       2.229  -7.423  22.362  0.00  0.00    -0.387 OA
ATOM     43  H   UNL     1       1.918  -8.329  22.535  0.00  0.00    +0.210 HD
ENDBRANCH  35  42
ENDBRANCH  31  32
ENDBRANCH  27  31
ENDBRANCH  26  27
ENDBRANCH   1  26
TORSDOF 15
ENDMDL
MODEL 6
REMARK VINA RESULT:      -7.6      3.901      8.506
REMARK  Name = 
REMARK  15 active torsions:
REMARK  status: ('A' for Active; 'I' for Inactive)
REMARK    1  A    between atoms: N_6  and  C_9
REMARK    2  A    between atoms: C_12  and  C_14
REMARK    3  A    between atoms: C_14  and  O_15
REMARK    4  A    between atoms: O_15  and  P_16
REMARK    5  A    between atoms: P_16  and  O_17
REMARK    6  A    between atoms: P_16  and  O_19
REMARK    7  A    between atoms: O_19  and  P_20
REMARK    8  A    between atoms: P_20  and  O_21
REMARK    9  A    between atoms: P_20  and  O_23
REMARK   10  A    between atoms: O_23  and  C_24
REMARK   11  A    between atoms: C_28  and  O_30
REMARK   12  A    between atoms: C_31  and  O_33
REMARK   13  A    between atoms: C_34  and  O_36
REMARK   14  A    between atoms: C_37  and  O_39
REMARK   15  A    between atoms: C_40  and  O_42
REMARK                            x       y       z     vdW  Elec       q    Type
REMARK                         _______ _______ _______ _____ _____    ______ ____
ROOT
ATOM      1  P   UNL     1       7.724  -4.979  26.648  0.00  0.00    +0.483 P 
ATOM      2  O   UNL     1       9.140  -4.627  26.933  0.00  0.00    -0.227 OA
ENDROOT
BRANCH   1   3
ATOM      3  O   UNL     1       6.643  -3.832  26.962  0.00  0.00    -0.302 OA
ATOM      4  H   UNL     1       6.905  -3.012  26.483  0.00  0.00    +0.222 HD
ENDBRANCH   1   3
BRANCH   1   5
ATOM      5  O   UNL     1       7.400  -5.349  25.115  0.00  0.00    -0.284 OA
BRANCH   5   6
ATOM      6  C   UNL     1       8.338  -4.919  24.135  0.00  0.00    +0.206 C 
BRANCH   6  10
ATOM      7  C   UNL     1       7.593  -1.371  24.388  0.00  0.00    +0.255 C 
ATOM      8  C   UNL     1       6.255  -1.891  23.820  0.00  0.00    +0.195 C 
ATOM      9  C   UNL     1       6.570  -3.284  23.279  0.00  0.00    +0.178 C 
ATOM     10  C   UNL     1       8.044  -3.514  23.604  0.00  0.00    +0.178 C 
ATOM     11  O   UNL     1       8.429  -2.528  24.563  0.00  0.00    -0.346 OA
BRANCH   7  18
ATOM     12  N   UNL     1      10.506   2.459  21.683  0.00  0.00    -0.343 N 
ATOM     13  H   UNL     1      11.102   2.163  20.921  0.00  0.00    +0.144 HD
ATOM     14  H   UNL     1      10.961   3.093  22.334  0.00  0.00    +0.144 HD
ATOM     15  C   UNL     1       9.770   1.502  22.323  0.00  0.00    +0.123 A 
ATOM     16  C   UNL     1       9.365   0.291  21.589  0.00  0.00    +0.061 A 
ATOM     17  C   UNL     1       8.684  -0.612  22.288  0.00  0.00    +0.096 A 
ATOM     18  N   UNL     1       8.337  -0.391  23.599  0.00  0.00    -0.270 N 
ATOM     19  C   UNL     1       8.735   0.781  24.263  0.00  0.00    +0.352 A 
ATOM     20  O   UNL     1       8.427   0.993  25.435  0.00  0.00    -0.244 OA
ATOM     21  N   UNL     1       9.478   1.707  23.566  0.00  0.00    -0.178 NA
ENDBRANCH   7  18
BRANCH   8  22
ATOM     22  O   UNL     1       5.258  -2.003  24.854  0.00  0.00    -0.385 OA
ATOM     23  H   UNL     1       4.589  -2.651  24.546  0.00  0.00    +0.210 HD
ENDBRANCH   8  22
BRANCH   9  24
ATOM     24  O   UNL     1       6.373  -3.341  21.863  0.00  0.00    -0.386 OA
ATOM     25  H   UNL     1       5.595  -3.904  21.701  0.00  0.00    +0.210 HD
ENDBRANCH   9  24
ENDBRANCH   6  10
ENDBRANCH   5   6
ENDBRANCH   1   5
BRANCH   1  26
ATOM     26  O   UNL     1       7.164  -6.225  27.463  0.00  0.00    -0.186 OA
BRANCH  26  27
ATOM     27  P   UNL     1       5.776  -6.063  28.217  0.00  0.00    +0.486 P 
ATOM     28  O   UNL     1       5.753  -5.097  29.352  0.00  0.00    -0.227 OA
BRANCH  27  29
ATOM     29  O   UNL     1       5.382  -7.571  28.578  0.00  0.00    -0.302 OA
ATOM     30  H   UNL     1       5.359  -7.756  29.532  0.00  0.00    +0.222 HD
ENDBRANCH  27  29
BRANCH  27  31
ATOM     31  O   UNL     1       4.747  -5.772  27.029  0.00  0.00    -0.254 OA
BRANCH  31  32
ATOM     32  C   UNL     1       4.158  -6.900  26.407  0.00  0.00    +0.293 C 
ATOM     33  C   UNL     1       4.158  -6.649  24.887  0.00  0.00    +0.202 C 
ATOM     34  C   UNL     1       3.181  -5.497  24.561  0.00  0.00    +0.178 C 
ATOM     35  C   UNL     1       1.788  -5.779  25.132  0.00  0.00    +0.171 C 
ATOM     36  C   UNL     1       1.872  -6.153  26.619  0.00  0.00    +0.197 C 
ATOM     37  O   UNL     1       2.844  -7.157  26.910  0.00  0.00    -0.346 OA
BRANCH  33  38
ATOM     38  O   UNL     1       3.852  -7.862  24.196  0.00  0.00    -0.384 OA
ATOM     39  H   UNL     1       4.673  -8.212  23.806  0.00  0.00    +0.210 HD
ENDBRANCH  33  38
BRANCH  34  40
ATOM     40  O   UNL     1       3.664  -4.238  25.065  0.00  0.00    -0.386 OA
ATOM     41  H   UNL     1       3.058  -3.940  25.760  0.00  0.00    +0.210 HD
ENDBRANCH  34  40
BRANCH  35  42
ATOM     42  O   UNL     1       1.178  -6.815  24.357  0.00  0.00    -0.387 OA
ATOM     43  H   UNL     1       1.770  -7.037  23.618  0.00  0.00    +0.210 HD
ENDBRANCH  35  42
ENDBRANCH  31  32
ENDBRANCH  27  31
ENDBRANCH  26  27
ENDBRANCH   1  26
TORSDOF 15
ENDMDL
MODEL 7
REMARK VINA RESULT:      -7.6      2.279      4.020
REMARK  Name = 
REMARK  15 active torsions:
REMARK  status: ('A' for Active; 'I' for Inactive)
REMARK    1  A    between atoms: N_6  and  C_9
REMARK    2  A    between atoms: C_12  and  C_14
REMARK    3  A    between atoms: C_14  and  O_15
REMARK    4  A    between atoms: O_15  and  P_16
REMARK    5  A    between atoms: P_16  and  O_17
REMARK    6  A    between atoms: P_16  and  O_19
REMARK    7  A    between atoms: O_19  and  P_20
REMARK    8  A    between atoms: P_20  and  O_21
REMARK    9  A    between atoms: P_20  and  O_23
REMARK   10  A    between atoms: O_23  and  C_24
REMARK   11  A    between atoms: C_28  and  O_30
REMARK   12  A    between atoms: C_31  and  O_33
REMARK   13  A    between atoms: C_34  and  O_36
REMARK   14  A    between atoms: C_37  and  O_39
REMARK   15  A    between atoms: C_40  and  O_42
REMARK                            x       y       z     vdW  Elec       q    Type
REMARK                         _______ _______ _______ _____ _____    ______ ____
ROOT
ATOM      1  P   UNL     1       9.073  -2.099  24.283  0.00  0.00    +0.483 P 
ATOM      2  O   UNL     1      10.155  -1.081  24.251  0.00  0.00    -0.227 OA
ENDROOT
BRANCH   1   3
ATOM      3  O   UNL     1       8.584  -2.645  22.853  0.00  0.00    -0.302 OA
ATOM      4  H   UNL     1       7.708  -3.083  22.966  0.00  0.00    +0.222 HD
ENDBRANCH   1   3
BRANCH   1   5
ATOM      5  O   UNL     1       9.428  -3.459  25.069  0.00  0.00    -0.284 OA
BRANCH   5   6
ATOM      6  C   UNL     1       8.996  -4.679  24.475  0.00  0.00    +0.206 C 
BRANCH   6  10
ATOM      7  C   UNL     1       5.441  -4.366  25.158  0.00  0.00    +0.255 C 
ATOM      8  C   UNL     1       5.997  -4.350  26.598  0.00  0.00    +0.195 C 
ATOM      9  C   UNL     1       7.421  -4.889  26.477  0.00  0.00    +0.178 C 
ATOM     10  C   UNL     1       7.628  -5.137  24.985  0.00  0.00    +0.178 C 
ATOM     11  O   UNL     1       6.583  -4.458  24.289  0.00  0.00    -0.346 OA
BRANCH   7  18
ATOM     12  N   UNL     1       1.963  -8.315  23.487  0.00  0.00    -0.343 N 
ATOM     13  H   UNL     1       2.100  -9.255  23.832  0.00  0.00    +0.144 HD
ATOM     14  H   UNL     1       1.817  -8.265  22.482  0.00  0.00    +0.144 HD
ATOM     15  C   UNL     1       2.815  -7.344  23.934  0.00  0.00    +0.123 A 
ATOM     16  C   UNL     1       3.441  -7.486  25.259  0.00  0.00    +0.061 A 
ATOM     17  C   UNL     1       4.287  -6.521  25.609  0.00  0.00    +0.096 A 
ATOM     18  N   UNL     1       4.511  -5.435  24.797  0.00  0.00    -0.270 N 
ATOM     19  C   UNL     1       3.889  -5.332  23.542  0.00  0.00    +0.352 A 
ATOM     20  O   UNL     1       4.078  -4.363  22.807  0.00  0.00    -0.244 OA
ATOM     21  N   UNL     1       3.043  -6.343  23.146  0.00  0.00    -0.178 NA
ENDBRANCH   7  18
BRANCH   8  22
ATOM     22  O   UNL     1       6.046  -3.009  27.124  0.00  0.00    -0.385 OA
ATOM     23  H   UNL     1       6.027  -3.077  28.102  0.00  0.00    +0.210 HD
ENDBRANCH   8  22
BRANCH   9  24
ATOM     24  O   UNL     1       7.568  -6.116  27.197  0.00  0.00    -0.386 OA
ATOM     25  H   UNL     1       8.520  -6.320  27.231  0.00  0.00    +0.210 HD
ENDBRANCH   9  24
ENDBRANCH   6  10
ENDBRANCH   5   6
ENDBRANCH   1   5
BRANCH   1  26
ATOM     26  O   UNL     1       7.716  -1.617  24.959  0.00  0.00    -0.186 OA
BRANCH  26  27
ATOM     27  P   UNL     1       6.721  -0.732  24.093  0.00  0.00    +0.486 P 
ATOM     28  O   UNL     1       5.715   0.062  24.856  0.00  0.00    -0.227 OA
BRANCH  27  29
ATOM     29  O   UNL     1       6.128  -1.779  23.039  0.00  0.00    -0.302 OA
ATOM     30  H   UNL     1       5.360  -2.277  23.365  0.00  0.00    +0.222 HD
ENDBRANCH  27  29
BRANCH  27  31
ATOM     31  O   UNL     1       7.704   0.104  23.150  0.00  0.00    -0.254 OA
BRANCH  31  32
ATOM     32  C   UNL     1       7.573   1.515  23.187  0.00  0.00    +0.293 C 
ATOM     33  C   UNL     1       8.201   2.076  21.897  0.00  0.00    +0.202 C 
ATOM     34  C   UNL     1       9.729   1.847  21.935  0.00  0.00    +0.178 C 
ATOM     35  C   UNL     1      10.341   2.427  23.214  0.00  0.00    +0.171 C 
ATOM     36  C   UNL     1       9.584   1.932  24.455  0.00  0.00    +0.197 C 
ATOM     37  O   UNL     1       8.167   2.071  24.363  0.00  0.00    -0.346 OA
BRANCH  33  38
ATOM     38  O   UNL     1       7.840   3.450  21.741  0.00  0.00    -0.384 OA
ATOM     39  H   UNL     1       8.248   3.786  20.923  0.00  0.00    +0.210 HD
ENDBRANCH  33  38
BRANCH  34  40
ATOM     40  O   UNL     1      10.055   0.449  21.833  0.00  0.00    -0.386 OA
ATOM     41  H   UNL     1       9.308  -0.004  21.414  0.00  0.00    +0.210 HD
ENDBRANCH  34  40
BRANCH  35  42
ATOM     42  O   UNL     1      10.332   3.854  23.118  0.00  0.00    -0.387 OA
ATOM     43  H   UNL     1      11.249   4.173  23.173  0.00  0.00    +0.210 HD
ENDBRANCH  35  42
ENDBRANCH  31  32
ENDBRANCH  27  31
ENDBRANCH  26  27
ENDBRANCH   1  26
TORSDOF 15
ENDMDL
MODEL 8
REMARK VINA RESULT:      -7.5      3.886      8.522
REMARK  Name = 
REMARK  15 active torsions:
REMARK  status: ('A' for Active; 'I' for Inactive)
REMARK    1  A    between atoms: N_6  and  C_9
REMARK    2  A    between atoms: C_12  and  C_14
REMARK    3  A    between atoms: C_14  and  O_15
REMARK    4  A    between atoms: O_15  and  P_16
REMARK    5  A    between atoms: P_16  and  O_17
REMARK    6  A    between atoms: P_16  and  O_19
REMARK    7  A    between atoms: O_19  and  P_20
REMARK    8  A    between atoms: P_20  and  O_21
REMARK    9  A    between atoms: P_20  and  O_23
REMARK   10  A    between atoms: O_23  and  C_24
REMARK   11  A    between atoms: C_28  and  O_30
REMARK   12  A    between atoms: C_31  and  O_33
REMARK   13  A    between atoms: C_34  and  O_36
REMARK   14  A    between atoms: C_37  and  O_39
REMARK   15  A    between atoms: C_40  and  O_42
REMARK                            x       y       z     vdW  Elec       q    Type
REMARK                         _______ _______ _______ _____ _____    ______ ____
ROOT
ATOM      1  P   UNL     1       5.010  -5.927  23.342  0.00  0.00    +0.483 P 
ATOM      2  O   UNL     1       4.963  -5.786  21.864  0.00  0.00    -0.227 OA
ENDROOT
BRANCH   1   3
ATOM      3  O   UNL     1       4.532  -7.347  23.924  0.00  0.00    -0.302 OA
ATOM      4  H   UNL     1       5.236  -8.013  23.746  0.00  0.00    +0.222 HD
ENDBRANCH   1   3
BRANCH   1   5
ATOM      5  O   UNL     1       6.467  -5.755  24.006  0.00  0.00    -0.284 OA
BRANCH   5   6
ATOM      6  C   UNL     1       7.493  -5.215  23.180  0.00  0.00    +0.206 C 
BRANCH   6  10
ATOM      7  C   UNL     1       9.446  -2.382  24.350  0.00  0.00    +0.255 C 
ATOM      8  C   UNL     1       8.332  -2.403  25.417  0.00  0.00    +0.195 C 
ATOM      9  C   UNL     1       7.226  -3.269  24.816  0.00  0.00    +0.178 C 
ATOM     10  C   UNL     1       7.775  -3.738  23.470  0.00  0.00    +0.178 C 
ATOM     11  O   UNL     1       9.180  -3.489  23.471  0.00  0.00    -0.346 OA
BRANCH   7  18
ATOM     12  N   UNL     1      10.175   2.280  21.483  0.00  0.00    -0.343 N 
ATOM     13  H   UNL     1      10.394   2.210  20.498  0.00  0.00    +0.144 HD
ATOM     14  H   UNL     1      10.773   2.925  21.990  0.00  0.00    +0.144 HD
ATOM     15  C   UNL     1       9.968   1.116  22.171  0.00  0.00    +0.123 A 
ATOM     16  C   UNL     1       9.464  -0.067  21.455  0.00  0.00    +0.061 A 
ATOM     17  C   UNL     1       9.325  -1.172  22.182  0.00  0.00    +0.096 A 
ATOM     18  N   UNL     1       9.586  -1.178  23.532  0.00  0.00    -0.270 N 
ATOM     19  C   UNL     1      10.059  -0.027  24.180  0.00  0.00    +0.352 A 
ATOM     20  O   UNL     1      10.293  -0.018  25.389  0.00  0.00    -0.244 OA
ATOM     21  N   UNL     1      10.249   1.114  23.433  0.00  0.00    -0.178 NA
ENDBRANCH   7  18
BRANCH   8  22
ATOM     22  O   UNL     1       8.791  -3.012  26.640  0.00  0.00    -0.385 OA
ATOM     23  H   UNL     1       8.348  -3.883  26.718  0.00  0.00    +0.210 HD
ENDBRANCH   8  22
BRANCH   9  24
ATOM     24  O   UNL     1       6.032  -2.508  24.612  0.00  0.00    -0.386 OA
ATOM     25  H   UNL     1       5.654  -2.321  25.491  0.00  0.00    +0.210 HD
ENDBRANCH   9  24
ENDBRANCH   6  10
ENDBRANCH   5   6
ENDBRANCH   1   5
BRANCH   1  26
ATOM     26  O   UNL     1       4.106  -4.894  24.147  0.00  0.00    -0.186 OA
BRANCH  26  27
ATOM     27  P   UNL     1       3.082  -5.469  25.215  0.00  0.00    +0.486 P 
ATOM     28  O   UNL     1       2.096  -6.467  24.709  0.00  0.00    -0.227 OA
BRANCH  27  29
ATOM     29  O   UNL     1       2.462  -4.148  25.870  0.00  0.00    -0.302 OA
ATOM     30  H   UNL     1       2.993  -3.781  26.597  0.00  0.00    +0.222 HD
ENDBRANCH  27  29
BRANCH  27  31
ATOM     31  O   UNL     1       4.031  -5.963  26.402  0.00  0.00    -0.254 OA
BRANCH  31  32
ATOM     32  C   UNL     1       4.845  -4.980  27.017  0.00  0.00    +0.293 C 
ATOM     33  C   UNL     1       6.116  -5.680  27.532  0.00  0.00    +0.202 C 
ATOM     34  C   UNL     1       5.740  -6.626  28.695  0.00  0.00    +0.178 C 
ATOM     35  C   UNL     1       4.970  -5.876  29.788  0.00  0.00    +0.171 C 
ATOM     36  C   UNL     1       3.795  -5.091  29.188  0.00  0.00    +0.197 C 
ATOM     37  O   UNL     1       4.147  -4.292  28.060  0.00  0.00    -0.346 OA
BRANCH  33  38
ATOM     38  O   UNL     1       7.094  -4.703  27.894  0.00  0.00    -0.384 OA
ATOM     39  H   UNL     1       6.712  -3.817  27.759  0.00  0.00    +0.210 HD
ENDBRANCH  33  38
BRANCH  34  40
ATOM     40  O   UNL     1       4.958  -7.743  28.233  0.00  0.00    -0.386 OA
ATOM     41  H   UNL     1       5.270  -8.537  28.691  0.00  0.00    +0.210 HD
ENDBRANCH  34  40
BRANCH  35  42
ATOM     42  O   UNL     1       5.882  -5.021  30.483  0.00  0.00    -0.387 OA
ATOM     43  H   UNL     1       6.026  -4.222  29.946  0.00  0.00    +0.210 HD
ENDBRANCH  35  42
ENDBRANCH  31  32
ENDBRANCH  27  31
ENDBRANCH  26  27
ENDBRANCH   1  26
TORSDOF 15
ENDMDL
MODEL 9
REMARK VINA RESULT:      -7.4      1.918      3.241
REMARK  Name = 
REMARK  15 active torsions:
REMARK  status: ('A' for Active; 'I' for Inactive)
REMARK    1  A    between atoms: N_6  and  C_9
REMARK    2  A    between atoms: C_12  and  C_14
REMARK    3  A    between atoms: C_14  and  O_15
REMARK    4  A    between atoms: O_15  and  P_16
REMARK    5  A    between atoms: P_16  and  O_17
REMARK    6  A    between atoms: P_16  and  O_19
REMARK    7  A    between atoms: O_19  and  P_20
REMARK    8  A    between atoms: P_20  and  O_21
REMARK    9  A    between atoms: P_20  and  O_23
REMARK   10  A    between atoms: O_23  and  C_24
REMARK   11  A    between atoms: C_28  and  O_30
REMARK   12  A    between atoms: C_31  and  O_33
REMARK   13  A    between atoms: C_34  and  O_36
REMARK   14  A    between atoms: C_37  and  O_39
REMARK   15  A    between atoms: C_40  and  O_42
REMARK                            x       y       z     vdW  Elec       q    Type
REMARK                         _______ _______ _______ _____ _____    ______ ____
ROOT
ATOM      1  P   UNL     1       9.477  -2.135  23.279  0.00  0.00    +0.483 P 
ATOM      2  O   UNL     1      10.606  -1.706  22.413  0.00  0.00    -0.227 OA
ENDROOT
BRANCH   1   3
ATOM      3  O   UNL     1       8.006  -1.774  22.741  0.00  0.00    -0.302 OA
ATOM      4  H   UNL     1       7.399  -2.517  22.964  0.00  0.00    +0.222 HD
ENDBRANCH   1   3
BRANCH   1   5
ATOM      5  O   UNL     1       9.370  -3.721  23.537  0.00  0.00    -0.284 OA
BRANCH   5   6
ATOM      6  C   UNL     1       9.276  -4.150  24.891  0.00  0.00    +0.206 C 
BRANCH   6  10
ATOM      7  C   UNL     1       5.667  -3.935  25.256  0.00  0.00    +0.255 C 
ATOM      8  C   UNL     1       6.090  -3.948  26.740  0.00  0.00    +0.195 C 
ATOM      9  C   UNL     1       7.532  -4.452  26.735  0.00  0.00    +0.178 C 
ATOM     10  C   UNL     1       7.878  -4.653  25.262  0.00  0.00    +0.178 C 
ATOM     11  O   UNL     1       6.885  -3.976  24.492  0.00  0.00    -0.346 OA
BRANCH   7  18
ATOM     12  N   UNL     1       2.445  -7.902  23.169  0.00  0.00    -0.343 N 
ATOM     13  H   UNL     1       2.588  -8.853  23.482  0.00  0.00    +0.144 HD
ATOM     14  H   UNL     1       2.368  -7.812  22.160  0.00  0.00    +0.144 HD
ATOM     15  C   UNL     1       3.231  -6.928  23.718  0.00  0.00    +0.123 A 
ATOM     16  C   UNL     1       3.767  -7.113  25.077  0.00  0.00    +0.061 A 
ATOM     17  C   UNL     1       4.554  -6.141  25.528  0.00  0.00    +0.096 A 
ATOM     18  N   UNL     1       4.800  -5.013  24.782  0.00  0.00    -0.270 N 
ATOM     19  C   UNL     1       4.264  -4.871  23.492  0.00  0.00    +0.352 A 
ATOM     20  O   UNL     1       4.473  -3.863  22.816  0.00  0.00    -0.244 OA
ATOM     21  N   UNL     1       3.481  -5.887  22.993  0.00  0.00    -0.178 NA
ENDBRANCH   7  18
BRANCH   8  22
ATOM     22  O   UNL     1       6.058  -2.622  27.304  0.00  0.00    -0.385 OA
ATOM     23  H   UNL     1       6.346  -2.694  28.238  0.00  0.00    +0.210 HD
ENDBRANCH   8  22
BRANCH   9  24
ATOM     24  O   UNL     1       7.643  -5.696  27.432  0.00  0.00    -0.386 OA
ATOM     25  H   UNL     1       7.654  -6.404  26.762  0.00  0.00    +0.210 HD
ENDBRANCH   9  24
ENDBRANCH   6  10
ENDBRANCH   5   6
ENDBRANCH   1   5
BRANCH   1  26
ATOM     26  O   UNL     1       9.479  -1.514  24.743  0.00  0.00    -0.186 OA
BRANCH  26  27
ATOM     27  P   UNL     1       9.771   0.038  24.899  0.00  0.00    +0.486 P 
ATOM     28  O   UNL     1      11.207   0.440  24.896  0.00  0.00    -0.227 OA
BRANCH  27  29
ATOM     29  O   UNL     1       8.940   0.436  26.206  0.00  0.00    -0.302 OA
ATOM     30  H   UNL     1       8.115  -0.067  26.318  0.00  0.00    +0.222 HD
ENDBRANCH  27  29
BRANCH  27  31
ATOM     31  O   UNL     1       8.858   0.697  23.764  0.00  0.00    -0.254 OA
BRANCH  31  32
ATOM     32  C   UNL     1       9.444   1.737  23.001  0.00  0.00    +0.293 C 
ATOM     33  C   UNL     1       9.347   3.034  23.827  0.00  0.00    +0.202 C 
ATOM     34  C   UNL     1       7.865   3.453  23.944  0.00  0.00    +0.178 C 
ATOM     35  C   UNL     1       7.212   3.561  22.562  0.00  0.00    +0.171 C 
ATOM     36  C   UNL     1       7.460   2.288  21.741  0.00  0.00    +0.197 C 
ATOM     37  O   UNL     1       8.823   1.868  21.719  0.00  0.00    -0.346 OA
BRANCH  33  38
ATOM     38  O   UNL     1      10.175   4.042  23.244  0.00  0.00    -0.384 OA
ATOM     39  H   UNL     1       9.608   4.781  22.957  0.00  0.00    +0.210 HD
ENDBRANCH  33  38
BRANCH  34  40
ATOM     40  O   UNL     1       7.120   2.531  24.760  0.00  0.00    -0.386 OA
ATOM     41  H   UNL     1       7.092   2.883  25.663  0.00  0.00    +0.210 HD
ENDBRANCH  34  40
BRANCH  35  42
ATOM     42  O   UNL     1       7.722   4.725  21.906  0.00  0.00    -0.387 OA
ATOM     43  H   UNL     1       7.103   4.976  21.199  0.00  0.00    +0.210 HD
ENDBRANCH  35  42
ENDBRANCH  31  32
ENDBRANCH  27  31
ENDBRANCH  26  27
ENDBRANCH   1  26
TORSDOF 15
ENDMDL
