MODEL 1
REMARK VINA RESULT:      -7.6      0.000      0.000
REMARK  Name = 
REMARK  5 active torsions:
REMARK  status: ('A' for Active; 'I' for Inactive)
REMARK    1  A    between atoms: N_1  and  C_2
REMARK    2  A    between atoms: C_2  and  C_3
REMARK    3  A    between atoms: C_6  and  N_7
REMARK    4  A    between atoms: C_8  and  C_10
REMARK    5  A    between atoms: C_15  and  C_20
REMARK                            x       y       z     vdW  Elec       q    Type
REMARK                         _______ _______ _______ _____ _____    ______ ____
ROOT
ATOM      1  C   UNL     1       7.608  -3.475  23.331  0.00  0.00    +0.038 A 
ATOM      2  C   UNL     1       7.170  -3.952  24.571  0.00  0.00    +0.021 A 
ATOM      3  C   UNL     1       6.163  -4.917  24.649  0.00  0.00    -0.017 A 
ATOM      4  C   UNL     1       5.609  -5.440  23.457  0.00  0.00    -0.017 A 
ATOM      5  C   UNL     1       4.590  -6.403  23.548  0.00  0.00    +0.024 A 
ATOM      6  C   UNL     1       4.117  -6.822  24.799  0.00  0.00    +0.065 A 
ATOM      7  C   UNL     1       4.674  -6.303  25.969  0.00  0.00    +0.016 A 
ATOM      8  C   UNL     1       6.086  -4.980  22.215  0.00  0.00    +0.009 A 
ATOM      9  C   UNL     1       5.696  -5.358  25.893  0.00  0.00    +0.009 A 
ATOM     10  C   UNL     1       7.078  -3.997  22.149  0.00  0.00    +0.013 A 
ENDROOT
BRANCH   6  11
ATOM     11  C   UNL     1       3.022  -7.828  24.866  0.00  0.00    +0.308 C 
ATOM     12  N   UNL     1       2.506  -8.377  23.810  0.00  0.00    -0.099 NA
ATOM     13  H   UNL     1       2.978  -8.069  22.956  0.00  0.00    +0.363 HD
ATOM     14  N   UNL     1       2.512  -8.211  26.066  0.00  0.00    -0.247 N 
ATOM     15  H   UNL     1       1.647  -8.729  25.940  0.00  0.00    +0.288 HD
ATOM     16  H   UNL     1       2.427  -7.482  26.763  0.00  0.00    +0.288 HD
ENDBRANCH   6  11
BRANCH   1  19
ATOM     17  N   UNL     1       8.225  -1.134  23.233  0.00  0.00    -0.282 N 
ATOM     18  H   UNL     1       7.227  -0.970  23.265  0.00  0.00    +0.155 HD
ATOM     19  C   UNL     1       8.666  -2.439  23.339  0.00  0.00    +0.248 C 
ATOM     20  O   UNL     1       9.820  -2.819  23.507  0.00  0.00    -0.270 OA
BRANCH  17  24
ATOM     21  C   UNL     1      10.608   2.360  23.262  0.00  0.00    -0.034 A 
ATOM     22  C   UNL     1      10.321   1.664  24.445  0.00  0.00    +0.007 A 
ATOM     23  C   UNL     1       9.541   0.503  24.415  0.00  0.00    +0.023 A 
ATOM     24  C   UNL     1       9.048   0.012  23.201  0.00  0.00    +0.034 A 
ATOM     25  C   UNL     1       9.364   0.688  22.022  0.00  0.00    +0.023 A 
ATOM     26  C   UNL     1      10.132   1.853  22.051  0.00  0.00    +0.007 A 
BRANCH  21  27
ATOM     27  C   UNL     1      11.318   3.684  23.295  0.00  0.00    +0.113 C 
BRANCH  27  28
ATOM     28  N   UNL     1      10.352   4.767  23.439  0.00  0.00    -0.326 NA
ATOM     29  H   UNL     1       9.425   4.367  23.577  0.00  0.00    +0.119 HD
ATOM     30  H   UNL     1      10.569   5.308  24.271  0.00  0.00    +0.119 HD
ENDBRANCH  27  28
ENDBRANCH  21  27
ENDBRANCH  17  24
ENDBRANCH   1  19
TORSDOF 5
ENDMDL
MODEL 2
REMARK VINA RESULT:      -7.3      1.207      9.462
REMARK  Name = 
REMARK  5 active torsions:
REMARK  status: ('A' for Active; 'I' for Inactive)
REMARK    1  A    between atoms: N_1  and  C_2
REMARK    2  A    between atoms: C_2  and  C_3
REMARK    3  A    between atoms: C_6  and  N_7
REMARK    4  A    between atoms: C_8  and  C_10
REMARK    5  A    between atoms: C_15  and  C_20
REMARK                            x       y       z     vdW  Elec       q    Type
REMARK                         _______ _______ _______ _____ _____    ______ ____
ROOT
ATOM      1  C   UNL     1       8.592  -1.833  23.245  0.00  0.00    +0.038 A 
ATOM      2  C   UNL     1       8.305  -0.792  24.135  0.00  0.00    +0.021 A 
ATOM      3  C   UNL     1       8.833   0.486  23.930  0.00  0.00    -0.017 A 
ATOM      4  C   UNL     1       9.634   0.733  22.791  0.00  0.00    -0.017 A 
ATOM      5  C   UNL     1      10.166   2.019  22.602  0.00  0.00    +0.024 A 
ATOM      6  C   UNL     1       9.924   3.034  23.538  0.00  0.00    +0.065 A 
ATOM      7  C   UNL     1       9.127   2.781  24.656  0.00  0.00    +0.016 A 
ATOM      8  C   UNL     1       9.882  -0.314  21.884  0.00  0.00    +0.009 A 
ATOM      9  C   UNL     1       8.581   1.513  24.848  0.00  0.00    +0.009 A 
ATOM     10  C   UNL     1       9.369  -1.595  22.110  0.00  0.00    +0.013 A 
ENDROOT
BRANCH   6  11
ATOM     11  C   UNL     1      10.517   4.383  23.323  0.00  0.00    +0.308 C 
ATOM     12  N   UNL     1       9.819   5.474  23.378  0.00  0.00    -0.099 NA
ATOM     13  H   UNL     1       8.846   5.287  23.632  0.00  0.00    +0.363 HD
ATOM     14  N   UNL     1      11.842   4.516  23.051  0.00  0.00    -0.247 N 
ATOM     15  H   UNL     1      12.049   5.455  22.725  0.00  0.00    +0.288 HD
ATOM     16  H   UNL     1      12.245   3.803  22.456  0.00  0.00    +0.288 HD
ENDBRANCH   6  11
BRANCH   1  19
ATOM     17  N   UNL     1       6.638  -3.185  23.723  0.00  0.00    -0.282 N 
ATOM     18  H   UNL     1       6.123  -2.335  23.533  0.00  0.00    +0.155 HD
ATOM     19  C   UNL     1       8.008  -3.160  23.546  0.00  0.00    +0.248 C 
ATOM     20  O   UNL     1       8.772  -4.119  23.544  0.00  0.00    -0.270 OA
BRANCH  17  24
ATOM     21  C   UNL     1       4.203  -6.528  24.607  0.00  0.00    -0.034 A 
ATOM     22  C   UNL     1       4.084  -5.841  23.391  0.00  0.00    +0.007 A 
ATOM     23  C   UNL     1       4.907  -4.745  23.110  0.00  0.00    +0.023 A 
ATOM     24  C   UNL     1       5.870  -4.327  24.035  0.00  0.00    +0.034 A 
ATOM     25  C   UNL     1       6.008  -5.033  25.230  0.00  0.00    +0.023 A 
ATOM     26  C   UNL     1       5.181  -6.120  25.517  0.00  0.00    +0.007 A 
BRANCH  21  27
ATOM     27  C   UNL     1       3.232  -7.612  24.984  0.00  0.00    +0.113 C 
BRANCH  27  28
ATOM     28  N   UNL     1       2.656  -8.207  23.784  0.00  0.00    -0.326 NA
ATOM     29  H   UNL     1       2.075  -7.513  23.316  0.00  0.00    +0.119 HD
ATOM     30  H   UNL     1       3.399  -8.457  23.138  0.00  0.00    +0.119 HD
ENDBRANCH  27  28
ENDBRANCH  21  27
ENDBRANCH  17  24
ENDBRANCH   1  19
TORSDOF 5
ENDMDL
MODEL 3
REMARK VINA RESULT:      -7.2      1.731      2.578
REMARK  Name = 
REMARK  5 active torsions:
REMARK  status: ('A' for Active; 'I' for Inactive)
REMARK    1  A    between atoms: N_1  and  C_2
REMARK    2  A    between atoms: C_2  and  C_3
REMARK    3  A    between atoms: C_6  and  N_7
REMARK    4  A    between atoms: C_8  and  C_10
REMARK    5  A    between atoms: C_15  and  C_20
REMARK                            x       y       z     vdW  Elec       q    Type
REMARK                         _______ _______ _______ _____ _____    ______ ____
ROOT
ATOM      1  C   UNL     1       8.241  -1.483  23.471  0.00  0.00    +0.038 A 
ATOM      2  C   UNL     1       6.859  -1.646  23.613  0.00  0.00    +0.021 A 
ATOM      3  C   UNL     1       6.319  -2.886  23.964  0.00  0.00    -0.017 A 
ATOM      4  C   UNL     1       7.186  -3.976  24.211  0.00  0.00    -0.017 A 
ATOM      5  C   UNL     1       6.631  -5.220  24.552  0.00  0.00    +0.024 A 
ATOM      6  C   UNL     1       5.241  -5.383  24.627  0.00  0.00    +0.065 A 
ATOM      7  C   UNL     1       4.394  -4.299  24.387  0.00  0.00    +0.016 A 
ATOM      8  C   UNL     1       8.577  -3.789  24.102  0.00  0.00    +0.009 A 
ATOM      9  C   UNL     1       4.932  -3.055  24.060  0.00  0.00    +0.009 A 
ATOM     10  C   UNL     1       9.105  -2.549  23.727  0.00  0.00    +0.013 A 
ENDROOT
BRANCH   6  11
ATOM     11  C   UNL     1       4.679  -6.718  24.971  0.00  0.00    +0.308 C 
ATOM     12  N   UNL     1       4.186  -7.524  24.082  0.00  0.00    -0.099 NA
ATOM     13  H   UNL     1       4.281  -7.146  23.136  0.00  0.00    +0.363 HD
ATOM     14  N   UNL     1       4.661  -7.144  26.261  0.00  0.00    -0.247 N 
ATOM     15  H   UNL     1       4.065  -7.961  26.361  0.00  0.00    +0.288 HD
ATOM     16  H   UNL     1       4.464  -6.437  26.958  0.00  0.00    +0.288 HD
ENDBRANCH   6  11
BRANCH   1  19
ATOM     17  N   UNL     1       9.083   0.694  24.120  0.00  0.00    -0.282 N 
ATOM     18  H   UNL     1       9.090   0.306  25.054  0.00  0.00    +0.155 HD
ATOM     19  C   UNL     1       8.728  -0.141  23.078  0.00  0.00    +0.248 C 
ATOM     20  O   UNL     1       8.837   0.085  21.878  0.00  0.00    -0.270 OA
BRANCH  17  24
ATOM     21  C   UNL     1      10.633   4.616  23.795  0.00  0.00    -0.034 A 
ATOM     22  C   UNL     1      11.395   3.498  23.425  0.00  0.00    +0.007 A 
ATOM     23  C   UNL     1      10.861   2.209  23.527  0.00  0.00    +0.023 A 
ATOM     24  C   UNL     1       9.554   2.018  23.988  0.00  0.00    +0.034 A 
ATOM     25  C   UNL     1       8.788   3.135  24.324  0.00  0.00    +0.023 A 
ATOM     26  C   UNL     1       9.322   4.421  24.234  0.00  0.00    +0.007 A 
BRANCH  21  27
ATOM     27  C   UNL     1      11.240   5.991  23.830  0.00  0.00    +0.113 C 
BRANCH  27  28
ATOM     28  N   UNL     1      12.662   5.902  24.141  0.00  0.00    -0.326 NA
ATOM     29  H   UNL     1      12.897   4.932  24.345  0.00  0.00    +0.119 HD
ATOM     30  H   UNL     1      13.205   6.174  23.327  0.00  0.00    +0.119 HD
ENDBRANCH  27  28
ENDBRANCH  21  27
ENDBRANCH  17  24
ENDBRANCH   1  19
TORSDOF 5
ENDMDL
MODEL 4
REMARK VINA RESULT:      -7.1      1.722      9.946
REMARK  Name = 
REMARK  5 active torsions:
REMARK  status: ('A' for Active; 'I' for Inactive)
REMARK    1  A    between atoms: N_1  and  C_2
REMARK    2  A    between atoms: C_2  and  C_3
REMARK    3  A    between atoms: C_6  and  N_7
REMARK    4  A    between atoms: C_8  and  C_10
REMARK    5  A    between atoms: C_15  and  C_20
REMARK                            x       y       z     vdW  Elec       q    Type
REMARK                         _______ _______ _______ _____ _____    ______ ____
ROOT
ATOM      1  C   UNL     1       8.533  -0.289  24.465  0.00  0.00    +0.038 A 
ATOM      2  C   UNL     1       8.124   1.048  24.515  0.00  0.00    +0.021 A 
ATOM      3  C   UNL     1       9.022   2.080  24.226  0.00  0.00    -0.017 A 
ATOM      4  C   UNL     1      10.346   1.761  23.843  0.00  0.00    -0.017 A 
ATOM      5  C   UNL     1      11.241   2.807  23.565  0.00  0.00    +0.024 A 
ATOM      6  C   UNL     1      10.834   4.143  23.684  0.00  0.00    +0.065 A 
ATOM      7  C   UNL     1       9.523   4.446  24.056  0.00  0.00    +0.016 A 
ATOM      8  C   UNL     1      10.733   0.411  23.759  0.00  0.00    +0.009 A 
ATOM      9  C   UNL     1       8.621   3.418  24.322  0.00  0.00    +0.009 A 
ATOM     10  C   UNL     1       9.833  -0.613  24.074  0.00  0.00    +0.013 A 
ENDROOT
BRANCH   6  11
ATOM     11  C   UNL     1      11.810   5.232  23.402  0.00  0.00    +0.308 C 
ATOM     12  N   UNL     1      12.112   6.147  24.270  0.00  0.00    -0.099 NA
ATOM     13  H   UNL     1      11.639   5.990  25.164  0.00  0.00    +0.363 HD
ATOM     14  N   UNL     1      12.427   5.306  22.194  0.00  0.00    -0.247 N 
ATOM     15  H   UNL     1      12.889   6.204  22.081  0.00  0.00    +0.288 HD
ATOM     16  H   UNL     1      11.860   5.061  21.392  0.00  0.00    +0.288 HD
ENDBRANCH   6  11
BRANCH   1  19
ATOM     17  N   UNL     1       7.907  -2.627  24.580  0.00  0.00    -0.282 N 
ATOM     18  H   UNL     1       8.866  -2.797  24.306  0.00  0.00    +0.155 HD
ATOM     19  C   UNL     1       7.524  -1.318  24.805  0.00  0.00    +0.248 C 
ATOM     20  O   UNL     1       6.479  -0.929  25.314  0.00  0.00    -0.270 OA
BRANCH  17  24
ATOM     21  C   UNL     1       5.393  -5.972  25.189  0.00  0.00    -0.034 A 
ATOM     22  C   UNL     1       5.509  -5.368  23.929  0.00  0.00    +0.007 A 
ATOM     23  C   UNL     1       6.355  -4.270  23.743  0.00  0.00    +0.023 A 
ATOM     24  C   UNL     1       7.109  -3.768  24.810  0.00  0.00    +0.034 A 
ATOM     25  C   UNL     1       7.016  -4.393  26.054  0.00  0.00    +0.023 A 
ATOM     26  C   UNL     1       6.164  -5.481  26.244  0.00  0.00    +0.007 A 
BRANCH  21  27
ATOM     27  C   UNL     1       4.381  -7.056  25.439  0.00  0.00    +0.113 C 
BRANCH  27  28
ATOM     28  N   UNL     1       3.959  -7.648  24.175  0.00  0.00    -0.326 NA
ATOM     29  H   UNL     1       2.971  -7.443  24.027  0.00  0.00    +0.119 HD
ATOM     30  H   UNL     1       4.469  -7.216  23.410  0.00  0.00    +0.119 HD
ENDBRANCH  27  28
ENDBRANCH  21  27
ENDBRANCH  17  24
ENDBRANCH   1  19
TORSDOF 5
ENDMDL
MODEL 5
REMARK VINA RESULT:      -7.0      1.346      9.643
REMARK  Name = 
REMARK  5 active torsions:
REMARK  status: ('A' for Active; 'I' for Inactive)
REMARK    1  A    between atoms: N_1  and  C_2
REMARK    2  A    between atoms: C_2  and  C_3
REMARK    3  A    between atoms: C_6  and  N_7
REMARK    4  A    between atoms: C_8  and  C_10
REMARK    5  A    between atoms: C_15  and  C_20
REMARK                            x       y       z     vdW  Elec       q    Type
REMARK                         _______ _______ _______ _____ _____    ______ ____
ROOT
ATOM      1  C   UNL     1       7.880  -1.916  23.946  0.00  0.00    +0.038 A 
ATOM      2  C   UNL     1       8.373  -1.238  22.826  0.00  0.00    +0.021 A 
ATOM      3  C   UNL     1       8.980   0.014  22.960  0.00  0.00    -0.017 A 
ATOM      4  C   UNL     1       9.126   0.580  24.248  0.00  0.00    -0.017 A 
ATOM      5  C   UNL     1       9.728   1.843  24.369  0.00  0.00    +0.024 A 
ATOM      6  C   UNL     1      10.158   2.539  23.231  0.00  0.00    +0.065 A 
ATOM      7  C   UNL     1      10.014   1.968  21.965  0.00  0.00    +0.016 A 
ATOM      8  C   UNL     1       8.660  -0.131  25.370  0.00  0.00    +0.009 A 
ATOM      9  C   UNL     1       9.431   0.709  21.832  0.00  0.00    +0.009 A 
ATOM     10  C   UNL     1       8.033  -1.372  25.222  0.00  0.00    +0.013 A 
ENDROOT
BRANCH   6  11
ATOM     11  C   UNL     1      10.775   3.885  23.386  0.00  0.00    +0.308 C 
ATOM     12  N   UNL     1      10.074   4.965  23.547  0.00  0.00    -0.099 NA
ATOM     13  H   UNL     1       9.073   4.760  23.602  0.00  0.00    +0.363 HD
ATOM     14  N   UNL     1      12.125   4.030  23.360  0.00  0.00    -0.247 N 
ATOM     15  H   UNL     1      12.380   5.009  23.265  0.00  0.00    +0.288 HD
ATOM     16  H   UNL     1      12.620   3.437  22.706  0.00  0.00    +0.288 HD
ENDBRANCH   6  11
BRANCH   1  19
ATOM     17  N   UNL     1       5.984  -3.389  24.278  0.00  0.00    -0.282 N 
ATOM     18  H   UNL     1       5.557  -2.581  24.712  0.00  0.00    +0.155 HD
ATOM     19  C   UNL     1       7.235  -3.228  23.712  0.00  0.00    +0.248 C 
ATOM     20  O   UNL     1       7.828  -4.022  22.989  0.00  0.00    -0.270 OA
BRANCH  17  24
ATOM     21  C   UNL     1       3.478  -6.788  24.064  0.00  0.00    -0.034 A 
ATOM     22  C   UNL     1       3.247  -5.661  23.262  0.00  0.00    +0.007 A 
ATOM     23  C   UNL     1       4.095  -4.550  23.337  0.00  0.00    +0.023 A 
ATOM     24  C   UNL     1       5.192  -4.554  24.205  0.00  0.00    +0.034 A 
ATOM     25  C   UNL     1       5.437  -5.690  24.977  0.00  0.00    +0.023 A 
ATOM     26  C   UNL     1       4.587  -6.795  24.911  0.00  0.00    +0.007 A 
BRANCH  21  27
ATOM     27  C   UNL     1       2.496  -7.926  24.102  0.00  0.00    +0.113 C 
BRANCH  27  28
ATOM     28  N   UNL     1       2.745  -8.763  25.270  0.00  0.00    -0.326 NA
ATOM     29  H   UNL     1       2.580  -8.213  26.112  0.00  0.00    +0.119 HD
ATOM     30  H   UNL     1       2.083  -9.533  25.284  0.00  0.00    +0.119 HD
ENDBRANCH  27  28
ENDBRANCH  21  27
ENDBRANCH  17  24
ENDBRANCH   1  19
TORSDOF 5
ENDMDL
MODEL 6
REMARK VINA RESULT:      -7.0      2.213      9.976
REMARK  Name = 
REMARK  5 active torsions:
REMARK  status: ('A' for Active; 'I' for Inactive)
REMARK    1  A    between atoms: N_1  and  C_2
REMARK    2  A    between atoms: C_2  and  C_3
REMARK    3  A    between atoms: C_6  and  N_7
REMARK    4  A    between atoms: C_8  and  C_10
REMARK    5  A    between atoms: C_15  and  C_20
REMARK                            x       y       z     vdW  Elec       q    Type
REMARK                         _______ _______ _______ _____ _____    ______ ____
ROOT
ATOM      1  C   UNL     1       8.453   0.055  24.350  0.00  0.00    +0.038 A 
ATOM      2  C   UNL     1       8.179   1.414  24.537  0.00  0.00    +0.021 A 
ATOM      3  C   UNL     1       9.131   2.385  24.215  0.00  0.00    -0.017 A 
ATOM      4  C   UNL     1      10.369   1.985  23.660  0.00  0.00    -0.017 A 
ATOM      5  C   UNL     1      11.322   2.970  23.350  0.00  0.00    +0.024 A 
ATOM      6  C   UNL     1      11.057   4.322  23.604  0.00  0.00    +0.065 A 
ATOM      7  C   UNL     1       9.829   4.706  24.146  0.00  0.00    +0.016 A 
ATOM      8  C   UNL     1      10.617   0.617  23.441  0.00  0.00    +0.009 A 
ATOM      9  C   UNL     1       8.869   3.741  24.447  0.00  0.00    +0.009 A 
ATOM     10  C   UNL     1       9.667  -0.347  23.790  0.00  0.00    +0.013 A 
ENDROOT
BRANCH   6  11
ATOM     11  C   UNL     1      12.093   5.343  23.284  0.00  0.00    +0.308 C 
ATOM     12  N   UNL     1      12.640   5.445  22.112  0.00  0.00    -0.099 NA
ATOM     13  H   UNL     1      12.236   4.780  21.448  0.00  0.00    +0.363 HD
ATOM     14  N   UNL     1      12.511   6.220  24.233  0.00  0.00    -0.247 N 
ATOM     15  H   UNL     1      13.353   6.701  23.932  0.00  0.00    +0.288 HD
ATOM     16  H   UNL     1      12.593   5.849  25.172  0.00  0.00    +0.288 HD
ENDBRANCH   6  11
BRANCH   1  19
ATOM     17  N   UNL     1       7.825  -2.199  24.980  0.00  0.00    -0.282 N 
ATOM     18  H   UNL     1       8.821  -2.372  24.984  0.00  0.00    +0.155 HD
ATOM     19  C   UNL     1       7.396  -0.908  24.736  0.00  0.00    +0.248 C 
ATOM     20  O   UNL     1       6.260  -0.467  24.871  0.00  0.00    -0.270 OA
BRANCH  17  24
ATOM     21  C   UNL     1       5.469  -5.508  26.157  0.00  0.00    -0.034 A 
ATOM     22  C   UNL     1       6.177  -4.746  27.097  0.00  0.00    +0.007 A 
ATOM     23  C   UNL     1       6.941  -3.647  26.691  0.00  0.00    +0.023 A 
ATOM     24  C   UNL     1       6.998  -3.285  25.341  0.00  0.00    +0.034 A 
ATOM     25  C   UNL     1       6.266  -4.025  24.413  0.00  0.00    +0.023 A 
ATOM     26  C   UNL     1       5.512  -5.128  24.814  0.00  0.00    +0.007 A 
BRANCH  21  27
ATOM     27  C   UNL     1       4.764  -6.774  26.557  0.00  0.00    +0.113 C 
BRANCH  27  28
ATOM     28  N   UNL     1       5.274  -7.247  27.839  0.00  0.00    -0.326 NA
ATOM     29  H   UNL     1       4.967  -8.209  27.983  0.00  0.00    +0.119 HD
ATOM     30  H   UNL     1       6.290  -7.260  27.817  0.00  0.00    +0.119 HD
ENDBRANCH  27  28
ENDBRANCH  21  27
ENDBRANCH  17  24
ENDBRANCH   1  19
TORSDOF 5
ENDMDL
MODEL 7
REMARK VINA RESULT:      -6.9      1.994      2.603
REMARK  Name = 
REMARK  5 active torsions:
REMARK  status: ('A' for Active; 'I' for Inactive)
REMARK    1  A    between atoms: N_1  and  C_2
REMARK    2  A    between atoms: C_2  and  C_3
REMARK    3  A    between atoms: C_6  and  N_7
REMARK    4  A    between atoms: C_8  and  C_10
REMARK    5  A    between atoms: C_15  and  C_20
REMARK                            x       y       z     vdW  Elec       q    Type
REMARK                         _______ _______ _______ _____ _____    ______ ____
ROOT
ATOM      1  C   UNL     1       8.049  -1.988  24.227  0.00  0.00    +0.038 A 
ATOM      2  C   UNL     1       7.243  -1.974  25.370  0.00  0.00    +0.021 A 
ATOM      3  C   UNL     1       6.710  -3.161  25.881  0.00  0.00    -0.017 A 
ATOM      4  C   UNL     1       7.022  -4.389  25.253  0.00  0.00    -0.017 A 
ATOM      5  C   UNL     1       6.472  -5.574  25.770  0.00  0.00    +0.024 A 
ATOM      6  C   UNL     1       5.612  -5.536  26.877  0.00  0.00    +0.065 A 
ATOM      7  C   UNL     1       5.316  -4.318  27.493  0.00  0.00    +0.016 A 
ATOM      8  C   UNL     1       7.866  -4.393  24.127  0.00  0.00    +0.009 A 
ATOM      9  C   UNL     1       5.866  -3.137  26.998  0.00  0.00    +0.009 A 
ATOM     10  C   UNL     1       8.374  -3.197  23.610  0.00  0.00    +0.013 A 
ENDROOT
BRANCH   6  11
ATOM     11  C   UNL     1       5.027  -6.804  27.392  0.00  0.00    +0.308 C 
ATOM     12  N   UNL     1       5.526  -7.450  28.400  0.00  0.00    -0.099 NA
ATOM     13  H   UNL     1       6.322  -6.953  28.810  0.00  0.00    +0.363 HD
ATOM     14  N   UNL     1       3.927  -7.342  26.804  0.00  0.00    -0.247 N 
ATOM     15  H   UNL     1       3.779  -8.296  27.124  0.00  0.00    +0.288 HD
ATOM     16  H   UNL     1       3.880  -7.262  25.796  0.00  0.00    +0.288 HD
ENDBRANCH   6  11
BRANCH   1  19
ATOM     17  N   UNL     1       8.757   0.279  24.712  0.00  0.00    -0.282 N 
ATOM     18  H   UNL     1       8.648   0.002  25.679  0.00  0.00    +0.155 HD
ATOM     19  C   UNL     1       8.557  -0.685  23.741  0.00  0.00    +0.248 C 
ATOM     20  O   UNL     1       8.819  -0.597  22.547  0.00  0.00    -0.270 OA
BRANCH  17  24
ATOM     21  C   UNL     1       9.977   4.261  23.982  0.00  0.00    -0.034 A 
ATOM     22  C   UNL     1       8.818   3.978  24.718  0.00  0.00    +0.007 A 
ATOM     23  C   UNL     1       8.436   2.654  24.960  0.00  0.00    +0.023 A 
ATOM     24  C   UNL     1       9.214   1.594  24.483  0.00  0.00    +0.034 A 
ATOM     25  C   UNL     1      10.385   1.880  23.780  0.00  0.00    +0.023 A 
ATOM     26  C   UNL     1      10.761   3.200  23.527  0.00  0.00    +0.007 A 
BRANCH  21  27
ATOM     27  C   UNL     1      10.320   5.671  23.589  0.00  0.00    +0.113 C 
BRANCH  27  28
ATOM     28  N   UNL     1       9.213   6.269  22.852  0.00  0.00    -0.326 NA
ATOM     29  H   UNL     1       9.462   7.223  22.595  0.00  0.00    +0.119 HD
ATOM     30  H   UNL     1       9.065   5.758  21.986  0.00  0.00    +0.119 HD
ENDBRANCH  27  28
ENDBRANCH  21  27
ENDBRANCH  17  24
ENDBRANCH   1  19
TORSDOF 5
ENDMDL
MODEL 8
REMARK VINA RESULT:      -6.8      1.980      3.137
REMARK  Name = 
REMARK  5 active torsions:
REMARK  status: ('A' for Active; 'I' for Inactive)
REMARK    1  A    between atoms: N_1  and  C_2
REMARK    2  A    between atoms: C_2  and  C_3
REMARK    3  A    between atoms: C_6  and  N_7
REMARK    4  A    between atoms: C_8  and  C_10
REMARK    5  A    between atoms: C_15  and  C_20
REMARK                            x       y       z     vdW  Elec       q    Type
REMARK                         _______ _______ _______ _____ _____    ______ ____
ROOT
ATOM      1  C   UNL     1       7.872  -0.706  24.427  0.00  0.00    +0.038 A 
ATOM      2  C   UNL     1       8.276  -1.960  23.955  0.00  0.00    +0.021 A 
ATOM      3  C   UNL     1       7.366  -3.018  23.874  0.00  0.00    -0.017 A 
ATOM      4  C   UNL     1       6.017  -2.804  24.241  0.00  0.00    -0.017 A 
ATOM      5  C   UNL     1       5.115  -3.878  24.166  0.00  0.00    +0.024 A 
ATOM      6  C   UNL     1       5.550  -5.145  23.753  0.00  0.00    +0.065 A 
ATOM      7  C   UNL     1       6.883  -5.344  23.387  0.00  0.00    +0.016 A 
ATOM      8  C   UNL     1       5.616  -1.527  24.678  0.00  0.00    +0.009 A 
ATOM      9  C   UNL     1       7.785  -4.283  23.445  0.00  0.00    +0.009 A 
ATOM     10  C   UNL     1       6.540  -0.482  24.777  0.00  0.00    +0.013 A 
ENDROOT
BRANCH   6  11
ATOM     11  C   UNL     1       4.577  -6.271  23.702  0.00  0.00    +0.308 C 
ATOM     12  N   UNL     1       4.538  -7.207  24.599  0.00  0.00    -0.099 NA
ATOM     13  H   UNL     1       5.214  -7.040  25.349  0.00  0.00    +0.363 HD
ATOM     14  N   UNL     1       3.679  -6.357  22.686  0.00  0.00    -0.247 N 
ATOM     15  H   UNL     1       3.238  -7.273  22.674  0.00  0.00    +0.288 HD
ATOM     16  H   UNL     1       4.017  -6.079  21.773  0.00  0.00    +0.288 HD
ENDBRANCH   6  11
BRANCH   1  19
ATOM     17  N   UNL     1       8.549   1.570  23.945  0.00  0.00    -0.282 N 
ATOM     18  H   UNL     1       7.594   1.685  23.632  0.00  0.00    +0.155 HD
ATOM     19  C   UNL     1       8.903   0.354  24.498  0.00  0.00    +0.248 C 
ATOM     20  O   UNL     1       9.940   0.086  25.094  0.00  0.00    -0.270 OA
BRANCH  17  24
ATOM     21  C   UNL     1      11.140   4.910  23.808  0.00  0.00    -0.034 A 
ATOM     22  C   UNL     1      11.528   3.665  23.293  0.00  0.00    +0.007 A 
ATOM     23  C   UNL     1      10.653   2.574  23.336  0.00  0.00    +0.023 A 
ATOM     24  C   UNL     1       9.372   2.715  23.880  0.00  0.00    +0.034 A 
ATOM     25  C   UNL     1       8.977   3.964  24.360  0.00  0.00    +0.023 A 
ATOM     26  C   UNL     1       9.853   5.050  24.329  0.00  0.00    +0.007 A 
BRANCH  21  27
ATOM     27  C   UNL     1      12.117   6.048  23.902  0.00  0.00    +0.113 C 
BRANCH  27  28
ATOM     28  N   UNL     1      13.408   5.647  23.357  0.00  0.00    -0.326 NA
ATOM     29  H   UNL     1      13.312   4.731  22.919  0.00  0.00    +0.119 HD
ATOM     30  H   UNL     1      13.686   6.297  22.628  0.00  0.00    +0.119 HD
ENDBRANCH  27  28
ENDBRANCH  21  27
ENDBRANCH  17  24
ENDBRANCH   1  19
TORSDOF 5
ENDMDL
MODEL 9
REMARK VINA RESULT:      -6.6      2.418      2.666
REMARK  Name = 
REMARK  5 active torsions:
REMARK  status: ('A' for Active; 'I' for Inactive)
REMARK    1  A    between atoms: N_1  and  C_2
REMARK    2  A    between atoms: C_2  and  C_3
REMARK    3  A    between atoms: C_6  and  N_7
REMARK    4  A    between atoms: C_8  and  C_10
REMARK    5  A    between atoms: C_15  and  C_20
REMARK                            x       y       z     vdW  Elec       q    Type
REMARK                         _______ _______ _______ _____ _____    ______ ____
ROOT
ATOM      1  C   UNL     1       7.175  -1.842  23.131  0.00  0.00    +0.038 A 
ATOM      2  C   UNL     1       6.026  -1.977  23.918  0.00  0.00    +0.021 A 
ATOM      3  C   UNL     1       5.491  -3.239  24.188  0.00  0.00    -0.017 A 
ATOM      4  C   UNL     1       6.142  -4.391  23.689  0.00  0.00    -0.017 A 
ATOM      5  C   UNL     1       5.589  -5.653  23.958  0.00  0.00    +0.024 A 
ATOM      6  C   UNL     1       4.401  -5.768  24.693  0.00  0.00    +0.065 A 
ATOM      7  C   UNL     1       3.769  -4.625  25.187  0.00  0.00    +0.016 A 
ATOM      8  C   UNL     1       7.319  -4.243  22.931  0.00  0.00    +0.009 A 
ATOM      9  C   UNL     1       4.315  -3.366  24.938  0.00  0.00    +0.009 A 
ATOM     10  C   UNL     1       7.833  -2.974  22.646  0.00  0.00    +0.013 A 
ENDROOT
BRANCH   6  11
ATOM     11  C   UNL     1       3.825  -7.117  24.947  0.00  0.00    +0.308 C 
ATOM     12  N   UNL     1       3.486  -7.928  23.993  0.00  0.00    -0.099 NA
ATOM     13  H   UNL     1       3.711  -7.542  23.072  0.00  0.00    +0.363 HD
ATOM     14  N   UNL     1       3.628  -7.552  26.219  0.00  0.00    -0.247 N 
ATOM     15  H   UNL     1       3.044  -8.383  26.228  0.00  0.00    +0.288 HD
ATOM     16  H   UNL     1       3.315  -6.854  26.882  0.00  0.00    +0.288 HD
ENDBRANCH   6  11
BRANCH   1  19
ATOM     17  N   UNL     1       6.911   0.548  23.436  0.00  0.00    -0.282 N 
ATOM     18  H   UNL     1       6.155   0.287  24.055  0.00  0.00    +0.155 HD
ATOM     19  C   UNL     1       7.664  -0.468  22.878  0.00  0.00    +0.248 C 
ATOM     20  O   UNL     1       8.719  -0.355  22.262  0.00  0.00    -0.270 OA
BRANCH  17  24
ATOM     21  C   UNL     1       7.702   4.667  22.902  0.00  0.00    -0.034 A 
ATOM     22  C   UNL     1       6.736   4.005  22.131  0.00  0.00    +0.007 A 
ATOM     23  C   UNL     1       6.478   2.645  22.330  0.00  0.00    +0.023 A 
ATOM     24  C   UNL     1       7.173   1.929  23.312  0.00  0.00    +0.034 A 
ATOM     25  C   UNL     1       8.109   2.599  24.099  0.00  0.00    +0.023 A 
ATOM     26  C   UNL     1       8.376   3.953  23.895  0.00  0.00    +0.007 A 
BRANCH  21  27
ATOM     27  C   UNL     1       8.093   6.088  22.603  0.00  0.00    +0.113 C 
BRANCH  27  28
ATOM     28  N   UNL     1       7.411   6.551  21.400  0.00  0.00    -0.326 NA
ATOM     29  H   UNL     1       7.686   7.515  21.213  0.00  0.00    +0.119 HD
ATOM     30  H   UNL     1       7.711   5.998  20.603  0.00  0.00    +0.119 HD
ENDBRANCH  27  28
ENDBRANCH  21  27
ENDBRANCH  17  24
ENDBRANCH   1  19
TORSDOF 5
ENDMDL
