MODEL 1
REMARK VINA RESULT:      -7.0      0.000      0.000
REMARK  Name = 
REMARK  8 active torsions:
REMARK  status: ('A' for Active; 'I' for Inactive)
REMARK    1  A    between atoms: N_8  and  C_9
REMARK    2  A    between atoms: C_12  and  C_14
REMARK    3  A    between atoms: C_14  and  O_15
REMARK    4  A    between atoms: C_16  and  O_18
REMARK    5  A    between atoms: O_18  and  P_19
REMARK    6  A    between atoms: P_19  and  O_20
REMARK    7  A    between atoms: P_19  and  O_21
REMARK    8  A    between atoms: C_23  and  O_25
REMARK                            x       y       z     vdW  Elec       q    Type
REMARK                         _______ _______ _______ _____ _____    ______ ____
ROOT
ATOM      1  C   UNL     1       5.936  -3.594  25.511  0.00  0.00    +0.253 C 
ATOM      2  C   UNL     1       4.744  -3.285  24.599  0.00  0.00    +0.196 C 
ATOM      3  C   UNL     1       4.296  -4.635  24.036  0.00  0.00    +0.194 C 
ATOM      4  C   UNL     1       5.252  -5.647  24.651  0.00  0.00    +0.178 C 
ATOM      5  O   UNL     1       5.806  -5.002  25.824  0.00  0.00    -0.346 OA
ENDROOT
BRANCH   1  17
ATOM      6  N   UNL     1       6.675   0.747  22.576  0.00  0.00    -0.329 N 
ATOM      7  H   UNL     1       6.834   1.106  21.643  0.00  0.00    +0.145 HD
ATOM      8  H   UNL     1       5.698   0.769  22.856  0.00  0.00    +0.145 HD
ATOM      9  C   UNL     1       7.330  -0.376  22.957  0.00  0.00    +0.195 A 
ATOM     10  N   UNL     1       8.586  -0.558  22.412  0.00  0.00    -0.293 N 
ATOM     11  H   UNL     1       8.976   0.137  21.797  0.00  0.00    +0.172 HD
ATOM     12  C   UNL     1       9.429  -1.624  22.706  0.00  0.00    +0.280 A 
ATOM     13  O   UNL     1      10.539  -1.732  22.192  0.00  0.00    -0.265 OA
ATOM     14  C   UNL     1       8.823  -2.549  23.640  0.00  0.00    +0.172 A 
ATOM     15  N   UNL     1       9.316  -3.709  24.180  0.00  0.00    -0.229 NA
ATOM     16  C   UNL     1       8.347  -4.143  24.959  0.00  0.00    +0.203 A 
ATOM     17  N   UNL     1       7.231  -3.346  24.889  0.00  0.00    -0.285 N 
ATOM     18  C   UNL     1       7.557  -2.284  24.090  0.00  0.00    +0.171 A 
ATOM     19  N   UNL     1       6.768  -1.219  23.784  0.00  0.00    -0.196 NA
ENDBRANCH   1  17
BRANCH   2  20
ATOM     20  O   UNL     1       3.641  -2.683  25.287  0.00  0.00    -0.385 OA
ATOM     21  H   UNL     1       3.140  -3.374  25.760  0.00  0.00    +0.210 HD
ENDBRANCH   2  20
BRANCH   3  22
ATOM     22  O   UNL     1       4.402  -4.630  22.610  0.00  0.00    -0.278 OA
BRANCH  22  23
ATOM     23  P   UNL     1       5.969  -5.201  22.150  0.00  0.00    +0.473 P 
ATOM     24  O   UNL     1       7.371  -5.712  21.739  0.00  0.00    -0.228 OA
BRANCH  23  25
ATOM     25  O   UNL     1       5.817  -4.085  20.965  0.00  0.00    -0.303 OA
ATOM     26  H   UNL     1       4.943  -4.229  20.561  0.00  0.00    +0.222 HD
ENDBRANCH  23  25
BRANCH  23  27
ATOM     27  O   UNL     1       5.137  -6.359  21.343  0.00  0.00    -0.303 OA
ATOM     28  H   UNL     1       5.322  -7.243  21.704  0.00  0.00    +0.222 HD
ENDBRANCH  23  27
ENDBRANCH  22  23
ENDBRANCH   3  22
BRANCH   4  29
ATOM     29  C   UNL     1       4.566  -6.941  25.071  0.00  0.00    +0.190 C 
BRANCH  29  30
ATOM     30  O   UNL     1       3.943  -7.557  23.943  0.00  0.00    -0.392 OA
ATOM     31  H   UNL     1       4.208  -8.495  23.965  0.00  0.00    +0.210 HD
ENDBRANCH  29  30
ENDBRANCH   4  29
TORSDOF 8
ENDMDL
MODEL 2
REMARK VINA RESULT:      -6.9      3.201      6.618
REMARK  Name = 
REMARK  8 active torsions:
REMARK  status: ('A' for Active; 'I' for Inactive)
REMARK    1  A    between atoms: N_8  and  C_9
REMARK    2  A    between atoms: C_12  and  C_14
REMARK    3  A    between atoms: C_14  and  O_15
REMARK    4  A    between atoms: C_16  and  O_18
REMARK    5  A    between atoms: O_18  and  P_19
REMARK    6  A    between atoms: P_19  and  O_20
REMARK    7  A    between atoms: P_19  and  O_21
REMARK    8  A    between atoms: C_23  and  O_25
REMARK                            x       y       z     vdW  Elec       q    Type
REMARK                         _______ _______ _______ _____ _____    ______ ____
ROOT
ATOM      1  C   UNL     1       8.880  -2.517  23.252  0.00  0.00    +0.253 C 
ATOM      2  C   UNL     1       8.992  -1.430  22.178  0.00  0.00    +0.196 C 
ATOM      3  C   UNL     1       9.020  -0.102  22.938  0.00  0.00    +0.194 C 
ATOM      4  C   UNL     1       8.921  -0.495  24.405  0.00  0.00    +0.178 C 
ATOM      5  O   UNL     1       9.336  -1.881  24.470  0.00  0.00    -0.346 OA
ENDROOT
BRANCH   1  17
ATOM      6  N   UNL     1       7.842  -5.955  27.140  0.00  0.00    -0.329 N 
ATOM      7  H   UNL     1       7.580  -6.906  27.364  0.00  0.00    +0.145 HD
ATOM      8  H   UNL     1       8.844  -5.792  27.179  0.00  0.00    +0.145 HD
ATOM      9  C   UNL     1       7.227  -5.344  26.099  0.00  0.00    +0.195 A 
ATOM     10  N   UNL     1       5.916  -5.713  25.870  0.00  0.00    -0.293 N 
ATOM     11  H   UNL     1       5.463  -6.376  26.476  0.00  0.00    +0.172 HD
ATOM     12  C   UNL     1       5.104  -5.175  24.877  0.00  0.00    +0.280 A 
ATOM     13  O   UNL     1       3.943  -5.540  24.721  0.00  0.00    -0.265 OA
ATOM     14  C   UNL     1       5.806  -4.189  24.083  0.00  0.00    +0.172 A 
ATOM     15  N   UNL     1       5.370  -3.434  23.024  0.00  0.00    -0.229 NA
ATOM     16  C   UNL     1       6.418  -2.712  22.685  0.00  0.00    +0.203 A 
ATOM     17  N   UNL     1       7.524  -3.021  23.437  0.00  0.00    -0.285 N 
ATOM     18  C   UNL     1       7.117  -3.925  24.381  0.00  0.00    +0.171 A 
ATOM     19  N   UNL     1       7.873  -4.469  25.372  0.00  0.00    -0.196 NA
ENDBRANCH   1  17
BRANCH   2  20
ATOM     20  O   UNL     1      10.181  -1.532  21.386  0.00  0.00    -0.385 OA
ATOM     21  H   UNL     1      10.074  -2.251  20.734  0.00  0.00    +0.210 HD
ENDBRANCH   2  20
BRANCH   3  22
ATOM     22  O   UNL     1       7.908   0.709  22.548  0.00  0.00    -0.278 OA
BRANCH  22  23
ATOM     23  P   UNL     1       8.311   2.377  22.763  0.00  0.00    +0.473 P 
ATOM     24  O   UNL     1       8.672   3.870  22.956  0.00  0.00    -0.228 OA
BRANCH  23  25
ATOM     25  O   UNL     1       7.013   2.617  21.799  0.00  0.00    -0.303 OA
ATOM     26  H   UNL     1       6.620   3.466  22.073  0.00  0.00    +0.222 HD
ENDBRANCH  23  25
BRANCH  23  27
ATOM     27  O   UNL     1       9.350   2.124  21.521  0.00  0.00    -0.303 OA
ATOM     28  H   UNL     1       9.405   2.904  20.942  0.00  0.00    +0.222 HD
ENDBRANCH  23  27
ENDBRANCH  22  23
ENDBRANCH   3  22
BRANCH   4  29
ATOM     29  C   UNL     1       9.820   0.338  25.310  0.00  0.00    +0.190 C 
BRANCH  29  30
ATOM     30  O   UNL     1      11.070   0.590  24.668  0.00  0.00    -0.392 OA
ATOM     31  H   UNL     1      10.904   1.293  24.014  0.00  0.00    +0.210 HD
ENDBRANCH  29  30
ENDBRANCH   4  29
TORSDOF 8
ENDMDL
MODEL 3
REMARK VINA RESULT:      -6.9      2.776      4.469
REMARK  Name = 
REMARK  8 active torsions:
REMARK  status: ('A' for Active; 'I' for Inactive)
REMARK    1  A    between atoms: N_8  and  C_9
REMARK    2  A    between atoms: C_12  and  C_14
REMARK    3  A    between atoms: C_14  and  O_15
REMARK    4  A    between atoms: C_16  and  O_18
REMARK    5  A    between atoms: O_18  and  P_19
REMARK    6  A    between atoms: P_19  and  O_20
REMARK    7  A    between atoms: P_19  and  O_21
REMARK    8  A    between atoms: C_23  and  O_25
REMARK                            x       y       z     vdW  Elec       q    Type
REMARK                         _______ _______ _______ _____ _____    ______ ____
ROOT
ATOM      1  C   UNL     1       9.234  -2.537  24.028  0.00  0.00    +0.253 C 
ATOM      2  C   UNL     1       8.913  -3.782  24.861  0.00  0.00    +0.196 C 
ATOM      3  C   UNL     1       7.670  -4.401  24.215  0.00  0.00    +0.194 C 
ATOM      4  C   UNL     1       7.343  -3.479  23.049  0.00  0.00    +0.178 C 
ATOM      5  O   UNL     1       8.565  -2.757  22.762  0.00  0.00    -0.346 OA
ENDROOT
BRANCH   1  17
ATOM      6  N   UNL     1      10.097   2.073  21.575  0.00  0.00    -0.329 N 
ATOM      7  H   UNL     1      10.597   2.953  21.606  0.00  0.00    +0.145 HD
ATOM      8  H   UNL     1      10.554   1.369  21.003  0.00  0.00    +0.145 HD
ATOM      9  C   UNL     1       9.572   1.589  22.727  0.00  0.00    +0.195 A 
ATOM     10  N   UNL     1       9.144   2.532  23.640  0.00  0.00    -0.293 N 
ATOM     11  H   UNL     1       9.203   3.512  23.421  0.00  0.00    +0.172 HD
ATOM     12  C   UNL     1       8.545   2.237  24.860  0.00  0.00    +0.280 A 
ATOM     13  O   UNL     1       8.180   3.118  25.632  0.00  0.00    -0.265 OA
ATOM     14  C   UNL     1       8.443   0.809  25.079  0.00  0.00    +0.172 A 
ATOM     15  N   UNL     1       7.920   0.114  26.139  0.00  0.00    -0.229 NA
ATOM     16  C   UNL     1       8.091  -1.151  25.815  0.00  0.00    +0.203 A 
ATOM     17  N   UNL     1       8.761  -1.294  24.625  0.00  0.00    -0.285 N 
ATOM     18  C   UNL     1       8.932  -0.034  24.117  0.00  0.00    +0.171 A 
ATOM     19  N   UNL     1       9.503   0.298  22.929  0.00  0.00    -0.196 NA
ENDBRANCH   1  17
BRANCH   2  20
ATOM     20  O   UNL     1       9.964  -4.755  24.860  0.00  0.00    -0.385 OA
ATOM     21  H   UNL     1      10.821  -4.305  24.735  0.00  0.00    +0.210 HD
ENDBRANCH   2  20
BRANCH   3  22
ATOM     22  O   UNL     1       6.596  -4.436  25.158  0.00  0.00    -0.278 OA
BRANCH  22  23
ATOM     23  P   UNL     1       7.127  -5.226  26.603  0.00  0.00    +0.473 P 
ATOM     24  O   UNL     1       7.603  -5.932  27.896  0.00  0.00    -0.228 OA
BRANCH  23  25
ATOM     25  O   UNL     1       5.897  -6.248  26.269  0.00  0.00    -0.303 OA
ATOM     26  H   UNL     1       6.069  -7.062  26.777  0.00  0.00    +0.222 HD
ENDBRANCH  23  25
BRANCH  23  27
ATOM     27  O   UNL     1       6.179  -4.128  27.364  0.00  0.00    -0.303 OA
ATOM     28  H   UNL     1       6.094  -4.330  28.312  0.00  0.00    +0.222 HD
ENDBRANCH  23  27
ENDBRANCH  22  23
ENDBRANCH   3  22
BRANCH   4  29
ATOM     29  C   UNL     1       6.901  -4.229  21.799  0.00  0.00    +0.190 C 
BRANCH  29  30
ATOM     30  O   UNL     1       5.671  -3.694  21.311  0.00  0.00    -0.392 OA
ATOM     31  H   UNL     1       5.171  -4.448  20.947  0.00  0.00    +0.210 HD
ENDBRANCH  29  30
ENDBRANCH   4  29
TORSDOF 8
ENDMDL
MODEL 4
REMARK VINA RESULT:      -6.8      3.378      6.486
REMARK  Name = 
REMARK  8 active torsions:
REMARK  status: ('A' for Active; 'I' for Inactive)
REMARK    1  A    between atoms: N_8  and  C_9
REMARK    2  A    between atoms: C_12  and  C_14
REMARK    3  A    between atoms: C_14  and  O_15
REMARK    4  A    between atoms: C_16  and  O_18
REMARK    5  A    between atoms: O_18  and  P_19
REMARK    6  A    between atoms: P_19  and  O_20
REMARK    7  A    between atoms: P_19  and  O_21
REMARK    8  A    between atoms: C_23  and  O_25
REMARK                            x       y       z     vdW  Elec       q    Type
REMARK                         _______ _______ _______ _____ _____    ______ ____
ROOT
ATOM      1  C   UNL     1       8.506  -4.149  25.590  0.00  0.00    +0.253 C 
ATOM      2  C   UNL     1       9.000  -3.392  24.352  0.00  0.00    +0.196 C 
ATOM      3  C   UNL     1       8.742  -1.912  24.646  0.00  0.00    +0.194 C 
ATOM      4  C   UNL     1       8.113  -1.897  26.031  0.00  0.00    +0.178 C 
ATOM      5  O   UNL     1       8.481  -3.157  26.644  0.00  0.00    -0.346 OA
ENDROOT
BRANCH   1  17
ATOM      6  N   UNL     1       6.438  -7.119  29.452  0.00  0.00    -0.329 N 
ATOM      7  H   UNL     1       6.154  -8.051  29.726  0.00  0.00    +0.145 HD
ATOM      8  H   UNL     1       7.372  -6.872  29.767  0.00  0.00    +0.145 HD
ATOM      9  C   UNL     1       6.154  -6.701  28.195  0.00  0.00    +0.195 A 
ATOM     10  N   UNL     1       4.994  -7.202  27.638  0.00  0.00    -0.293 N 
ATOM     11  H   UNL     1       4.400  -7.814  28.172  0.00  0.00    +0.172 HD
ATOM     12  C   UNL     1       4.512  -6.866  26.377  0.00  0.00    +0.280 A 
ATOM     13  O   UNL     1       3.470  -7.342  25.935  0.00  0.00    -0.265 OA
ATOM     14  C   UNL     1       5.389  -5.940  25.694  0.00  0.00    +0.172 A 
ATOM     15  N   UNL     1       5.276  -5.368  24.453  0.00  0.00    -0.229 NA
ATOM     16  C   UNL     1       6.351  -4.615  24.342  0.00  0.00    +0.203 A 
ATOM     17  N   UNL     1       7.179  -4.732  25.430  0.00  0.00    -0.285 N 
ATOM     18  C   UNL     1       6.533  -5.535  26.331  0.00  0.00    +0.171 A 
ATOM     19  N   UNL     1       6.962  -5.881  27.574  0.00  0.00    -0.196 NA
ENDBRANCH   1  17
BRANCH   2  20
ATOM     20  O   UNL     1      10.397  -3.573  24.093  0.00  0.00    -0.385 OA
ATOM     21  H   UNL     1      10.617  -4.522  24.158  0.00  0.00    +0.210 HD
ENDBRANCH   2  20
BRANCH   3  22
ATOM     22  O   UNL     1       7.847  -1.370  23.670  0.00  0.00    -0.278 OA
BRANCH  22  23
ATOM     23  P   UNL     1       8.752  -0.490  22.488  0.00  0.00    +0.473 P 
ATOM     24  O   UNL     1       9.562   0.297  21.429  0.00  0.00    -0.228 OA
BRANCH  23  25
ATOM     25  O   UNL     1       9.943  -0.591  23.603  0.00  0.00    -0.303 OA
ATOM     26  H   UNL     1       9.547  -1.002  24.393  0.00  0.00    +0.222 HD
ENDBRANCH  23  25
BRANCH  23  27
ATOM     27  O   UNL     1       8.054   0.829  23.163  0.00  0.00    -0.303 OA
ATOM     28  H   UNL     1       7.212   1.047  22.726  0.00  0.00    +0.222 HD
ENDBRANCH  23  27
ENDBRANCH  22  23
ENDBRANCH   3  22
BRANCH   4  29
ATOM     29  C   UNL     1       8.614  -0.754  26.903  0.00  0.00    +0.190 C 
BRANCH  29  30
ATOM     30  O   UNL     1       8.853   0.407  26.107  0.00  0.00    -0.392 OA
ATOM     31  H   UNL     1       8.537   1.166  26.629  0.00  0.00    +0.210 HD
ENDBRANCH  29  30
ENDBRANCH   4  29
TORSDOF 8
ENDMDL
MODEL 5
REMARK VINA RESULT:      -6.7      2.651      4.279
REMARK  Name = 
REMARK  8 active torsions:
REMARK  status: ('A' for Active; 'I' for Inactive)
REMARK    1  A    between atoms: N_8  and  C_9
REMARK    2  A    between atoms: C_12  and  C_14
REMARK    3  A    between atoms: C_14  and  O_15
REMARK    4  A    between atoms: C_16  and  O_18
REMARK    5  A    between atoms: O_18  and  P_19
REMARK    6  A    between atoms: P_19  and  O_20
REMARK    7  A    between atoms: P_19  and  O_21
REMARK    8  A    between atoms: C_23  and  O_25
REMARK                            x       y       z     vdW  Elec       q    Type
REMARK                         _______ _______ _______ _____ _____    ______ ____
ROOT
ATOM      1  C   UNL     1       7.614  -1.620  22.886  0.00  0.00    +0.253 C 
ATOM      2  C   UNL     1       7.992  -3.030  23.351  0.00  0.00    +0.196 C 
ATOM      3  C   UNL     1       7.242  -3.244  24.668  0.00  0.00    +0.194 C 
ATOM      4  C   UNL     1       6.476  -1.948  24.890  0.00  0.00    +0.178 C 
ATOM      5  O   UNL     1       6.386  -1.316  23.590  0.00  0.00    -0.346 OA
ENDROOT
BRANCH   1  17
ATOM      6  N   UNL     1       6.683   3.471  21.782  0.00  0.00    -0.329 N 
ATOM      7  H   UNL     1       6.941   4.260  21.202  0.00  0.00    +0.145 HD
ATOM      8  H   UNL     1       5.873   2.965  21.438  0.00  0.00    +0.145 HD
ATOM      9  C   UNL     1       7.668   2.674  22.261  0.00  0.00    +0.195 A 
ATOM     10  N   UNL     1       8.873   3.293  22.529  0.00  0.00    -0.293 N 
ATOM     11  H   UNL     1       8.972   4.286  22.395  0.00  0.00    +0.172 HD
ATOM     12  C   UNL     1       9.990   2.656  23.059  0.00  0.00    +0.280 A 
ATOM     13  O   UNL     1      11.035   3.260  23.279  0.00  0.00    -0.265 OA
ATOM     14  C   UNL     1       9.752   1.245  23.277  0.00  0.00    +0.172 A 
ATOM     15  N   UNL     1      10.583   0.277  23.781  0.00  0.00    -0.229 NA
ATOM     16  C   UNL     1       9.856  -0.821  23.754  0.00  0.00    +0.203 A 
ATOM     17  N   UNL     1       8.621  -0.611  23.194  0.00  0.00    -0.285 N 
ATOM     18  C   UNL     1       8.527   0.731  22.944  0.00  0.00    +0.171 A 
ATOM     19  N   UNL     1       7.454   1.395  22.436  0.00  0.00    -0.196 NA
ENDBRANCH   1  17
BRANCH   2  20
ATOM     20  O   UNL     1       7.607  -4.057  22.430  0.00  0.00    -0.385 OA
ATOM     21  H   UNL     1       6.637  -4.162  22.451  0.00  0.00    +0.210 HD
ENDBRANCH   2  20
BRANCH   3  22
ATOM     22  O   UNL     1       8.173  -3.479  25.728  0.00  0.00    -0.278 OA
BRANCH  22  23
ATOM     23  P   UNL     1       7.653  -4.843  26.656  0.00  0.00    +0.473 P 
ATOM     24  O   UNL     1       7.188  -6.064  27.486  0.00  0.00    -0.228 OA
BRANCH  23  25
ATOM     25  O   UNL     1       9.141  -5.415  26.292  0.00  0.00    -0.303 OA
ATOM     26  H   UNL     1       9.776  -4.735  26.581  0.00  0.00    +0.222 HD
ENDBRANCH  23  25
BRANCH  23  27
ATOM     27  O   UNL     1       6.976  -5.342  25.250  0.00  0.00    -0.303 OA
ATOM     28  H   UNL     1       6.185  -5.885  25.412  0.00  0.00    +0.222 HD
ENDBRANCH  23  27
ENDBRANCH  22  23
ENDBRANCH   3  22
BRANCH   4  29
ATOM     29  C   UNL     1       5.071  -2.169  25.435  0.00  0.00    +0.190 C 
BRANCH  29  30
ATOM     30  O   UNL     1       4.574  -3.441  25.018  0.00  0.00    -0.392 OA
ATOM     31  H   UNL     1       4.651  -3.459  24.047  0.00  0.00    +0.210 HD
ENDBRANCH  29  30
ENDBRANCH   4  29
TORSDOF 8
ENDMDL
MODEL 6
REMARK VINA RESULT:      -6.7      2.192      3.316
REMARK  Name = 
REMARK  8 active torsions:
REMARK  status: ('A' for Active; 'I' for Inactive)
REMARK    1  A    between atoms: N_8  and  C_9
REMARK    2  A    between atoms: C_12  and  C_14
REMARK    3  A    between atoms: C_14  and  O_15
REMARK    4  A    between atoms: C_16  and  O_18
REMARK    5  A    between atoms: O_18  and  P_19
REMARK    6  A    between atoms: P_19  and  O_20
REMARK    7  A    between atoms: P_19  and  O_21
REMARK    8  A    between atoms: C_23  and  O_25
REMARK                            x       y       z     vdW  Elec       q    Type
REMARK                         _______ _______ _______ _____ _____    ______ ____
ROOT
ATOM      1  C   UNL     1       5.448  -3.349  23.098  0.00  0.00    +0.253 C 
ATOM      2  C   UNL     1       6.448  -4.163  22.271  0.00  0.00    +0.196 C 
ATOM      3  C   UNL     1       6.791  -5.385  23.126  0.00  0.00    +0.194 C 
ATOM      4  C   UNL     1       5.974  -5.208  24.397  0.00  0.00    +0.178 C 
ATOM      5  O   UNL     1       4.906  -4.292  24.054  0.00  0.00    -0.346 OA
ENDROOT
BRANCH   1  17
ATOM      6  N   UNL     1       9.795  -1.030  21.166  0.00  0.00    -0.329 N 
ATOM      7  H   UNL     1      10.784  -0.866  21.304  0.00  0.00    +0.145 HD
ATOM      8  H   UNL     1       9.598  -1.805  20.540  0.00  0.00    +0.145 HD
ATOM      9  C   UNL     1       8.975  -0.970  22.243  0.00  0.00    +0.195 A 
ATOM     10  N   UNL     1       9.340  -0.080  23.234  0.00  0.00    -0.293 N 
ATOM     11  H   UNL     1      10.155   0.499  23.119  0.00  0.00    +0.172 HD
ATOM     12  C   UNL     1       8.611   0.154  24.395  0.00  0.00    +0.280 A 
ATOM     13  O   UNL     1       8.984   0.961  25.241  0.00  0.00    -0.265 OA
ATOM     14  C   UNL     1       7.425  -0.673  24.462  0.00  0.00    +0.172 A 
ATOM     15  N   UNL     1       6.451  -0.744  25.426  0.00  0.00    -0.229 NA
ATOM     16  C   UNL     1       5.617  -1.659  24.978  0.00  0.00    +0.203 A 
ATOM     17  N   UNL     1       6.049  -2.223  23.804  0.00  0.00    -0.285 N 
ATOM     18  C   UNL     1       7.179  -1.545  23.436  0.00  0.00    +0.171 A 
ATOM     19  N   UNL     1       7.915  -1.735  22.308  0.00  0.00    -0.196 NA
ENDBRANCH   1  17
BRANCH   2  20
ATOM     20  O   UNL     1       5.919  -4.612  21.018  0.00  0.00    -0.385 OA
ATOM     21  H   UNL     1       5.815  -3.848  20.419  0.00  0.00    +0.210 HD
ENDBRANCH   2  20
BRANCH   3  22
ATOM     22  O   UNL     1       8.192  -5.402  23.415  0.00  0.00    -0.278 OA
BRANCH  22  23
ATOM     23  P   UNL     1       8.454  -4.809  25.019  0.00  0.00    +0.473 P 
ATOM     24  O   UNL     1       8.687  -4.279  26.455  0.00  0.00    -0.228 OA
BRANCH  23  25
ATOM     25  O   UNL     1       9.444  -3.752  24.261  0.00  0.00    -0.303 OA
ATOM     26  H   UNL     1      10.338  -4.137  24.299  0.00  0.00    +0.222 HD
ENDBRANCH  23  25
BRANCH  23  27
ATOM     27  O   UNL     1       9.577  -5.998  25.106  0.00  0.00    -0.303 OA
ATOM     28  H   UNL     1      10.334  -5.814  24.524  0.00  0.00    +0.222 HD
ENDBRANCH  23  27
ENDBRANCH  22  23
ENDBRANCH   3  22
BRANCH   4  29
ATOM     29  C   UNL     1       5.369  -6.510  24.906  0.00  0.00    +0.190 C 
BRANCH  29  30
ATOM     30  O   UNL     1       4.806  -7.250  23.823  0.00  0.00    -0.392 OA
ATOM     31  H   UNL     1       5.301  -6.986  23.026  0.00  0.00    +0.210 HD
ENDBRANCH  29  30
ENDBRANCH   4  29
TORSDOF 8
ENDMDL
MODEL 7
REMARK VINA RESULT:      -6.7      3.314      6.414
REMARK  Name = 
REMARK  8 active torsions:
REMARK  status: ('A' for Active; 'I' for Inactive)
REMARK    1  A    between atoms: N_8  and  C_9
REMARK    2  A    between atoms: C_12  and  C_14
REMARK    3  A    between atoms: C_14  and  O_15
REMARK    4  A    between atoms: C_16  and  O_18
REMARK    5  A    between atoms: O_18  and  P_19
REMARK    6  A    between atoms: P_19  and  O_20
REMARK    7  A    between atoms: P_19  and  O_21
REMARK    8  A    between atoms: C_23  and  O_25
REMARK                            x       y       z     vdW  Elec       q    Type
REMARK                         _______ _______ _______ _____ _____    ______ ____
ROOT
ATOM      1  C   UNL     1       7.404  -3.231  23.742  0.00  0.00    +0.253 C 
ATOM      2  C   UNL     1       6.978  -1.765  23.874  0.00  0.00    +0.196 C 
ATOM      3  C   UNL     1       8.259  -0.947  23.693  0.00  0.00    +0.194 C 
ATOM      4  C   UNL     1       9.350  -1.983  23.469  0.00  0.00    +0.178 C 
ATOM      5  O   UNL     1       8.669  -3.186  23.038  0.00  0.00    -0.346 OA
ENDROOT
BRANCH   1  17
ATOM      6  N   UNL     1       4.088  -7.108  25.150  0.00  0.00    -0.329 N 
ATOM      7  H   UNL     1       3.352  -7.386  25.786  0.00  0.00    +0.145 HD
ATOM      8  H   UNL     1       3.742  -6.763  24.259  0.00  0.00    +0.145 HD
ATOM      9  C   UNL     1       5.136  -6.406  25.642  0.00  0.00    +0.195 A 
ATOM     10  N   UNL     1       5.496  -6.688  26.945  0.00  0.00    -0.293 N 
ATOM     11  H   UNL     1       5.008  -7.401  27.461  0.00  0.00    +0.172 HD
ATOM     12  C   UNL     1       6.564  -6.103  27.616  0.00  0.00    +0.280 A 
ATOM     13  O   UNL     1       6.839  -6.396  28.776  0.00  0.00    -0.265 OA
ATOM     14  C   UNL     1       7.251  -5.131  26.791  0.00  0.00    +0.172 A 
ATOM     15  N   UNL     1       8.341  -4.347  27.072  0.00  0.00    -0.229 NA
ATOM     16  C   UNL     1       8.535  -3.653  25.970  0.00  0.00    +0.203 A 
ATOM     17  N   UNL     1       7.576  -3.910  25.021  0.00  0.00    -0.285 N 
ATOM     18  C   UNL     1       6.786  -4.908  25.523  0.00  0.00    +0.171 A 
ATOM     19  N   UNL     1       5.739  -5.513  24.900  0.00  0.00    -0.196 NA
ENDBRANCH   1  17
BRANCH   2  20
ATOM     20  O   UNL     1       6.027  -1.357  22.884  0.00  0.00    -0.385 OA
ATOM     21  H   UNL     1       6.497  -1.132  22.058  0.00  0.00    +0.210 HD
ENDBRANCH   2  20
BRANCH   3  22
ATOM     22  O   UNL     1       8.517  -0.176  24.870  0.00  0.00    -0.278 OA
BRANCH  22  23
ATOM     23  P   UNL     1       9.181   1.355  24.418  0.00  0.00    +0.473 P 
ATOM     24  O   UNL     1       9.775   2.727  24.013  0.00  0.00    -0.228 OA
BRANCH  23  25
ATOM     25  O   UNL     1      10.472   0.833  25.272  0.00  0.00    -0.303 OA
ATOM     26  H   UNL     1      10.223   0.891  26.212  0.00  0.00    +0.222 HD
ENDBRANCH  23  25
BRANCH  23  27
ATOM     27  O   UNL     1       8.376   1.915  25.730  0.00  0.00    -0.303 OA
ATOM     28  H   UNL     1       8.410   2.886  25.778  0.00  0.00    +0.222 HD
ENDBRANCH  23  27
ENDBRANCH  22  23
ENDBRANCH   3  22
BRANCH   4  29
ATOM     29  C   UNL     1      10.357  -1.571  22.403  0.00  0.00    +0.190 C 
BRANCH  29  30
ATOM     30  O   UNL     1       9.683  -1.005  21.279  0.00  0.00    -0.392 OA
ATOM     31  H   UNL     1      10.119  -0.152  21.101  0.00  0.00    +0.210 HD
ENDBRANCH  29  30
ENDBRANCH   4  29
TORSDOF 8
ENDMDL
MODEL 8
REMARK VINA RESULT:      -6.6      2.696      5.789
REMARK  Name = 
REMARK  8 active torsions:
REMARK  status: ('A' for Active; 'I' for Inactive)
REMARK    1  A    between atoms: N_8  and  C_9
REMARK    2  A    between atoms: C_12  and  C_14
REMARK    3  A    between atoms: C_14  and  O_15
REMARK    4  A    between atoms: C_16  and  O_18
REMARK    5  A    between atoms: O_18  and  P_19
REMARK    6  A    between atoms: P_19  and  O_20
REMARK    7  A    between atoms: P_19  and  O_21
REMARK    8  A    between atoms: C_23  and  O_25
REMARK                            x       y       z     vdW  Elec       q    Type
REMARK                         _______ _______ _______ _____ _____    ______ ____
ROOT
ATOM      1  C   UNL     1       9.671  -2.522  23.630  0.00  0.00    +0.253 C 
ATOM      2  C   UNL     1       9.007  -1.824  22.438  0.00  0.00    +0.196 C 
ATOM      3  C   UNL     1       8.617  -0.432  22.942  0.00  0.00    +0.194 C 
ATOM      4  C   UNL     1       9.073  -0.405  24.393  0.00  0.00    +0.178 C 
ATOM      5  O   UNL     1      10.074  -1.445  24.510  0.00  0.00    -0.346 OA
ENDROOT
BRANCH   1  17
ATOM      6  N   UNL     1       6.163  -5.439  20.948  0.00  0.00    -0.329 N 
ATOM      7  H   UNL     1       5.181  -5.596  20.757  0.00  0.00    +0.145 HD
ATOM      8  H   UNL     1       6.621  -4.856  20.254  0.00  0.00    +0.145 HD
ATOM      9  C   UNL     1       6.538  -5.174  22.223  0.00  0.00    +0.195 A 
ATOM     10  N   UNL     1       5.785  -5.775  23.213  0.00  0.00    -0.293 N 
ATOM     11  H   UNL     1       5.030  -6.393  22.969  0.00  0.00    +0.172 HD
ATOM     12  C   UNL     1       6.033  -5.656  24.576  0.00  0.00    +0.280 A 
ATOM     13  O   UNL     1       5.331  -6.217  25.413  0.00  0.00    -0.265 OA
ATOM     14  C   UNL     1       7.168  -4.799  24.846  0.00  0.00    +0.172 A 
ATOM     15  N   UNL     1       7.734  -4.433  26.040  0.00  0.00    -0.229 NA
ATOM     16  C   UNL     1       8.731  -3.643  25.698  0.00  0.00    +0.203 A 
ATOM     17  N   UNL     1       8.786  -3.435  24.343  0.00  0.00    -0.285 N 
ATOM     18  C   UNL     1       7.821  -4.229  23.785  0.00  0.00    +0.171 A 
ATOM     19  N   UNL     1       7.551  -4.381  22.460  0.00  0.00    -0.196 NA
ENDBRANCH   1  17
BRANCH   2  20
ATOM     20  O   UNL     1       9.875  -1.677  21.308  0.00  0.00    -0.385 OA
ATOM     21  H   UNL     1      10.105  -2.560  20.961  0.00  0.00    +0.210 HD
ENDBRANCH   2  20
BRANCH   3  22
ATOM     22  O   UNL     1       7.200  -0.258  22.846  0.00  0.00    -0.278 OA
BRANCH  22  23
ATOM     23  P   UNL     1       6.464  -0.715  24.344  0.00  0.00    +0.473 P 
ATOM     24  O   UNL     1       5.806  -1.123  25.684  0.00  0.00    -0.228 OA
BRANCH  23  25
ATOM     25  O   UNL     1       5.646  -1.770  23.400  0.00  0.00    -0.303 OA
ATOM     26  H   UNL     1       5.132  -2.337  24.003  0.00  0.00    +0.222 HD
ENDBRANCH  23  25
BRANCH  23  27
ATOM     27  O   UNL     1       5.450   0.537  24.046  0.00  0.00    -0.303 OA
ATOM     28  H   UNL     1       5.938   1.375  23.962  0.00  0.00    +0.222 HD
ENDBRANCH  23  27
ENDBRANCH  22  23
ENDBRANCH   3  22
BRANCH   4  29
ATOM     29  C   UNL     1       9.688   0.927  24.802  0.00  0.00    +0.190 C 
BRANCH  29  30
ATOM     30  O   UNL     1      11.066   0.754  25.133  0.00  0.00    -0.392 OA
ATOM     31  H   UNL     1      11.103   0.652  26.102  0.00  0.00    +0.210 HD
ENDBRANCH  29  30
ENDBRANCH   4  29
TORSDOF 8
ENDMDL
MODEL 9
REMARK VINA RESULT:      -6.6      3.036      6.206
REMARK  Name = 
REMARK  8 active torsions:
REMARK  status: ('A' for Active; 'I' for Inactive)
REMARK    1  A    between atoms: N_8  and  C_9
REMARK    2  A    between atoms: C_12  and  C_14
REMARK    3  A    between atoms: C_14  and  O_15
REMARK    4  A    between atoms: C_16  and  O_18
REMARK    5  A    between atoms: O_18  and  P_19
REMARK    6  A    between atoms: P_19  and  O_20
REMARK    7  A    between atoms: P_19  and  O_21
REMARK    8  A    between atoms: C_23  and  O_25
REMARK                            x       y       z     vdW  Elec       q    Type
REMARK                         _______ _______ _______ _____ _____    ______ ____
ROOT
ATOM      1  C   UNL     1       7.940  -3.391  24.463  0.00  0.00    +0.253 C 
ATOM      2  C   UNL     1       8.847  -2.575  23.536  0.00  0.00    +0.196 C 
ATOM      3  C   UNL     1       8.642  -1.114  23.941  0.00  0.00    +0.194 C 
ATOM      4  C   UNL     1       7.629  -1.166  25.075  0.00  0.00    +0.178 C 
ATOM      5  O   UNL     1       7.685  -2.519  25.590  0.00  0.00    -0.346 OA
ENDROOT
BRANCH   1  17
ATOM      6  N   UNL     1       4.951  -7.124  26.730  0.00  0.00    -0.329 N 
ATOM      7  H   UNL     1       4.591  -8.067  26.650  0.00  0.00    +0.145 HD
ATOM      8  H   UNL     1       5.788  -7.059  27.303  0.00  0.00    +0.145 HD
ATOM      9  C   UNL     1       4.984  -6.350  25.619  0.00  0.00    +0.195 A 
ATOM     10  N   UNL     1       3.979  -6.570  24.697  0.00  0.00    -0.293 N 
ATOM     11  H   UNL     1       3.263  -7.252  24.883  0.00  0.00    +0.172 HD
ATOM     12  C   UNL     1       3.819  -5.855  23.516  0.00  0.00    +0.280 A 
ATOM     13  O   UNL     1       2.903  -6.094  22.734  0.00  0.00    -0.265 OA
ATOM     14  C   UNL     1       4.852  -4.856  23.346  0.00  0.00    +0.172 A 
ATOM     15  N   UNL     1       5.050  -3.953  22.332  0.00  0.00    -0.229 NA
ATOM     16  C   UNL     1       6.135  -3.297  22.688  0.00  0.00    +0.203 A 
ATOM     17  N   UNL     1       6.678  -3.786  23.850  0.00  0.00    -0.285 N 
ATOM     18  C   UNL     1       5.819  -4.747  24.310  0.00  0.00    +0.171 A 
ATOM     19  N   UNL     1       5.933  -5.463  25.461  0.00  0.00    -0.196 NA
ENDBRANCH   1  17
BRANCH   2  20
ATOM     20  O   UNL     1      10.236  -2.898  23.668  0.00  0.00    -0.385 OA
ATOM     21  H   UNL     1      10.771  -2.098  23.508  0.00  0.00    +0.210 HD
ENDBRANCH   2  20
BRANCH   3  22
ATOM     22  O   UNL     1       8.133  -0.366  22.833  0.00  0.00    -0.278 OA
BRANCH  22  23
ATOM     23  P   UNL     1       9.303   0.812  22.350  0.00  0.00    +0.473 P 
ATOM     24  O   UNL     1      10.351   1.867  21.919  0.00  0.00    -0.228 OA
BRANCH  23  25
ATOM     25  O   UNL     1       8.028   1.482  21.576  0.00  0.00    -0.303 OA
ATOM     26  H   UNL     1       7.409   0.754  21.384  0.00  0.00    +0.222 HD
ENDBRANCH  23  25
BRANCH  23  27
ATOM     27  O   UNL     1       9.642  -0.247  21.147  0.00  0.00    -0.303 OA
ATOM     28  H   UNL     1       9.657  -1.162  21.476  0.00  0.00    +0.222 HD
ENDBRANCH  23  27
ENDBRANCH  22  23
ENDBRANCH   3  22
BRANCH   4  29
ATOM     29  C   UNL     1       7.940  -0.190  26.202  0.00  0.00    +0.190 C 
BRANCH  29  30
ATOM     30  O   UNL     1       9.065  -0.646  26.954  0.00  0.00    -0.392 OA
ATOM     31  H   UNL     1       9.015  -0.198  27.818  0.00  0.00    +0.210 HD
ENDBRANCH  29  30
ENDBRANCH   4  29
TORSDOF 8
ENDMDL
