MODEL 1
REMARK VINA RESULT:      -5.0      0.000      0.000
REMARK  Name = 
REMARK  7 active torsions:
REMARK  status: ('A' for Active; 'I' for Inactive)
REMARK    1  A    between atoms: C_1  and  C_2
REMARK    2  A    between atoms: N_4  and  C_6
REMARK    3  A    between atoms: C_6  and  C_7
REMARK    4  A    between atoms: C_7  and  O_8
REMARK    5  A    between atoms: O_8  and  P_9
REMARK    6  A    between atoms: P_9  and  O_10
REMARK    7  A    between atoms: P_9  and  O_11
REMARK                            x       y       z     vdW  Elec       q    Type
REMARK                         _______ _______ _______ _____ _____    ______ ____
ROOT
ATOM      1  C   UNL     1       9.354  -2.622  24.074  0.00  0.00    +0.192 C 
ENDROOT
BRANCH   1   2
ATOM      2  C   UNL     1      10.128  -1.882  22.994  0.00  0.00    +0.149 C 
BRANCH   2   5
ATOM      3  C   UNL     1       9.723   1.817  22.111  0.00  0.00    +0.110 C 
ATOM      4  C   UNL     1       9.721   0.312  21.992  0.00  0.00    +0.222 C 
ATOM      5  N   UNL     1      10.157  -0.420  23.092  0.00  0.00    -0.236 N 
ATOM      6 BR   UNL     1      10.702   0.421  24.708  0.00  0.00    +0.039 Br
ATOM      7  O   UNL     1       9.360  -0.223  20.940  0.00  0.00    -0.275 OA
ENDBRANCH   2   5
ENDBRANCH   1   2
BRANCH   1   8
ATOM      8  O   UNL     1       9.983  -3.854  24.460  0.00  0.00    -0.285 OA
BRANCH   8   9
ATOM      9  P   UNL     1       8.845  -4.787  25.371  0.00  0.00    +0.472 P 
ATOM     10  O   UNL     1       7.826  -5.620  26.186  0.00  0.00    -0.228 OA
BRANCH   9  11
ATOM     11  O   UNL     1       9.955  -5.986  25.247  0.00  0.00    -0.303 OA
ATOM     12  H   UNL     1      10.856  -5.654  25.402  0.00  0.00    +0.222 HD
ENDBRANCH   9  11
BRANCH   9  13
ATOM     13  O   UNL     1       8.182  -5.109  23.909  0.00  0.00    -0.303 OA
ATOM     14  H   UNL     1       7.314  -4.661  23.907  0.00  0.00    +0.222 HD
ENDBRANCH   9  13
ENDBRANCH   8   9
ENDBRANCH   1   8
TORSDOF 6
ENDMDL
MODEL 2
REMARK VINA RESULT:      -4.8      1.898      1.900
REMARK  Name = 
REMARK  7 active torsions:
REMARK  status: ('A' for Active; 'I' for Inactive)
REMARK    1  A    between atoms: C_1  and  C_2
REMARK    2  A    between atoms: N_4  and  C_6
REMARK    3  A    between atoms: C_6  and  C_7
REMARK    4  A    between atoms: C_7  and  O_8
REMARK    5  A    between atoms: O_8  and  P_9
REMARK    6  A    between atoms: P_9  and  O_10
REMARK    7  A    between atoms: P_9  and  O_11
REMARK                            x       y       z     vdW  Elec       q    Type
REMARK                         _______ _______ _______ _____ _____    ______ ____
ROOT
ATOM      1  C   UNL     1       9.543  -2.388  23.939  0.00  0.00    +0.192 C 
ENDROOT
BRANCH   1   2
ATOM      2  C   UNL     1      10.424  -1.470  23.107  0.00  0.00    +0.149 C 
BRANCH   2   5
ATOM      3  C   UNL     1      10.006   2.234  23.970  0.00  0.00    +0.110 C 
ATOM      4  C   UNL     1      10.398   0.779  24.071  0.00  0.00    +0.222 C 
ATOM      5  N   UNL     1      10.019  -0.063  23.030  0.00  0.00    -0.236 N 
ATOM      6 BR   UNL     1       9.080   0.582  21.507  0.00  0.00    +0.039 Br
ATOM      7  O   UNL     1      11.013   0.373  25.061  0.00  0.00    -0.275 OA
ENDBRANCH   2   5
ENDBRANCH   1   2
BRANCH   1   8
ATOM      8  O   UNL     1      10.149  -3.667  24.182  0.00  0.00    -0.285 OA
BRANCH   8   9
ATOM      9  P   UNL     1       9.124  -4.563  25.249  0.00  0.00    +0.472 P 
ATOM     10  O   UNL     1       8.206  -5.365  26.204  0.00  0.00    -0.228 OA
BRANCH   9  11
ATOM     11  O   UNL     1      10.410  -5.567  25.400  0.00  0.00    -0.303 OA
ATOM     12  H   UNL     1      10.666  -5.680  26.332  0.00  0.00    +0.222 HD
ENDBRANCH   9  11
BRANCH   9  13
ATOM     13  O   UNL     1       8.593  -5.281  23.878  0.00  0.00    -0.303 OA
ATOM     14  H   UNL     1       7.619  -5.305  23.951  0.00  0.00    +0.222 HD
ENDBRANCH   9  13
ENDBRANCH   8   9
ENDBRANCH   1   8
TORSDOF 6
ENDMDL
MODEL 3
REMARK VINA RESULT:      -4.5      1.862      2.299
REMARK  Name = 
REMARK  7 active torsions:
REMARK  status: ('A' for Active; 'I' for Inactive)
REMARK    1  A    between atoms: C_1  and  C_2
REMARK    2  A    between atoms: N_4  and  C_6
REMARK    3  A    between atoms: C_6  and  C_7
REMARK    4  A    between atoms: C_7  and  O_8
REMARK    5  A    between atoms: O_8  and  P_9
REMARK    6  A    between atoms: P_9  and  O_10
REMARK    7  A    between atoms: P_9  and  O_11
REMARK                            x       y       z     vdW  Elec       q    Type
REMARK                         _______ _______ _______ _____ _____    ______ ____
ROOT
ATOM      1  C   UNL     1       7.791  -4.142  23.387  0.00  0.00    +0.192 C 
ENDROOT
BRANCH   1   2
ATOM      2  C   UNL     1       8.751  -3.026  23.769  0.00  0.00    +0.149 C 
BRANCH   2   5
ATOM      3  C   UNL     1       9.475   0.032  21.589  0.00  0.00    +0.110 C 
ATOM      4  C   UNL     1       9.663  -1.268  22.333  0.00  0.00    +0.222 C 
ATOM      5  N   UNL     1       8.585  -1.748  23.070  0.00  0.00    -0.236 N 
ATOM      6 BR   UNL     1       6.916  -0.838  23.121  0.00  0.00    +0.039 Br
ATOM      7  O   UNL     1      10.749  -1.853  22.288  0.00  0.00    -0.275 OA
ENDBRANCH   2   5
ENDBRANCH   1   2
BRANCH   1   8
ATOM      8  O   UNL     1       7.879  -5.274  24.267  0.00  0.00    -0.285 OA
BRANCH   8   9
ATOM      9  P   UNL     1       8.871  -4.841  25.617  0.00  0.00    +0.472 P 
ATOM     10  O   UNL     1       9.759  -4.453  26.824  0.00  0.00    -0.228 OA
BRANCH   9  11
ATOM     11  O   UNL     1       9.871  -6.018  25.068  0.00  0.00    -0.303 OA
ATOM     12  H   UNL     1      10.289  -5.765  24.226  0.00  0.00    +0.222 HD
ENDBRANCH   9  11
BRANCH   9  13
ATOM     13  O   UNL     1       7.924  -5.888  26.444  0.00  0.00    -0.303 OA
ATOM     14  H   UNL     1       7.981  -5.615  27.380  0.00  0.00    +0.222 HD
ENDBRANCH   9  13
ENDBRANCH   8   9
ENDBRANCH   1   8
TORSDOF 6
ENDMDL
MODEL 4
REMARK VINA RESULT:      -4.5      3.186      6.096
REMARK  Name = 
REMARK  7 active torsions:
REMARK  status: ('A' for Active; 'I' for Inactive)
REMARK    1  A    between atoms: C_1  and  C_2
REMARK    2  A    between atoms: N_4  and  C_6
REMARK    3  A    between atoms: C_6  and  C_7
REMARK    4  A    between atoms: C_7  and  O_8
REMARK    5  A    between atoms: O_8  and  P_9
REMARK    6  A    between atoms: P_9  and  O_10
REMARK    7  A    between atoms: P_9  and  O_11
REMARK                            x       y       z     vdW  Elec       q    Type
REMARK                         _______ _______ _______ _____ _____    ______ ____
ROOT
ATOM      1  C   UNL     1       9.777  -0.386  23.556  0.00  0.00    +0.192 C 
ENDROOT
BRANCH   1   2
ATOM      2  C   UNL     1       9.944  -1.888  23.393  0.00  0.00    +0.149 C 
BRANCH   2   5
ATOM      3  C   UNL     1       7.596  -4.736  24.396  0.00  0.00    +0.110 C 
ATOM      4  C   UNL     1       8.850  -3.916  24.217  0.00  0.00    +0.222 C 
ATOM      5  N   UNL     1       8.735  -2.704  23.543  0.00  0.00    -0.236 N 
ATOM      6 BR   UNL     1       7.063  -2.067  22.898  0.00  0.00    +0.039 Br
ATOM      7  O   UNL     1       9.929  -4.337  24.644  0.00  0.00    -0.275 OA
ENDBRANCH   2   5
ENDBRANCH   1   2
BRANCH   1   8
ATOM      8  O   UNL     1      10.125   0.343  22.368  0.00  0.00    -0.285 OA
BRANCH   8   9
ATOM      9  P   UNL     1       9.062   1.701  22.229  0.00  0.00    +0.472 P 
ATOM     10  O   UNL     1       8.110   2.916  22.105  0.00  0.00    -0.228 OA
BRANCH   9  11
ATOM     11  O   UNL     1       8.713   1.086  20.750  0.00  0.00    -0.303 OA
ATOM     12  H   UNL     1       9.489   0.653  20.354  0.00  0.00    +0.222 HD
ENDBRANCH   9  11
BRANCH   9  13
ATOM     13  O   UNL     1      10.396   2.488  21.702  0.00  0.00    -0.303 OA
ATOM     14  H   UNL     1      10.947   2.636  22.495  0.00  0.00    +0.222 HD
ENDBRANCH   9  13
ENDBRANCH   8   9
ENDBRANCH   1   8
TORSDOF 6
ENDMDL
MODEL 5
REMARK VINA RESULT:      -4.4      1.769      2.393
REMARK  Name = 
REMARK  7 active torsions:
REMARK  status: ('A' for Active; 'I' for Inactive)
REMARK    1  A    between atoms: C_1  and  C_2
REMARK    2  A    between atoms: N_4  and  C_6
REMARK    3  A    between atoms: C_6  and  C_7
REMARK    4  A    between atoms: C_7  and  O_8
REMARK    5  A    between atoms: O_8  and  P_9
REMARK    6  A    between atoms: P_9  and  O_10
REMARK    7  A    between atoms: P_9  and  O_11
REMARK                            x       y       z     vdW  Elec       q    Type
REMARK                         _______ _______ _______ _____ _____    ______ ____
ROOT
ATOM      1  C   UNL     1       8.607  -2.546  26.153  0.00  0.00    +0.192 C 
ENDROOT
BRANCH   1   2
ATOM      2  C   UNL     1       8.275  -2.546  24.669  0.00  0.00    +0.149 C 
BRANCH   2   5
ATOM      3  C   UNL     1      10.035  -0.169  22.243  0.00  0.00    +0.110 C 
ATOM      4  C   UNL     1       9.700  -1.408  23.038  0.00  0.00    +0.222 C 
ATOM      5  N   UNL     1       8.624  -1.336  23.918  0.00  0.00    -0.236 N 
ATOM      6 BR   UNL     1       7.576   0.240  24.098  0.00  0.00    +0.039 Br
ATOM      7  O   UNL     1      10.383  -2.427  22.909  0.00  0.00    -0.275 OA
ENDBRANCH   2   5
ENDBRANCH   1   2
BRANCH   1   8
ATOM      8  O   UNL     1       8.957  -3.851  26.641  0.00  0.00    -0.285 OA
BRANCH   8   9
ATOM      9  P   UNL     1       8.989  -4.946  25.302  0.00  0.00    +0.472 P 
ATOM     10  O   UNL     1       9.017  -5.925  24.103  0.00  0.00    -0.228 OA
BRANCH   9  11
ATOM     11  O   UNL     1       8.163  -5.952  26.298  0.00  0.00    -0.303 OA
ATOM     12  H   UNL     1       8.766  -6.519  26.809  0.00  0.00    +0.222 HD
ENDBRANCH   9  11
BRANCH   9  13
ATOM     13  O   UNL     1      10.448  -5.383  25.900  0.00  0.00    -0.303 OA
ATOM     14  H   UNL     1      10.259  -5.959  26.666  0.00  0.00    +0.222 HD
ENDBRANCH   9  13
ENDBRANCH   8   9
ENDBRANCH   1   8
TORSDOF 6
ENDMDL
MODEL 6
REMARK VINA RESULT:      -4.3      2.054      2.531
REMARK  Name = 
REMARK  7 active torsions:
REMARK  status: ('A' for Active; 'I' for Inactive)
REMARK    1  A    between atoms: C_1  and  C_2
REMARK    2  A    between atoms: N_4  and  C_6
REMARK    3  A    between atoms: C_6  and  C_7
REMARK    4  A    between atoms: C_7  and  O_8
REMARK    5  A    between atoms: O_8  and  P_9
REMARK    6  A    between atoms: P_9  and  O_10
REMARK    7  A    between atoms: P_9  and  O_11
REMARK                            x       y       z     vdW  Elec       q    Type
REMARK                         _______ _______ _______ _____ _____    ______ ____
ROOT
ATOM      1  C   UNL     1       7.599  -3.868  24.318  0.00  0.00    +0.192 C 
ENDROOT
BRANCH   1   2
ATOM      2  C   UNL     1       9.064  -3.460  24.312  0.00  0.00    +0.149 C 
BRANCH   2   5
ATOM      3  C   UNL     1      10.345   0.096  23.729  0.00  0.00    +0.110 C 
ATOM      4  C   UNL     1      10.081  -1.377  23.530  0.00  0.00    +0.222 C 
ATOM      5  N   UNL     1       9.351  -2.037  24.514  0.00  0.00    -0.236 N 
ATOM      6 BR   UNL     1       8.666  -1.129  26.038  0.00  0.00    +0.039 Br
ATOM      7  O   UNL     1      10.525  -1.955  22.534  0.00  0.00    -0.275 OA
ENDBRANCH   2   5
ENDBRANCH   1   2
BRANCH   1   8
ATOM      8  O   UNL     1       7.392  -5.181  24.864  0.00  0.00    -0.285 OA
BRANCH   8   9
ATOM      9  P   UNL     1       7.044  -5.022  26.552  0.00  0.00    +0.472 P 
ATOM     10  O   UNL     1       6.733  -4.879  28.061  0.00  0.00    -0.228 OA
BRANCH   9  11
ATOM     11  O   UNL     1       8.389  -5.934  26.762  0.00  0.00    -0.303 OA
ATOM     12  H   UNL     1       9.193  -5.444  26.519  0.00  0.00    +0.222 HD
ENDBRANCH   9  11
BRANCH   9  13
ATOM     13  O   UNL     1       6.076  -6.319  26.311  0.00  0.00    -0.303 OA
ATOM     14  H   UNL     1       6.258  -6.620  25.400  0.00  0.00    +0.222 HD
ENDBRANCH   9  13
ENDBRANCH   8   9
ENDBRANCH   1   8
TORSDOF 6
ENDMDL
MODEL 7
REMARK VINA RESULT:      -4.3      4.457      6.145
REMARK  Name = 
REMARK  7 active torsions:
REMARK  status: ('A' for Active; 'I' for Inactive)
REMARK    1  A    between atoms: C_1  and  C_2
REMARK    2  A    between atoms: N_4  and  C_6
REMARK    3  A    between atoms: C_6  and  C_7
REMARK    4  A    between atoms: C_7  and  O_8
REMARK    5  A    between atoms: O_8  and  P_9
REMARK    6  A    between atoms: P_9  and  O_10
REMARK    7  A    between atoms: P_9  and  O_11
REMARK                            x       y       z     vdW  Elec       q    Type
REMARK                         _______ _______ _______ _____ _____    ______ ____
ROOT
ATOM      1  C   UNL     1       8.037  -1.440  22.456  0.00  0.00    +0.192 C 
ENDROOT
BRANCH   1   2
ATOM      2  C   UNL     1       6.873  -2.317  22.889  0.00  0.00    +0.149 C 
BRANCH   2   5
ATOM      3  C   UNL     1       6.729  -5.961  21.735  0.00  0.00    +0.110 C 
ATOM      4  C   UNL     1       6.478  -4.474  21.803  0.00  0.00    +0.222 C 
ATOM      5  N   UNL     1       7.087  -3.766  22.835  0.00  0.00    -0.236 N 
ATOM      6 BR   UNL     1       8.227  -4.613  24.099  0.00  0.00    +0.039 Br
ATOM      7  O   UNL     1       5.741  -3.933  20.974  0.00  0.00    -0.275 OA
ENDBRANCH   2   5
ENDBRANCH   1   2
BRANCH   1   8
ATOM      8  O   UNL     1       7.706  -0.042  22.450  0.00  0.00    -0.285 OA
BRANCH   8   9
ATOM      9  P   UNL     1       9.152   0.861  22.160  0.00  0.00    +0.472 P 
ATOM     10  O   UNL     1      10.447   1.670  21.901  0.00  0.00    -0.228 OA
BRANCH   9  11
ATOM     11  O   UNL     1       8.282   1.591  20.979  0.00  0.00    -0.303 OA
ATOM     12  H   UNL     1       7.326   1.500  21.135  0.00  0.00    +0.222 HD
ENDBRANCH   9  11
BRANCH   9  13
ATOM     13  O   UNL     1       9.565  -0.409  21.214  0.00  0.00    -0.303 OA
ATOM     14  H   UNL     1      10.179  -0.949  21.748  0.00  0.00    +0.222 HD
ENDBRANCH   9  13
ENDBRANCH   8   9
ENDBRANCH   1   8
TORSDOF 6
ENDMDL
MODEL 8
REMARK VINA RESULT:      -4.3      4.125      5.502
REMARK  Name = 
REMARK  7 active torsions:
REMARK  status: ('A' for Active; 'I' for Inactive)
REMARK    1  A    between atoms: C_1  and  C_2
REMARK    2  A    between atoms: N_4  and  C_6
REMARK    3  A    between atoms: C_6  and  C_7
REMARK    4  A    between atoms: C_7  and  O_8
REMARK    5  A    between atoms: O_8  and  P_9
REMARK    6  A    between atoms: P_9  and  O_10
REMARK    7  A    between atoms: P_9  and  O_11
REMARK                            x       y       z     vdW  Elec       q    Type
REMARK                         _______ _______ _______ _____ _____    ______ ____
ROOT
ATOM      1  C   UNL     1       9.091  -3.416  24.711  0.00  0.00    +0.192 C 
ENDROOT
BRANCH   1   2
ATOM      2  C   UNL     1       8.709  -4.885  24.628  0.00  0.00    +0.149 C 
BRANCH   2   5
ATOM      3  C   UNL     1       5.275  -5.699  23.151  0.00  0.00    +0.110 C 
ATOM      4  C   UNL     1       6.742  -5.357  23.251  0.00  0.00    +0.222 C 
ATOM      5  N   UNL     1       7.278  -5.187  24.524  0.00  0.00    -0.236 N 
ATOM      6 BR   UNL     1       6.229  -5.414  26.094  0.00  0.00    +0.039 Br
ATOM      7  O   UNL     1       7.414  -5.217  22.225  0.00  0.00    -0.275 OA
ENDBRANCH   2   5
ENDBRANCH   1   2
BRANCH   1   8
ATOM      8  O   UNL     1       9.964  -3.010  23.644  0.00  0.00    -0.285 OA
BRANCH   8   9
ATOM      9  P   UNL     1       9.389  -1.506  23.011  0.00  0.00    +0.472 P 
ATOM     10  O   UNL     1       8.875  -0.160  22.445  0.00  0.00    -0.228 OA
BRANCH   9  11
ATOM     11  O   UNL     1       8.332  -2.435  22.171  0.00  0.00    -0.303 OA
ATOM     12  H   UNL     1       7.718  -1.890  21.649  0.00  0.00    +0.222 HD
ENDBRANCH   9  11
BRANCH   9  13
ATOM     13  O   UNL     1      10.587  -1.695  21.912  0.00  0.00    -0.303 OA
ATOM     14  H   UNL     1      10.850  -0.792  21.649  0.00  0.00    +0.222 HD
ENDBRANCH   9  13
ENDBRANCH   8   9
ENDBRANCH   1   8
TORSDOF 6
ENDMDL
MODEL 9
REMARK VINA RESULT:      -4.2      4.620      5.398
REMARK  Name = 
REMARK  7 active torsions:
REMARK  status: ('A' for Active; 'I' for Inactive)
REMARK    1  A    between atoms: C_1  and  C_2
REMARK    2  A    between atoms: N_4  and  C_6
REMARK    3  A    between atoms: C_6  and  C_7
REMARK    4  A    between atoms: C_7  and  O_8
REMARK    5  A    between atoms: O_8  and  P_9
REMARK    6  A    between atoms: P_9  and  O_10
REMARK    7  A    between atoms: P_9  and  O_11
REMARK                            x       y       z     vdW  Elec       q    Type
REMARK                         _______ _______ _______ _____ _____    ______ ____
ROOT
ATOM      1  C   UNL     1       5.046  -5.720  25.834  0.00  0.00    +0.192 C 
ENDROOT
BRANCH   1   2
ATOM      2  C   UNL     1       5.607  -5.720  24.421  0.00  0.00    +0.149 C 
BRANCH   2   5
ATOM      3  C   UNL     1       6.205  -2.459  22.514  0.00  0.00    +0.110 C 
ATOM      4  C   UNL     1       5.577  -3.757  22.961  0.00  0.00    +0.222 C 
ATOM      5  N   UNL     1       6.228  -4.474  23.960  0.00  0.00    -0.236 N 
ATOM      6 BR   UNL     1       7.826  -3.842  24.773  0.00  0.00    +0.039 Br
ATOM      7  O   UNL     1       4.537  -4.154  22.431  0.00  0.00    -0.275 OA
ENDBRANCH   2   5
ENDBRANCH   1   2
BRANCH   1   8
ATOM      8  O   UNL     1       5.648  -6.722  26.669  0.00  0.00    -0.285 OA
BRANCH   8   9
ATOM      9  P   UNL     1       5.849  -6.061  28.256  0.00  0.00    +0.472 P 
ATOM     10  O   UNL     1       6.029  -5.470  29.675  0.00  0.00    -0.228 OA
BRANCH   9  11
ATOM     11  O   UNL     1       7.453  -6.203  27.949  0.00  0.00    -0.303 OA
ATOM     12  H   UNL     1       7.965  -5.518  28.413  0.00  0.00    +0.222 HD
ENDBRANCH   9  11
BRANCH   9  13
ATOM     13  O   UNL     1       5.701  -7.615  28.747  0.00  0.00    -0.303 OA
ATOM     14  H   UNL     1       6.588  -7.882  29.055  0.00  0.00    +0.222 HD
ENDBRANCH   9  13
ENDBRANCH   8   9
ENDBRANCH   1   8
TORSDOF 6
ENDMDL
