MODEL 1
REMARK VINA RESULT:      -4.8      0.000      0.000
REMARK  Name = 
REMARK  7 active torsions:
REMARK  status: ('A' for Active; 'I' for Inactive)
REMARK    1  A    between atoms: C_1  and  O_2
REMARK    2  A    between atoms: O_2  and  C_3
REMARK    3  A    between atoms: C_6  and  C_8
REMARK    4  A    between atoms: C_8  and  O_9
REMARK    5  A    between atoms: C_10  and  O_12
REMARK    6  A    between atoms: C_13  and  O_15
REMARK    7  A    between atoms: C_16  and  O_18
REMARK                            x       y       z     vdW  Elec       q    Type
REMARK                         _______ _______ _______ _____ _____    ______ ____
ROOT
ATOM      1  C   UNL     1       9.781  -0.399  24.898  0.00  0.00    +0.281 C 
ATOM      2  C   UNL     1       9.577  -1.070  23.516  0.00  0.00    +0.201 C 
ATOM      3  C   UNL     1      10.138  -0.183  22.399  0.00  0.00    +0.179 C 
ATOM      4  C   UNL     1       9.615   1.252  22.523  0.00  0.00    +0.177 C 
ATOM      5  C   UNL     1       9.934   1.781  23.924  0.00  0.00    +0.178 C 
ATOM      6  O   UNL     1       9.309   0.952  24.917  0.00  0.00    -0.341 OA
ENDROOT
BRANCH   1   8
ATOM      7  C   UNL     1       8.272  -0.395  26.736  0.00  0.00    +0.197 C 
ATOM      8  O   UNL     1       9.068  -1.178  25.863  0.00  0.00    -0.352 OA
ENDBRANCH   1   8
BRANCH   2   9
ATOM      9  O   UNL     1      10.193  -2.373  23.490  0.00  0.00    -0.384 OA
ATOM     10  H   UNL     1      10.254  -2.715  24.396  0.00  0.00    +0.210 HD
ENDBRANCH   2   9
BRANCH   3  11
ATOM     11  O   UNL     1       9.796  -0.708  21.110  0.00  0.00    -0.386 OA
ATOM     12  H   UNL     1      10.638  -0.934  20.664  0.00  0.00    +0.210 HD
ENDBRANCH   3  11
BRANCH   4  13
ATOM     13  O   UNL     1      10.193   2.049  21.485  0.00  0.00    -0.386 OA
ATOM     14  H   UNL     1      10.166   2.986  21.749  0.00  0.00    +0.210 HD
ENDBRANCH   4  13
BRANCH   5  15
ATOM     15  C   UNL     1       9.418   3.213  24.107  0.00  0.00    +0.190 C 
BRANCH  15  16
ATOM     16  O   UNL     1      10.239   4.112  23.360  0.00  0.00    -0.392 OA
ATOM     17  H   UNL     1      11.106   4.109  23.806  0.00  0.00    +0.210 HD
ENDBRANCH  15  16
ENDBRANCH   5  15
TORSDOF 6
ENDMDL
MODEL 2
REMARK VINA RESULT:      -4.7      4.210      5.835
REMARK  Name = 
REMARK  7 active torsions:
REMARK  status: ('A' for Active; 'I' for Inactive)
REMARK    1  A    between atoms: C_1  and  O_2
REMARK    2  A    between atoms: O_2  and  C_3
REMARK    3  A    between atoms: C_6  and  C_8
REMARK    4  A    between atoms: C_8  and  O_9
REMARK    5  A    between atoms: C_10  and  O_12
REMARK    6  A    between atoms: C_13  and  O_15
REMARK    7  A    between atoms: C_16  and  O_18
REMARK                            x       y       z     vdW  Elec       q    Type
REMARK                         _______ _______ _______ _____ _____    ______ ____
ROOT
ATOM      1  C   UNL     1       6.671  -4.244  26.224  0.00  0.00    +0.281 C 
ATOM      2  C   UNL     1       7.813  -5.292  26.232  0.00  0.00    +0.201 C 
ATOM      3  C   UNL     1       9.129  -4.658  25.767  0.00  0.00    +0.179 C 
ATOM      4  C   UNL     1       8.936  -3.898  24.451  0.00  0.00    +0.177 C 
ATOM      5  C   UNL     1       7.809  -2.876  24.624  0.00  0.00    +0.178 C 
ATOM      6  O   UNL     1       6.589  -3.546  24.977  0.00  0.00    -0.341 OA
ENDROOT
BRANCH   1   8
ATOM      7  C   UNL     1       5.143  -5.910  25.489  0.00  0.00    +0.197 C 
ATOM      8  O   UNL     1       5.447  -4.939  26.476  0.00  0.00    -0.352 OA
ENDBRANCH   1   8
BRANCH   2   9
ATOM      9  O   UNL     1       7.961  -5.869  27.545  0.00  0.00    -0.384 OA
ATOM     10  H   UNL     1       8.870  -6.188  27.653  0.00  0.00    +0.210 HD
ENDBRANCH   2   9
BRANCH   3  11
ATOM     11  O   UNL     1      10.144  -5.656  25.600  0.00  0.00    -0.386 OA
ATOM     12  H   UNL     1      10.446  -5.906  26.497  0.00  0.00    +0.210 HD
ENDBRANCH   3  11
BRANCH   4  13
ATOM     13  O   UNL     1      10.178  -3.295  24.077  0.00  0.00    -0.386 OA
ATOM     14  H   UNL     1      10.912  -3.857  24.384  0.00  0.00    +0.210 HD
ENDBRANCH   4  13
BRANCH   5  15
ATOM     15  C   UNL     1       7.565  -2.095  23.328  0.00  0.00    +0.190 C 
BRANCH  15  16
ATOM     16  O   UNL     1       7.984  -2.884  22.213  0.00  0.00    -0.392 OA
ATOM     17  H   UNL     1       8.503  -2.284  21.646  0.00  0.00    +0.210 HD
ENDBRANCH  15  16
ENDBRANCH   5  15
TORSDOF 6
ENDMDL
MODEL 3
REMARK VINA RESULT:      -4.6      4.112      6.500
REMARK  Name = 
REMARK  7 active torsions:
REMARK  status: ('A' for Active; 'I' for Inactive)
REMARK    1  A    between atoms: C_1  and  O_2
REMARK    2  A    between atoms: O_2  and  C_3
REMARK    3  A    between atoms: C_6  and  C_8
REMARK    4  A    between atoms: C_8  and  O_9
REMARK    5  A    between atoms: C_10  and  O_12
REMARK    6  A    between atoms: C_13  and  O_15
REMARK    7  A    between atoms: C_16  and  O_18
REMARK                            x       y       z     vdW  Elec       q    Type
REMARK                         _______ _______ _______ _____ _____    ______ ____
ROOT
ATOM      1  C   UNL     1       8.881  -4.006  24.396  0.00  0.00    +0.281 C 
ATOM      2  C   UNL     1       9.066  -4.739  25.749  0.00  0.00    +0.201 C 
ATOM      3  C   UNL     1       7.740  -5.345  26.219  0.00  0.00    +0.179 C 
ATOM      4  C   UNL     1       6.616  -4.305  26.177  0.00  0.00    +0.177 C 
ATOM      5  C   UNL     1       6.536  -3.712  24.768  0.00  0.00    +0.178 C 
ATOM      6  O   UNL     1       7.783  -3.088  24.426  0.00  0.00    -0.341 OA
ENDROOT
BRANCH   1   8
ATOM      7  C   UNL     1       9.897  -2.120  23.366  0.00  0.00    +0.197 C 
ATOM      8  O   UNL     1      10.096  -3.305  24.116  0.00  0.00    -0.352 OA
ENDBRANCH   1   8
BRANCH   2   9
ATOM      9  O   UNL     1      10.082  -5.756  25.639  0.00  0.00    -0.384 OA
ATOM     10  H   UNL     1       9.749  -6.582  26.023  0.00  0.00    +0.210 HD
ENDBRANCH   2   9
BRANCH   3  11
ATOM     11  O   UNL     1       7.860  -5.867  27.549  0.00  0.00    -0.386 OA
ATOM     12  H   UNL     1       8.665  -5.468  27.938  0.00  0.00    +0.210 HD
ENDBRANCH   3  11
BRANCH   4  13
ATOM     13  O   UNL     1       5.394  -4.925  26.588  0.00  0.00    -0.386 OA
ATOM     14  H   UNL     1       5.520  -5.333  27.464  0.00  0.00    +0.210 HD
ENDBRANCH   4  13
BRANCH   5  15
ATOM     15  C   UNL     1       5.433  -2.652  24.675  0.00  0.00    +0.190 C 
BRANCH  15  16
ATOM     16  O   UNL     1       4.169  -3.295  24.499  0.00  0.00    -0.392 OA
ATOM     17  H   UNL     1       4.155  -4.028  25.143  0.00  0.00    +0.210 HD
ENDBRANCH  15  16
ENDBRANCH   5  15
TORSDOF 6
ENDMDL
MODEL 4
REMARK VINA RESULT:      -4.6      5.243      7.254
REMARK  Name = 
REMARK  7 active torsions:
REMARK  status: ('A' for Active; 'I' for Inactive)
REMARK    1  A    between atoms: C_1  and  O_2
REMARK    2  A    between atoms: O_2  and  C_3
REMARK    3  A    between atoms: C_6  and  C_8
REMARK    4  A    between atoms: C_8  and  O_9
REMARK    5  A    between atoms: C_10  and  O_12
REMARK    6  A    between atoms: C_13  and  O_15
REMARK    7  A    between atoms: C_16  and  O_18
REMARK                            x       y       z     vdW  Elec       q    Type
REMARK                         _______ _______ _______ _____ _____    ______ ____
ROOT
ATOM      1  C   UNL     1       7.689  -4.196  24.107  0.00  0.00    +0.281 C 
ATOM      2  C   UNL     1       7.396  -3.889  22.616  0.00  0.00    +0.201 C 
ATOM      3  C   UNL     1       5.885  -3.850  22.361  0.00  0.00    +0.179 C 
ATOM      4  C   UNL     1       5.201  -5.098  22.928  0.00  0.00    +0.177 C 
ATOM      5  C   UNL     1       5.554  -5.231  24.413  0.00  0.00    +0.178 C 
ATOM      6  O   UNL     1       6.977  -5.348  24.570  0.00  0.00    -0.341 OA
ENDROOT
BRANCH   1   8
ATOM      7  C   UNL     1       9.439  -5.261  25.313  0.00  0.00    +0.197 C 
ATOM      8  O   UNL     1       9.098  -4.410  24.232  0.00  0.00    -0.352 OA
ENDBRANCH   1   8
BRANCH   2   9
ATOM      9  O   UNL     1       8.011  -2.646  22.225  0.00  0.00    -0.384 OA
ATOM     10  H   UNL     1       8.646  -2.376  22.906  0.00  0.00    +0.210 HD
ENDBRANCH   2   9
BRANCH   3  11
ATOM     11  O   UNL     1       5.606  -3.746  20.959  0.00  0.00    -0.386 OA
ATOM     12  H   UNL     1       4.953  -3.025  20.853  0.00  0.00    +0.210 HD
ENDBRANCH   3  11
BRANCH   4  13
ATOM     13  O   UNL     1       3.792  -5.000  22.701  0.00  0.00    -0.386 OA
ATOM     14  H   UNL     1       3.618  -5.054  21.744  0.00  0.00    +0.210 HD
ENDBRANCH   4  13
BRANCH   5  15
ATOM     15  C   UNL     1       4.904  -6.476  25.027  0.00  0.00    +0.190 C 
BRANCH  15  16
ATOM     16  O   UNL     1       4.535  -7.382  23.986  0.00  0.00    -0.392 OA
ATOM     17  H   UNL     1       3.684  -7.054  23.642  0.00  0.00    +0.210 HD
ENDBRANCH  15  16
ENDBRANCH   5  15
TORSDOF 6
ENDMDL
MODEL 5
REMARK VINA RESULT:      -4.6      5.874      7.654
REMARK  Name = 
REMARK  7 active torsions:
REMARK  status: ('A' for Active; 'I' for Inactive)
REMARK    1  A    between atoms: C_1  and  O_2
REMARK    2  A    between atoms: O_2  and  C_3
REMARK    3  A    between atoms: C_6  and  C_8
REMARK    4  A    between atoms: C_8  and  O_9
REMARK    5  A    between atoms: C_10  and  O_12
REMARK    6  A    between atoms: C_13  and  O_15
REMARK    7  A    between atoms: C_16  and  O_18
REMARK                            x       y       z     vdW  Elec       q    Type
REMARK                         _______ _______ _______ _____ _____    ______ ____
ROOT
ATOM      1  C   UNL     1       6.221  -4.595  23.665  0.00  0.00    +0.281 C 
ATOM      2  C   UNL     1       5.528  -5.686  24.520  0.00  0.00    +0.201 C 
ATOM      3  C   UNL     1       6.046  -5.649  25.962  0.00  0.00    +0.179 C 
ATOM      4  C   UNL     1       7.577  -5.654  25.996  0.00  0.00    +0.177 C 
ATOM      5  C   UNL     1       8.100  -4.494  25.143  0.00  0.00    +0.178 C 
ATOM      6  O   UNL     1       7.647  -4.638  23.788  0.00  0.00    -0.341 OA
ENDROOT
BRANCH   1   8
ATOM      7  C   UNL     1       6.546  -5.880  21.690  0.00  0.00    +0.197 C 
ATOM      8  O   UNL     1       5.843  -4.812  22.303  0.00  0.00    -0.352 OA
ENDBRANCH   1   8
BRANCH   2   9
ATOM      9  O   UNL     1       4.097  -5.522  24.487  0.00  0.00    -0.384 OA
ATOM     10  H   UNL     1       3.737  -6.009  23.730  0.00  0.00    +0.210 HD
ENDBRANCH   2   9
BRANCH   3  11
ATOM     11  O   UNL     1       5.546  -6.763  26.713  0.00  0.00    -0.386 OA
ATOM     12  H   UNL     1       5.230  -7.424  26.063  0.00  0.00    +0.210 HD
ENDBRANCH   3  11
BRANCH   4  13
ATOM     13  O   UNL     1       8.012  -5.581  27.357  0.00  0.00    -0.386 OA
ATOM     14  H   UNL     1       8.885  -6.006  27.437  0.00  0.00    +0.210 HD
ENDBRANCH   4  13
BRANCH   5  15
ATOM     15  C   UNL     1       9.632  -4.462  25.132  0.00  0.00    +0.190 C 
BRANCH  15  16
ATOM     16  O   UNL     1      10.136  -5.787  25.303  0.00  0.00    -0.392 OA
ATOM     17  H   UNL     1      10.834  -5.892  24.630  0.00  0.00    +0.210 HD
ENDBRANCH  15  16
ENDBRANCH   5  15
TORSDOF 6
ENDMDL
MODEL 6
REMARK VINA RESULT:      -4.5      5.396      7.788
REMARK  Name = 
REMARK  7 active torsions:
REMARK  status: ('A' for Active; 'I' for Inactive)
REMARK    1  A    between atoms: C_1  and  O_2
REMARK    2  A    between atoms: O_2  and  C_3
REMARK    3  A    between atoms: C_6  and  C_8
REMARK    4  A    between atoms: C_8  and  O_9
REMARK    5  A    between atoms: C_10  and  O_12
REMARK    6  A    between atoms: C_13  and  O_15
REMARK    7  A    between atoms: C_16  and  O_18
REMARK                            x       y       z     vdW  Elec       q    Type
REMARK                         _______ _______ _______ _____ _____    ______ ____
ROOT
ATOM      1  C   UNL     1       6.989  -4.477  24.308  0.00  0.00    +0.281 C 
ATOM      2  C   UNL     1       8.265  -4.112  25.109  0.00  0.00    +0.201 C 
ATOM      3  C   UNL     1       8.510  -5.133  26.226  0.00  0.00    +0.179 C 
ATOM      4  C   UNL     1       7.244  -5.349  27.059  0.00  0.00    +0.177 C 
ATOM      5  C   UNL     1       6.094  -5.746  26.129  0.00  0.00    +0.178 C 
ATOM      6  O   UNL     1       5.864  -4.709  25.162  0.00  0.00    -0.341 OA
ENDROOT
BRANCH   1   8
ATOM      7  C   UNL     1       5.801  -3.727  22.390  0.00  0.00    +0.197 C 
ATOM      8  O   UNL     1       6.713  -3.390  23.421  0.00  0.00    -0.352 OA
ENDBRANCH   1   8
BRANCH   2   9
ATOM      9  O   UNL     1       9.406  -4.030  24.233  0.00  0.00    -0.384 OA
ATOM     10  H   UNL     1       9.716  -3.111  24.198  0.00  0.00    +0.210 HD
ENDBRANCH   2   9
BRANCH   3  11
ATOM     11  O   UNL     1       9.580  -4.708  27.080  0.00  0.00    -0.386 OA
ATOM     12  H   UNL     1       9.196  -4.578  27.971  0.00  0.00    +0.210 HD
ENDBRANCH   3  11
BRANCH   4  13
ATOM     13  O   UNL     1       7.510  -6.335  28.062  0.00  0.00    -0.386 OA
ATOM     14  H   UNL     1       6.749  -6.388  28.668  0.00  0.00    +0.210 HD
ENDBRANCH   4  13
BRANCH   5  15
ATOM     15  C   UNL     1       4.795  -5.962  26.913  0.00  0.00    +0.190 C 
BRANCH  15  16
ATOM     16  O   UNL     1       4.807  -7.262  27.504  0.00  0.00    -0.392 OA
ATOM     17  H   UNL     1       5.558  -7.730  27.095  0.00  0.00    +0.210 HD
ENDBRANCH  15  16
ENDBRANCH   5  15
TORSDOF 6
ENDMDL
MODEL 7
REMARK VINA RESULT:      -4.5      4.409      6.268
REMARK  Name = 
REMARK  7 active torsions:
REMARK  status: ('A' for Active; 'I' for Inactive)
REMARK    1  A    between atoms: C_1  and  O_2
REMARK    2  A    between atoms: O_2  and  C_3
REMARK    3  A    between atoms: C_6  and  C_8
REMARK    4  A    between atoms: C_8  and  O_9
REMARK    5  A    between atoms: C_10  and  O_12
REMARK    6  A    between atoms: C_13  and  O_15
REMARK    7  A    between atoms: C_16  and  O_18
REMARK                            x       y       z     vdW  Elec       q    Type
REMARK                         _______ _______ _______ _____ _____    ______ ____
ROOT
ATOM      1  C   UNL     1       6.039  -4.758  23.529  0.00  0.00    +0.281 C 
ATOM      2  C   UNL     1       6.233  -3.340  22.933  0.00  0.00    +0.201 C 
ATOM      3  C   UNL     1       7.721  -3.045  22.720  0.00  0.00    +0.179 C 
ATOM      4  C   UNL     1       8.527  -3.347  23.988  0.00  0.00    +0.177 C 
ATOM      5  C   UNL     1       8.260  -4.792  24.417  0.00  0.00    +0.178 C 
ATOM      6  O   UNL     1       6.860  -4.976  24.681  0.00  0.00    -0.341 OA
ENDROOT
BRANCH   1   8
ATOM      7  C   UNL     1       4.039  -6.024  23.299  0.00  0.00    +0.197 C 
ATOM      8  O   UNL     1       4.659  -4.890  23.882  0.00  0.00    -0.352 OA
ENDBRANCH   1   8
BRANCH   2   9
ATOM      9  O   UNL     1       5.504  -3.207  21.697  0.00  0.00    -0.384 OA
ATOM     10  H   UNL     1       4.993  -2.383  21.715  0.00  0.00    +0.210 HD
ENDBRANCH   2   9
BRANCH   3  11
ATOM     11  O   UNL     1       7.921  -1.677  22.340  0.00  0.00    -0.386 OA
ATOM     12  H   UNL     1       8.874  -1.574  22.143  0.00  0.00    +0.210 HD
ENDBRANCH   3  11
BRANCH   4  13
ATOM     13  O   UNL     1       9.911  -3.092  23.730  0.00  0.00    -0.386 OA
ATOM     14  H   UNL     1      10.006  -2.716  22.836  0.00  0.00    +0.210 HD
ENDBRANCH   4  13
BRANCH   5  15
ATOM     15  C   UNL     1       9.034  -5.144  25.692  0.00  0.00    +0.190 C 
BRANCH  15  16
ATOM     16  O   UNL     1      10.334  -5.622  25.343  0.00  0.00    -0.392 OA
ATOM     17  H   UNL     1      10.862  -4.826  25.146  0.00  0.00    +0.210 HD
ENDBRANCH  15  16
ENDBRANCH   5  15
TORSDOF 6
ENDMDL
MODEL 8
REMARK VINA RESULT:      -4.4      6.044      8.367
REMARK  Name = 
REMARK  7 active torsions:
REMARK  status: ('A' for Active; 'I' for Inactive)
REMARK    1  A    between atoms: C_1  and  O_2
REMARK    2  A    between atoms: O_2  and  C_3
REMARK    3  A    between atoms: C_6  and  C_8
REMARK    4  A    between atoms: C_8  and  O_9
REMARK    5  A    between atoms: C_10  and  O_12
REMARK    6  A    between atoms: C_13  and  O_15
REMARK    7  A    between atoms: C_16  and  O_18
REMARK                            x       y       z     vdW  Elec       q    Type
REMARK                         _______ _______ _______ _____ _____    ______ ____
ROOT
ATOM      1  C   UNL     1       6.184  -4.736  24.093  0.00  0.00    +0.281 C 
ATOM      2  C   UNL     1       5.446  -5.982  23.540  0.00  0.00    +0.201 C 
ATOM      3  C   UNL     1       4.442  -6.514  24.569  0.00  0.00    +0.179 C 
ATOM      4  C   UNL     1       5.103  -6.689  25.940  0.00  0.00    +0.177 C 
ATOM      5  C   UNL     1       5.743  -5.363  26.360  0.00  0.00    +0.178 C 
ATOM      6  O   UNL     1       6.731  -4.968  25.395  0.00  0.00    -0.341 OA
ENDROOT
BRANCH   1   8
ATOM      7  C   UNL     1       8.117  -3.422  23.661  0.00  0.00    +0.197 C 
ATOM      8  O   UNL     1       7.231  -4.414  23.174  0.00  0.00    -0.352 OA
ENDBRANCH   1   8
BRANCH   2   9
ATOM      9  O   UNL     1       4.785  -5.670  22.298  0.00  0.00    -0.384 OA
ATOM     10  H   UNL     1       3.848  -5.492  22.470  0.00  0.00    +0.210 HD
ENDBRANCH   2   9
BRANCH   3  11
ATOM     11  O   UNL     1       3.887  -7.765  24.142  0.00  0.00    -0.386 OA
ATOM     12  H   UNL     1       4.589  -8.438  24.248  0.00  0.00    +0.210 HD
ENDBRANCH   3  11
BRANCH   4  13
ATOM     13  O   UNL     1       4.122  -7.151  26.874  0.00  0.00    -0.386 OA
ATOM     14  H   UNL     1       4.233  -6.675  27.716  0.00  0.00    +0.210 HD
ENDBRANCH   4  13
BRANCH   5  15
ATOM     15  C   UNL     1       6.433  -5.487  27.723  0.00  0.00    +0.190 C 
BRANCH  15  16
ATOM     16  O   UNL     1       7.778  -5.931  27.536  0.00  0.00    -0.392 OA
ATOM     17  H   UNL     1       8.117  -5.427  26.773  0.00  0.00    +0.210 HD
ENDBRANCH  15  16
ENDBRANCH   5  15
TORSDOF 6
ENDMDL
MODEL 9
REMARK VINA RESULT:      -4.4      5.047      6.504
REMARK  Name = 
REMARK  7 active torsions:
REMARK  status: ('A' for Active; 'I' for Inactive)
REMARK    1  A    between atoms: C_1  and  O_2
REMARK    2  A    between atoms: O_2  and  C_3
REMARK    3  A    between atoms: C_6  and  C_8
REMARK    4  A    between atoms: C_8  and  O_9
REMARK    5  A    between atoms: C_10  and  O_12
REMARK    6  A    between atoms: C_13  and  O_15
REMARK    7  A    between atoms: C_16  and  O_18
REMARK                            x       y       z     vdW  Elec       q    Type
REMARK                         _______ _______ _______ _____ _____    ______ ____
ROOT
ATOM      1  C   UNL     1       6.476  -5.204  25.933  0.00  0.00    +0.281 C 
ATOM      2  C   UNL     1       8.011  -5.269  25.731  0.00  0.00    +0.201 C 
ATOM      3  C   UNL     1       8.482  -4.134  24.815  0.00  0.00    +0.179 C 
ATOM      4  C   UNL     1       7.647  -4.083  23.532  0.00  0.00    +0.177 C 
ATOM      5  C   UNL     1       6.165  -3.975  23.903  0.00  0.00    +0.178 C 
ATOM      6  O   UNL     1       5.772  -5.111  24.689  0.00  0.00    -0.341 OA
ENDROOT
BRANCH   1   8
ATOM      7  C   UNL     1       4.741  -6.768  26.377  0.00  0.00    +0.197 C 
ATOM      8  O   UNL     1       6.083  -6.391  26.628  0.00  0.00    -0.352 OA
ENDBRANCH   1   8
BRANCH   2   9
ATOM      9  O   UNL     1       8.691  -5.215  27.001  0.00  0.00    -0.384 OA
ATOM     10  H   UNL     1       8.664  -4.306  27.339  0.00  0.00    +0.210 HD
ENDBRANCH   2   9
BRANCH   3  11
ATOM     11  O   UNL     1       9.867  -4.290  24.479  0.00  0.00    -0.386 OA
ATOM     12  H   UNL     1      10.150  -5.154  24.842  0.00  0.00    +0.210 HD
ENDBRANCH   3  11
BRANCH   4  13
ATOM     13  O   UNL     1       8.097  -2.989  22.727  0.00  0.00    -0.386 OA
ATOM     14  H   UNL     1       8.873  -3.270  22.210  0.00  0.00    +0.210 HD
ENDBRANCH   4  13
BRANCH   5  15
ATOM     15  C   UNL     1       5.281  -3.935  22.652  0.00  0.00    +0.190 C 
BRANCH  15  16
ATOM     16  O   UNL     1       5.953  -4.590  21.575  0.00  0.00    -0.392 OA
ATOM     17  H   UNL     1       5.641  -4.149  20.763  0.00  0.00    +0.210 HD
ENDBRANCH  15  16
ENDBRANCH   5  15
TORSDOF 6
ENDMDL
