MODEL 1
REMARK VINA RESULT:      -8.1      0.000      0.000
REMARK  Name = 
REMARK  17 active torsions:
REMARK  status: ('A' for Active; 'I' for Inactive)
REMARK    1  A    between atoms: C_2  and  C_3
REMARK    2  A    between atoms: C_5  and  O_7
REMARK    3  A    between atoms: O_7  and  C_8
REMARK    4  A    between atoms: C_8  and  C_9
REMARK    5  A    between atoms: C_12  and  O_14
REMARK    6  A    between atoms: O_14  and  C_15
REMARK    7  A    between atoms: C_17  and  O_18
REMARK    8  A    between atoms: C_23  and  C_27
REMARK    9  A    between atoms: C_29  and  O_30
REMARK   10  A    between atoms: C_31  and  O_32
REMARK   11  A    between atoms: O_32  and  C_33
REMARK   12  A    between atoms: C_36  and  O_38
REMARK   13  A    between atoms: C_39  and  O_41
REMARK   14  A    between atoms: C_42  and  O_44
REMARK   15  A    between atoms: C_45  and  O_47
REMARK   16  A    between atoms: C_48  and  O_50
REMARK   17  A    between atoms: C_51  and  O_53
REMARK                            x       y       z     vdW  Elec       q    Type
REMARK                         _______ _______ _______ _____ _____    ______ ____
ROOT
ATOM      1  C   UNL     1       4.388  -6.629  27.099  0.00  0.00    +0.179 C 
ATOM      2  C   UNL     1       3.430  -6.415  28.291  0.00  0.00    +0.177 C 
ATOM      3  C   UNL     1       3.974  -5.446  29.351  0.00  0.00    +0.180 C 
ATOM      4  C   UNL     1       5.434  -5.794  29.693  0.00  0.00    +0.214 C 
ATOM      5  C   UNL     1       6.298  -5.816  28.404  0.00  0.00    +0.339 C 
ATOM      6  O   UNL     1       5.778  -6.753  27.462  0.00  0.00    -0.331 OA
ENDROOT
BRANCH   2   7
ATOM      7  O   UNL     1       3.171  -7.691  28.903  0.00  0.00    -0.386 OA
ATOM      8  H   UNL     1       3.327  -7.589  29.866  0.00  0.00    +0.210 HD
ENDBRANCH   2   7
BRANCH   3   9
ATOM      9  O   UNL     1       3.807  -4.084  28.952  0.00  0.00    -0.386 OA
ATOM     10  H   UNL     1       4.242  -3.940  28.094  0.00  0.00    +0.210 HD
ENDBRANCH   3   9
BRANCH   4  11
ATOM     11  O   UNL     1       5.448  -7.075  30.351  0.00  0.00    -0.383 OA
ATOM     12  H   UNL     1       4.695  -7.103  30.969  0.00  0.00    +0.210 HD
ENDBRANCH   4  11
BRANCH   1  13
ATOM     13  C   UNL     1       4.172  -5.590  25.983  0.00  0.00    +0.197 C 
BRANCH  13  14
ATOM     14  O   UNL     1       4.646  -6.134  24.745  0.00  0.00    -0.346 OA
BRANCH  14  19
ATOM     15  C   UNL     1       5.387  -3.317  22.642  0.00  0.00    +0.149 C 
ATOM     16  C   UNL     1       6.021  -4.097  21.482  0.00  0.00    +0.174 C 
ATOM     17  C   UNL     1       5.608  -5.564  21.586  0.00  0.00    +0.179 C 
ATOM     18  C   UNL     1       6.155  -6.121  22.907  0.00  0.00    +0.201 C 
ATOM     19  C   UNL     1       5.633  -5.301  24.108  0.00  0.00    +0.282 C 
ATOM     20  O   UNL     1       5.047  -4.041  23.818  0.00  0.00    -0.343 OA
ATOM     21  C   UNL     1       6.182  -2.062  22.987  0.00  0.00    +0.041 C 
BRANCH  16  22
ATOM     22  O   UNL     1       5.615  -3.492  20.243  0.00  0.00    -0.387 OA
ATOM     23  H   UNL     1       4.718  -3.139  20.359  0.00  0.00    +0.210 HD
ENDBRANCH  16  22
BRANCH  17  24
ATOM     24  O   UNL     1       6.094  -6.305  20.461  0.00  0.00    -0.386 OA
ATOM     25  H   UNL     1       6.639  -7.037  20.795  0.00  0.00    +0.210 HD
ENDBRANCH  17  24
BRANCH  18  26
ATOM     26  O   UNL     1       7.594  -6.084  22.901  0.00  0.00    -0.384 OA
ATOM     27  H   UNL     1       7.906  -6.340  23.789  0.00  0.00    +0.210 HD
ENDBRANCH  18  26
ENDBRANCH  14  19
ENDBRANCH  13  14
ENDBRANCH   1  13
BRANCH   5  28
ATOM     28  O   UNL     1       6.385  -4.475  27.917  0.00  0.00    -0.461 OA
BRANCH  28  29
ATOM     29  C   UNL     1       7.334  -4.103  27.010  0.00  0.00    +0.131 A 
ATOM     30  C   UNL     1       7.334  -2.730  26.755  0.00  0.00    +0.093 A 
ATOM     31  C   UNL     1       8.187  -2.166  25.807  0.00  0.00    +0.146 A 
ATOM     32  C   UNL     1       9.051  -2.971  25.074  0.00  0.00    +0.105 A 
ATOM     33  C   UNL     1       9.922  -2.299  24.083  0.00  0.00    +0.197 A 
ATOM     34  C   UNL     1       9.863  -0.817  24.040  0.00  0.00    +0.098 A 
ATOM     35  C   UNL     1       8.977  -0.159  24.801  0.00  0.00    +0.139 A 
ATOM     36  O   UNL     1      10.676  -2.883  23.317  0.00  0.00    -0.287 OA
ATOM     37  C   UNL     1       9.045  -4.358  25.316  0.00  0.00    +0.135 A 
ATOM     38  O   UNL     1       8.098  -0.807  25.655  0.00  0.00    -0.454 OA
ATOM     39  C   UNL     1       8.206  -4.924  26.298  0.00  0.00    +0.092 A 
BRANCH  35  40
ATOM     40  C   UNL     1       8.845   1.327  24.829  0.00  0.00    +0.021 A 
ATOM     41  C   UNL     1       7.870   1.925  25.649  0.00  0.00    +0.015 A 
ATOM     42  C   UNL     1       7.683   3.317  25.690  0.00  0.00    +0.050 A 
ATOM     43  C   UNL     1       8.473   4.156  24.909  0.00  0.00    +0.161 A 
ATOM     44  C   UNL     1       9.450   3.573  24.092  0.00  0.00    +0.159 A 
ATOM     45  C   UNL     1       9.634   2.182  24.043  0.00  0.00    +0.060 A 
BRANCH  43  46
ATOM     46  O   UNL     1       8.380   5.522  24.871  0.00  0.00    -0.491 OA
ATOM     47  C   UNL     1       8.648   6.239  26.068  0.00  0.00    +0.277 C 
ENDBRANCH  43  46
BRANCH  44  48
ATOM     48  O   UNL     1      10.238   4.391  23.324  0.00  0.00    -0.503 OA
ATOM     49  H   UNL     1      11.170   4.256  23.552  0.00  0.00    +0.292 HD
ENDBRANCH  44  48
ENDBRANCH  35  40
BRANCH  37  50
ATOM     50  O   UNL     1       9.835  -5.186  24.567  0.00  0.00    -0.506 OA
ATOM     51  H   UNL     1       9.821  -4.935  23.630  0.00  0.00    +0.292 HD
ENDBRANCH  37  50
ENDBRANCH  28  29
ENDBRANCH   5  28
TORSDOF 15
ENDMDL
MODEL 2
REMARK VINA RESULT:      -7.9      2.514      8.619
REMARK  Name = 
REMARK  17 active torsions:
REMARK  status: ('A' for Active; 'I' for Inactive)
REMARK    1  A    between atoms: C_2  and  C_3
REMARK    2  A    between atoms: C_5  and  O_7
REMARK    3  A    between atoms: O_7  and  C_8
REMARK    4  A    between atoms: C_8  and  C_9
REMARK    5  A    between atoms: C_12  and  O_14
REMARK    6  A    between atoms: O_14  and  C_15
REMARK    7  A    between atoms: C_17  and  O_18
REMARK    8  A    between atoms: C_23  and  C_27
REMARK    9  A    between atoms: C_29  and  O_30
REMARK   10  A    between atoms: C_31  and  O_32
REMARK   11  A    between atoms: O_32  and  C_33
REMARK   12  A    between atoms: C_36  and  O_38
REMARK   13  A    between atoms: C_39  and  O_41
REMARK   14  A    between atoms: C_42  and  O_44
REMARK   15  A    between atoms: C_45  and  O_47
REMARK   16  A    between atoms: C_48  and  O_50
REMARK   17  A    between atoms: C_51  and  O_53
REMARK                            x       y       z     vdW  Elec       q    Type
REMARK                         _______ _______ _______ _____ _____    ______ ____
ROOT
ATOM      1  C   UNL     1       9.127  -0.001  22.372  0.00  0.00    +0.179 C 
ATOM      2  C   UNL     1      10.195   1.096  22.578  0.00  0.00    +0.177 C 
ATOM      3  C   UNL     1      10.043   1.862  23.900  0.00  0.00    +0.180 C 
ATOM      4  C   UNL     1       8.576   2.279  24.110  0.00  0.00    +0.214 C 
ATOM      5  C   UNL     1       7.647   1.039  24.028  0.00  0.00    +0.339 C 
ATOM      6  O   UNL     1       7.794   0.379  22.772  0.00  0.00    -0.331 OA
ENDROOT
BRANCH   2   7
ATOM      7  O   UNL     1      10.114   2.023  21.481  0.00  0.00    -0.386 OA
ATOM      8  H   UNL     1       9.188   2.011  21.158  0.00  0.00    +0.210 HD
ENDBRANCH   2   7
BRANCH   3   9
ATOM      9  O   UNL     1      10.571   1.119  25.001  0.00  0.00    -0.386 OA
ATOM     10  H   UNL     1       9.970   0.385  25.217  0.00  0.00    +0.210 HD
ENDBRANCH   3   9
BRANCH   4  11
ATOM     11  O   UNL     1       8.237   3.250  23.103  0.00  0.00    -0.383 OA
ATOM     12  H   UNL     1       7.389   2.984  22.703  0.00  0.00    +0.210 HD
ENDBRANCH   4  11
BRANCH   1  13
ATOM     13  C   UNL     1       9.551  -1.350  22.980  0.00  0.00    +0.197 C 
BRANCH  13  14
ATOM     14  O   UNL     1       8.902  -2.407  22.263  0.00  0.00    -0.346 OA
BRANCH  14  19
ATOM     15  C   UNL     1       7.400  -5.199  23.953  0.00  0.00    +0.149 C 
ATOM     16  C   UNL     1       6.261  -5.446  22.954  0.00  0.00    +0.174 C 
ATOM     17  C   UNL     1       6.604  -4.762  21.631  0.00  0.00    +0.179 C 
ATOM     18  C   UNL     1       6.712  -3.254  21.888  0.00  0.00    +0.201 C 
ATOM     19  C   UNL     1       7.773  -2.954  22.970  0.00  0.00    +0.282 C 
ATOM     20  O   UNL     1       8.215  -4.050  23.756  0.00  0.00    -0.343 OA
ATOM     21  C   UNL     1       6.918  -5.282  25.398  0.00  0.00    +0.041 C 
BRANCH  16  22
ATOM     22  O   UNL     1       6.069  -6.863  22.814  0.00  0.00    -0.387 OA
ATOM     23  H   UNL     1       5.520  -7.018  22.029  0.00  0.00    +0.210 HD
ENDBRANCH  16  22
BRANCH  17  24
ATOM     24  O   UNL     1       5.614  -5.058  20.640  0.00  0.00    -0.386 OA
ATOM     25  H   UNL     1       5.088  -5.812  20.955  0.00  0.00    +0.210 HD
ENDBRANCH  17  24
BRANCH  18  26
ATOM     26  O   UNL     1       5.440  -2.733  22.316  0.00  0.00    -0.384 OA
ATOM     27  H   UNL     1       4.845  -2.717  21.543  0.00  0.00    +0.210 HD
ENDBRANCH  18  26
ENDBRANCH  14  19
ENDBRANCH  13  14
ENDBRANCH   1  13
BRANCH   5  28
ATOM     28  O   UNL     1       7.920   0.215  25.164  0.00  0.00    -0.461 OA
BRANCH  28  29
ATOM     29  C   UNL     1       6.918  -0.283  25.944  0.00  0.00    +0.131 A 
ATOM     30  C   UNL     1       6.251  -1.358  25.350  0.00  0.00    +0.093 A 
ATOM     31  C   UNL     1       5.153  -1.961  25.964  0.00  0.00    +0.146 A 
ATOM     32  C   UNL     1       4.683  -1.486  27.182  0.00  0.00    +0.105 A 
ATOM     33  C   UNL     1       3.509  -2.176  27.766  0.00  0.00    +0.197 A 
ATOM     34  C   UNL     1       3.013  -3.374  27.045  0.00  0.00    +0.098 A 
ATOM     35  C   UNL     1       3.556  -3.723  25.871  0.00  0.00    +0.139 A 
ATOM     36  O   UNL     1       2.941  -1.825  28.791  0.00  0.00    -0.287 OA
ATOM     37  C   UNL     1       5.340  -0.394  27.777  0.00  0.00    +0.135 A 
ATOM     38  O   UNL     1       4.592  -3.011  25.285  0.00  0.00    -0.454 OA
ATOM     39  C   UNL     1       6.471   0.194  27.174  0.00  0.00    +0.092 A 
BRANCH  35  40
ATOM     40  C   UNL     1       3.128  -4.910  25.075  0.00  0.00    +0.021 A 
ATOM     41  C   UNL     1       2.503  -4.725  23.828  0.00  0.00    +0.015 A 
ATOM     42  C   UNL     1       2.053  -5.806  23.052  0.00  0.00    +0.050 A 
ATOM     43  C   UNL     1       2.218  -7.112  23.503  0.00  0.00    +0.161 A 
ATOM     44  C   UNL     1       2.843  -7.310  24.741  0.00  0.00    +0.159 A 
ATOM     45  C   UNL     1       3.286  -6.232  25.523  0.00  0.00    +0.060 A 
BRANCH  43  46
ATOM     46  O   UNL     1       1.821  -8.238  22.831  0.00  0.00    -0.491 OA
ATOM     47  C   UNL     1       0.787  -8.105  21.867  0.00  0.00    +0.277 C 
ENDBRANCH  43  46
BRANCH  44  48
ATOM     48  O   UNL     1       3.016  -8.594  25.192  0.00  0.00    -0.503 OA
ATOM     49  H   UNL     1       3.899  -8.687  25.581  0.00  0.00    +0.292 HD
ENDBRANCH  44  48
ENDBRANCH  35  40
BRANCH  37  50
ATOM     50  O   UNL     1       4.863   0.139  28.943  0.00  0.00    -0.506 OA
ATOM     51  H   UNL     1       4.901  -0.506  29.667  0.00  0.00    +0.292 HD
ENDBRANCH  37  50
ENDBRANCH  28  29
ENDBRANCH   5  28
TORSDOF 15
ENDMDL
MODEL 3
REMARK VINA RESULT:      -7.4      2.705      8.794
REMARK  Name = 
REMARK  17 active torsions:
REMARK  status: ('A' for Active; 'I' for Inactive)
REMARK    1  A    between atoms: C_2  and  C_3
REMARK    2  A    between atoms: C_5  and  O_7
REMARK    3  A    between atoms: O_7  and  C_8
REMARK    4  A    between atoms: C_8  and  C_9
REMARK    5  A    between atoms: C_12  and  O_14
REMARK    6  A    between atoms: O_14  and  C_15
REMARK    7  A    between atoms: C_17  and  O_18
REMARK    8  A    between atoms: C_23  and  C_27
REMARK    9  A    between atoms: C_29  and  O_30
REMARK   10  A    between atoms: C_31  and  O_32
REMARK   11  A    between atoms: O_32  and  C_33
REMARK   12  A    between atoms: C_36  and  O_38
REMARK   13  A    between atoms: C_39  and  O_41
REMARK   14  A    between atoms: C_42  and  O_44
REMARK   15  A    between atoms: C_45  and  O_47
REMARK   16  A    between atoms: C_48  and  O_50
REMARK   17  A    between atoms: C_51  and  O_53
REMARK                            x       y       z     vdW  Elec       q    Type
REMARK                         _______ _______ _______ _____ _____    ______ ____
ROOT
ATOM      1  C   UNL     1       8.306   0.846  22.332  0.00  0.00    +0.179 C 
ATOM      2  C   UNL     1       9.816   1.148  22.457  0.00  0.00    +0.177 C 
ATOM      3  C   UNL     1      10.248   1.544  23.876  0.00  0.00    +0.180 C 
ATOM      4  C   UNL     1       9.284   2.595  24.455  0.00  0.00    +0.214 C 
ATOM      5  C   UNL     1       7.823   2.074  24.399  0.00  0.00    +0.339 C 
ATOM      6  O   UNL     1       7.452   1.752  23.059  0.00  0.00    -0.331 OA
ENDROOT
BRANCH   2   7
ATOM      7  O   UNL     1      10.144   2.212  21.546  0.00  0.00    -0.386 OA
ATOM      8  H   UNL     1       9.332   2.748  21.420  0.00  0.00    +0.210 HD
ENDBRANCH   2   7
BRANCH   3   9
ATOM      9  O   UNL     1      10.392   0.399  24.719  0.00  0.00    -0.386 OA
ATOM     10  H   UNL     1      11.336   0.231  24.883  0.00  0.00    +0.210 HD
ENDBRANCH   3   9
BRANCH   4  11
ATOM     11  O   UNL     1       9.433   3.808  23.693  0.00  0.00    -0.383 OA
ATOM     12  H   UNL     1       8.601   4.311  23.765  0.00  0.00    +0.210 HD
ENDBRANCH   4  11
BRANCH   1  13
ATOM     13  C   UNL     1       7.979  -0.628  22.636  0.00  0.00    +0.197 C 
BRANCH  13  14
ATOM     14  O   UNL     1       9.205  -1.354  22.784  0.00  0.00    -0.346 OA
BRANCH  14  19
ATOM     15  C   UNL     1       6.932  -4.051  23.470  0.00  0.00    +0.149 C 
ATOM     16  C   UNL     1       7.471  -4.414  24.860  0.00  0.00    +0.174 C 
ATOM     17  C   UNL     1       8.293  -3.243  25.396  0.00  0.00    +0.179 C 
ATOM     18  C   UNL     1       9.483  -3.025  24.452  0.00  0.00    +0.201 C 
ATOM     19  C   UNL     1       9.000  -2.761  23.009  0.00  0.00    +0.282 C 
ATOM     20  O   UNL     1       7.646  -3.076  22.718  0.00  0.00    -0.343 OA
ATOM     21  C   UNL     1       6.652  -5.290  22.625  0.00  0.00    +0.041 C 
BRANCH  16  22
ATOM     22  O   UNL     1       6.362  -4.750  25.710  0.00  0.00    -0.387 OA
ATOM     23  H   UNL     1       5.593  -4.232  25.423  0.00  0.00    +0.210 HD
ENDBRANCH  16  22
BRANCH  17  24
ATOM     24  O   UNL     1       8.725  -3.503  26.737  0.00  0.00    -0.386 OA
ATOM     25  H   UNL     1       8.338  -2.825  27.315  0.00  0.00    +0.210 HD
ENDBRANCH  17  24
BRANCH  18  26
ATOM     26  O   UNL     1      10.338  -4.183  24.460  0.00  0.00    -0.384 OA
ATOM     27  H   UNL     1       9.830  -4.931  24.825  0.00  0.00    +0.210 HD
ENDBRANCH  18  26
ENDBRANCH  14  19
ENDBRANCH  13  14
ENDBRANCH   1  13
BRANCH   5  28
ATOM     28  O   UNL     1       7.716   0.986  25.320  0.00  0.00    -0.461 OA
BRANCH  28  29
ATOM     29  C   UNL     1       6.529   0.665  25.912  0.00  0.00    +0.131 A 
ATOM     30  C   UNL     1       6.045  -0.585  25.520  0.00  0.00    +0.093 A 
ATOM     31  C   UNL     1       4.813  -1.062  25.966  0.00  0.00    +0.146 A 
ATOM     32  C   UNL     1       4.023  -0.284  26.804  0.00  0.00    +0.105 A 
ATOM     33  C   UNL     1       2.725  -0.858  27.230  0.00  0.00    +0.197 A 
ATOM     34  C   UNL     1       2.440  -2.251  26.805  0.00  0.00    +0.098 A 
ATOM     35  C   UNL     1       3.289  -2.890  25.988  0.00  0.00    +0.139 A 
ATOM     36  O   UNL     1       1.895  -0.263  27.903  0.00  0.00    -0.287 OA
ATOM     37  C   UNL     1       4.497   0.983  27.191  0.00  0.00    +0.135 A 
ATOM     38  O   UNL     1       4.455  -2.305  25.517  0.00  0.00    -0.454 OA
ATOM     39  C   UNL     1       5.758   1.451  26.767  0.00  0.00    +0.092 A 
BRANCH  35  40
ATOM     40  C   UNL     1       3.090  -4.289  25.510  0.00  0.00    +0.021 A 
ATOM     41  C   UNL     1       2.724  -5.293  26.425  0.00  0.00    +0.015 A 
ATOM     42  C   UNL     1       2.553  -6.632  26.034  0.00  0.00    +0.050 A 
ATOM     43  C   UNL     1       2.741  -7.005  24.706  0.00  0.00    +0.161 A 
ATOM     44  C   UNL     1       3.101  -6.014  23.784  0.00  0.00    +0.159 A 
ATOM     45  C   UNL     1       3.281  -4.677  24.174  0.00  0.00    +0.060 A 
BRANCH  43  46
ATOM     46  O   UNL     1       2.600  -8.275  24.214  0.00  0.00    -0.491 OA
ATOM     47  C   UNL     1       1.616  -9.112  24.806  0.00  0.00    +0.277 C 
ENDBRANCH  43  46
BRANCH  44  48
ATOM     48  O   UNL     1       3.282  -6.370  22.473  0.00  0.00    -0.503 OA
ATOM     49  H   UNL     1       4.098  -5.971  22.135  0.00  0.00    +0.292 HD
ENDBRANCH  44  48
ENDBRANCH  35  40
BRANCH  37  50
ATOM     50  O   UNL     1       3.716   1.799  27.961  0.00  0.00    -0.506 OA
ATOM     51  H   UNL     1       2.861   1.385  28.160  0.00  0.00    +0.292 HD
ENDBRANCH  37  50
ENDBRANCH  28  29
ENDBRANCH   5  28
TORSDOF 15
ENDMDL
MODEL 4
REMARK VINA RESULT:      -7.2      2.776      5.555
REMARK  Name = 
REMARK  17 active torsions:
REMARK  status: ('A' for Active; 'I' for Inactive)
REMARK    1  A    between atoms: C_2  and  C_3
REMARK    2  A    between atoms: C_5  and  O_7
REMARK    3  A    between atoms: O_7  and  C_8
REMARK    4  A    between atoms: C_8  and  C_9
REMARK    5  A    between atoms: C_12  and  O_14
REMARK    6  A    between atoms: O_14  and  C_15
REMARK    7  A    between atoms: C_17  and  O_18
REMARK    8  A    between atoms: C_23  and  C_27
REMARK    9  A    between atoms: C_29  and  O_30
REMARK   10  A    between atoms: C_31  and  O_32
REMARK   11  A    between atoms: O_32  and  C_33
REMARK   12  A    between atoms: C_36  and  O_38
REMARK   13  A    between atoms: C_39  and  O_41
REMARK   14  A    between atoms: C_42  and  O_44
REMARK   15  A    between atoms: C_45  and  O_47
REMARK   16  A    between atoms: C_48  and  O_50
REMARK   17  A    between atoms: C_51  and  O_53
REMARK                            x       y       z     vdW  Elec       q    Type
REMARK                         _______ _______ _______ _____ _____    ______ ____
ROOT
ATOM      1  C   UNL     1       7.989  -3.781  25.639  0.00  0.00    +0.179 C 
ATOM      2  C   UNL     1       7.642  -5.286  25.594  0.00  0.00    +0.177 C 
ATOM      3  C   UNL     1       6.214  -5.603  26.059  0.00  0.00    +0.180 C 
ATOM      4  C   UNL     1       5.904  -4.863  27.374  0.00  0.00    +0.214 C 
ATOM      5  C   UNL     1       6.155  -3.341  27.206  0.00  0.00    +0.339 C 
ATOM      6  O   UNL     1       7.501  -3.090  26.807  0.00  0.00    -0.331 OA
ENDROOT
BRANCH   2   7
ATOM      7  O   UNL     1       8.580  -5.995  26.423  0.00  0.00    -0.386 OA
ATOM      8  H   UNL     1       8.079  -6.691  26.899  0.00  0.00    +0.210 HD
ENDBRANCH   2   7
BRANCH   3   9
ATOM      9  O   UNL     1       5.256  -5.335  25.033  0.00  0.00    -0.386 OA
ATOM     10  H   UNL     1       5.663  -5.480  24.161  0.00  0.00    +0.210 HD
ENDBRANCH   3   9
BRANCH   4  11
ATOM     11  O   UNL     1       6.739  -5.416  28.408  0.00  0.00    -0.383 OA
ATOM     12  H   UNL     1       6.552  -4.936  29.234  0.00  0.00    +0.210 HD
ENDBRANCH   4  11
BRANCH   1  13
ATOM     13  C   UNL     1       7.609  -3.055  24.336  0.00  0.00    +0.197 C 
BRANCH  13  14
ATOM     14  O   UNL     1       8.710  -2.237  23.923  0.00  0.00    -0.346 OA
BRANCH  14  19
ATOM     15  C   UNL     1       8.554   0.808  22.022  0.00  0.00    +0.149 C 
ATOM     16  C   UNL     1       9.598   1.596  22.825  0.00  0.00    +0.174 C 
ATOM     17  C   UNL     1      10.444   0.616  23.637  0.00  0.00    +0.179 C 
ATOM     18  C   UNL     1       9.518  -0.112  24.620  0.00  0.00    +0.201 C 
ATOM     19  C   UNL     1       8.379  -0.836  23.869  0.00  0.00    +0.282 C 
ATOM     20  O   UNL     1       8.168  -0.470  22.514  0.00  0.00    -0.343 OA
ATOM     21  C   UNL     1       7.329   1.656  21.692  0.00  0.00    +0.041 C 
BRANCH  16  22
ATOM     22  O   UNL     1      10.382   2.384  21.914  0.00  0.00    -0.387 OA
ATOM     23  H   UNL     1       9.774   2.846  21.314  0.00  0.00    +0.210 HD
ENDBRANCH  16  22
BRANCH  17  24
ATOM     24  O   UNL     1      11.498   1.306  24.319  0.00  0.00    -0.386 OA
ATOM     25  H   UNL     1      12.141   1.604  23.655  0.00  0.00    +0.210 HD
ENDBRANCH  17  24
BRANCH  18  26
ATOM     26  O   UNL     1       8.947   0.828  25.550  0.00  0.00    -0.384 OA
ATOM     27  H   UNL     1       9.677   1.343  25.943  0.00  0.00    +0.210 HD
ENDBRANCH  18  26
ENDBRANCH  14  19
ENDBRANCH  13  14
ENDBRANCH   1  13
BRANCH   5  28
ATOM     28  O   UNL     1       5.167  -2.836  26.303  0.00  0.00    -0.461 OA
BRANCH  28  29
ATOM     29  C   UNL     1       4.633  -1.589  26.453  0.00  0.00    +0.131 A 
ATOM     30  C   UNL     1       5.494  -0.574  26.029  0.00  0.00    +0.093 A 
ATOM     31  C   UNL     1       5.153   0.772  26.163  0.00  0.00    +0.146 A 
ATOM     32  C   UNL     1       3.945   1.135  26.746  0.00  0.00    +0.105 A 
ATOM     33  C   UNL     1       3.659   2.584  26.857  0.00  0.00    +0.197 A 
ATOM     34  C   UNL     1       4.643   3.507  26.241  0.00  0.00    +0.098 A 
ATOM     35  C   UNL     1       5.776   3.024  25.712  0.00  0.00    +0.139 A 
ATOM     36  O   UNL     1       2.675   3.053  27.412  0.00  0.00    -0.287 OA
ATOM     37  C   UNL     1       3.080   0.117  27.189  0.00  0.00    +0.135 A 
ATOM     38  O   UNL     1       6.079   1.671  25.702  0.00  0.00    -0.454 OA
ATOM     39  C   UNL     1       3.410  -1.244  27.023  0.00  0.00    +0.092 A 
BRANCH  35  40
ATOM     40  C   UNL     1       6.822   3.872  25.069  0.00  0.00    +0.021 A 
ATOM     41  C   UNL     1       7.909   4.338  25.833  0.00  0.00    +0.015 A 
ATOM     42  C   UNL     1       8.905   5.163  25.286  0.00  0.00    +0.050 A 
ATOM     43  C   UNL     1       8.844   5.546  23.948  0.00  0.00    +0.161 A 
ATOM     44  C   UNL     1       7.771   5.085  23.177  0.00  0.00    +0.159 A 
ATOM     45  C   UNL     1       6.769   4.267  23.723  0.00  0.00    +0.060 A 
BRANCH  43  46
ATOM     46  O   UNL     1       9.758   6.343  23.312  0.00  0.00    -0.491 OA
ATOM     47  C   UNL     1      11.133   6.006  23.434  0.00  0.00    +0.277 C 
ENDBRANCH  43  46
BRANCH  44  48
ATOM     48  O   UNL     1       7.705   5.451  21.857  0.00  0.00    -0.503 OA
ATOM     49  H   UNL     1       6.787   5.406  21.550  0.00  0.00    +0.292 HD
ENDBRANCH  44  48
ENDBRANCH  35  40
BRANCH  37  50
ATOM     50  O   UNL     1       1.914   0.440  27.826  0.00  0.00    -0.506 OA
ATOM     51  H   UNL     1       1.226   0.699  27.192  0.00  0.00    +0.292 HD
ENDBRANCH  37  50
ENDBRANCH  28  29
ENDBRANCH   5  28
TORSDOF 15
ENDMDL
MODEL 5
REMARK VINA RESULT:      -7.2      2.670      5.395
REMARK  Name = 
REMARK  17 active torsions:
REMARK  status: ('A' for Active; 'I' for Inactive)
REMARK    1  A    between atoms: C_2  and  C_3
REMARK    2  A    between atoms: C_5  and  O_7
REMARK    3  A    between atoms: O_7  and  C_8
REMARK    4  A    between atoms: C_8  and  C_9
REMARK    5  A    between atoms: C_12  and  O_14
REMARK    6  A    between atoms: O_14  and  C_15
REMARK    7  A    between atoms: C_17  and  O_18
REMARK    8  A    between atoms: C_23  and  C_27
REMARK    9  A    between atoms: C_29  and  O_30
REMARK   10  A    between atoms: C_31  and  O_32
REMARK   11  A    between atoms: O_32  and  C_33
REMARK   12  A    between atoms: C_36  and  O_38
REMARK   13  A    between atoms: C_39  and  O_41
REMARK   14  A    between atoms: C_42  and  O_44
REMARK   15  A    between atoms: C_45  and  O_47
REMARK   16  A    between atoms: C_48  and  O_50
REMARK   17  A    between atoms: C_51  and  O_53
REMARK                            x       y       z     vdW  Elec       q    Type
REMARK                         _______ _______ _______ _____ _____    ______ ____
ROOT
ATOM      1  C   UNL     1       7.657  -4.490  23.537  0.00  0.00    +0.179 C 
ATOM      2  C   UNL     1       7.275  -5.197  22.218  0.00  0.00    +0.177 C 
ATOM      3  C   UNL     1       5.769  -5.171  21.919  0.00  0.00    +0.180 C 
ATOM      4  C   UNL     1       4.969  -5.569  23.173  0.00  0.00    +0.214 C 
ATOM      5  C   UNL     1       5.357  -4.661  24.370  0.00  0.00    +0.339 C 
ATOM      6  O   UNL     1       6.757  -4.744  24.635  0.00  0.00    -0.331 OA
ENDROOT
BRANCH   2   7
ATOM      7  O   UNL     1       7.721  -6.564  22.287  0.00  0.00    -0.386 OA
ATOM      8  H   UNL     1       8.502  -6.645  21.700  0.00  0.00    +0.210 HD
ENDBRANCH   2   7
BRANCH   3   9
ATOM      9  O   UNL     1       5.363  -3.911  21.380  0.00  0.00    -0.386 OA
ATOM     10  H   UNL     1       5.858  -3.732  20.561  0.00  0.00    +0.210 HD
ENDBRANCH   3   9
BRANCH   4  11
ATOM     11  O   UNL     1       5.243  -6.953  23.459  0.00  0.00    -0.383 OA
ATOM     12  H   UNL     1       6.210  -7.063  23.509  0.00  0.00    +0.210 HD
ENDBRANCH   4  11
BRANCH   1  13
ATOM     13  C   UNL     1       7.919  -2.986  23.338  0.00  0.00    +0.197 C 
BRANCH  13  14
ATOM     14  O   UNL     1       8.747  -2.514  24.408  0.00  0.00    -0.346 OA
BRANCH  14  19
ATOM     15  C   UNL     1       9.529   0.924  23.718  0.00  0.00    +0.149 C 
ATOM     16  C   UNL     1       9.747   0.778  22.206  0.00  0.00    +0.174 C 
ATOM     17  C   UNL     1       9.102  -0.525  21.735  0.00  0.00    +0.179 C 
ATOM     18  C   UNL     1       9.805  -1.689  22.446  0.00  0.00    +0.201 C 
ATOM     19  C   UNL     1       9.712  -1.535  23.979  0.00  0.00    +0.282 C 
ATOM     20  O   UNL     1       9.320  -0.263  24.474  0.00  0.00    -0.343 OA
ATOM     21  C   UNL     1      10.598   1.799  24.366  0.00  0.00    +0.041 C 
BRANCH  16  22
ATOM     22  O   UNL     1       9.205   1.935  21.548  0.00  0.00    -0.387 OA
ATOM     23  H   UNL     1       9.371   2.708  22.112  0.00  0.00    +0.210 HD
ENDBRANCH  16  22
BRANCH  17  24
ATOM     24  O   UNL     1       9.192  -0.646  20.311  0.00  0.00    -0.386 OA
ATOM     25  H   UNL     1      10.125  -0.544  20.059  0.00  0.00    +0.210 HD
ENDBRANCH  17  24
BRANCH  18  26
ATOM     26  O   UNL     1      11.191  -1.738  22.060  0.00  0.00    -0.384 OA
ATOM     27  H   UNL     1      11.471  -0.833  21.823  0.00  0.00    +0.210 HD
ENDBRANCH  18  26
ENDBRANCH  14  19
ENDBRANCH  13  14
ENDBRANCH   1  13
BRANCH   5  28
ATOM     28  O   UNL     1       4.886  -3.342  24.085  0.00  0.00    -0.461 OA
BRANCH  28  29
ATOM     29  C   UNL     1       4.760  -2.400  25.064  0.00  0.00    +0.131 A 
ATOM     30  C   UNL     1       5.483  -1.235  24.794  0.00  0.00    +0.093 A 
ATOM     31  C   UNL     1       5.532  -0.183  25.708  0.00  0.00    +0.146 A 
ATOM     32  C   UNL     1       4.873  -0.281  26.927  0.00  0.00    +0.105 A 
ATOM     33  C   UNL     1       4.979   0.877  27.845  0.00  0.00    +0.197 A 
ATOM     34  C   UNL     1       5.692   2.072  27.332  0.00  0.00    +0.098 A 
ATOM     35  C   UNL     1       6.290   2.033  26.133  0.00  0.00    +0.139 A 
ATOM     36  O   UNL     1       4.516   0.905  28.977  0.00  0.00    -0.287 OA
ATOM     37  C   UNL     1       4.156  -1.458  27.211  0.00  0.00    +0.135 A 
ATOM     38  O   UNL     1       6.268   0.908  25.324  0.00  0.00    -0.454 OA
ATOM     39  C   UNL     1       4.078  -2.508  26.274  0.00  0.00    +0.092 A 
BRANCH  35  40
ATOM     40  C   UNL     1       7.027   3.183  25.533  0.00  0.00    +0.021 A 
ATOM     41  C   UNL     1       7.616   4.148  26.371  0.00  0.00    +0.015 A 
ATOM     42  C   UNL     1       8.295   5.266  25.858  0.00  0.00    +0.050 A 
ATOM     43  C   UNL     1       8.408   5.449  24.482  0.00  0.00    +0.161 A 
ATOM     44  C   UNL     1       7.832   4.493  23.638  0.00  0.00    +0.159 A 
ATOM     45  C   UNL     1       7.145   3.379  24.147  0.00  0.00    +0.060 A 
BRANCH  43  46
ATOM     46  O   UNL     1       9.048   6.496  23.874  0.00  0.00    -0.491 OA
ATOM     47  C   UNL     1      10.466   6.462  23.810  0.00  0.00    +0.277 C 
ENDBRANCH  43  46
BRANCH  44  48
ATOM     48  O   UNL     1       7.944   4.660  22.281  0.00  0.00    -0.503 OA
ATOM     49  H   UNL     1       8.860   4.877  22.053  0.00  0.00    +0.292 HD
ENDBRANCH  44  48
ENDBRANCH  35  40
BRANCH  37  50
ATOM     50  O   UNL     1       3.551  -1.613  28.427  0.00  0.00    -0.506 OA
ATOM     51  H   UNL     1       3.924  -1.008  29.088  0.00  0.00    +0.292 HD
ENDBRANCH  37  50
ENDBRANCH  28  29
ENDBRANCH   5  28
TORSDOF 15
ENDMDL
MODEL 6
REMARK VINA RESULT:      -7.1      1.910      5.545
REMARK  Name = 
REMARK  17 active torsions:
REMARK  status: ('A' for Active; 'I' for Inactive)
REMARK    1  A    between atoms: C_2  and  C_3
REMARK    2  A    between atoms: C_5  and  O_7
REMARK    3  A    between atoms: O_7  and  C_8
REMARK    4  A    between atoms: C_8  and  C_9
REMARK    5  A    between atoms: C_12  and  O_14
REMARK    6  A    between atoms: O_14  and  C_15
REMARK    7  A    between atoms: C_17  and  O_18
REMARK    8  A    between atoms: C_23  and  C_27
REMARK    9  A    between atoms: C_29  and  O_30
REMARK   10  A    between atoms: C_31  and  O_32
REMARK   11  A    between atoms: O_32  and  C_33
REMARK   12  A    between atoms: C_36  and  O_38
REMARK   13  A    between atoms: C_39  and  O_41
REMARK   14  A    between atoms: C_42  and  O_44
REMARK   15  A    between atoms: C_45  and  O_47
REMARK   16  A    between atoms: C_48  and  O_50
REMARK   17  A    between atoms: C_51  and  O_53
REMARK                            x       y       z     vdW  Elec       q    Type
REMARK                         _______ _______ _______ _____ _____    ______ ____
ROOT
ATOM      1  C   UNL     1       4.929  -5.867  23.088  0.00  0.00    +0.179 C 
ATOM      2  C   UNL     1       6.131  -6.076  22.140  0.00  0.00    +0.177 C 
ATOM      3  C   UNL     1       7.067  -4.863  22.057  0.00  0.00    +0.180 C 
ATOM      4  C   UNL     1       6.252  -3.571  21.862  0.00  0.00    +0.214 C 
ATOM      5  C   UNL     1       5.190  -3.432  22.986  0.00  0.00    +0.339 C 
ATOM      6  O   UNL     1       4.321  -4.563  23.004  0.00  0.00    -0.331 OA
ENDROOT
BRANCH   2   7
ATOM      7  O   UNL     1       5.628  -6.379  20.826  0.00  0.00    -0.386 OA
ATOM      8  H   UNL     1       4.649  -6.385  20.884  0.00  0.00    +0.210 HD
ENDBRANCH   2   7
BRANCH   3   9
ATOM      9  O   UNL     1       7.946  -4.799  23.182  0.00  0.00    -0.386 OA
ATOM     10  H   UNL     1       8.731  -4.272  22.954  0.00  0.00    +0.210 HD
ENDBRANCH   3   9
BRANCH   4  11
ATOM     11  O   UNL     1       5.632  -3.623  20.564  0.00  0.00    -0.383 OA
ATOM     12  H   UNL     1       5.027  -2.863  20.490  0.00  0.00    +0.210 HD
ENDBRANCH   4  11
BRANCH   1  13
ATOM     13  C   UNL     1       5.256  -6.262  24.540  0.00  0.00    +0.197 C 
BRANCH  13  14
ATOM     14  O   UNL     1       4.235  -7.144  25.022  0.00  0.00    -0.346 OA
BRANCH  14  19
ATOM     15  C   UNL     1       2.967  -4.885  27.511  0.00  0.00    +0.149 C 
ATOM     16  C   UNL     1       4.256  -4.752  28.333  0.00  0.00    +0.174 C 
ATOM     17  C   UNL     1       5.438  -5.212  27.480  0.00  0.00    +0.179 C 
ATOM     18  C   UNL     1       5.228  -6.692  27.133  0.00  0.00    +0.201 C 
ATOM     19  C   UNL     1       3.887  -6.900  26.398  0.00  0.00    +0.282 C 
ATOM     20  O   UNL     1       2.954  -5.831  26.449  0.00  0.00    -0.343 OA
ATOM     21  C   UNL     1       1.738  -5.050  28.400  0.00  0.00    +0.041 C 
BRANCH  16  22
ATOM     22  O   UNL     1       4.385  -3.390  28.772  0.00  0.00    -0.387 OA
ATOM     23  H   UNL     1       4.247  -3.369  29.734  0.00  0.00    +0.210 HD
ENDBRANCH  16  22
BRANCH  17  24
ATOM     24  O   UNL     1       6.672  -5.004  28.177  0.00  0.00    -0.386 OA
ATOM     25  H   UNL     1       6.819  -5.765  28.762  0.00  0.00    +0.210 HD
ENDBRANCH  17  24
BRANCH  18  26
ATOM     26  O   UNL     1       5.237  -7.487  28.334  0.00  0.00    -0.384 OA
ATOM     27  H   UNL     1       5.781  -8.279  28.167  0.00  0.00    +0.210 HD
ENDBRANCH  18  26
ENDBRANCH  14  19
ENDBRANCH  13  14
ENDBRANCH   1  13
BRANCH   5  28
ATOM     28  O   UNL     1       5.885  -3.200  24.213  0.00  0.00    -0.461 OA
BRANCH  28  29
ATOM     29  C   UNL     1       5.733  -2.039  24.913  0.00  0.00    +0.131 A 
ATOM     30  C   UNL     1       6.692  -1.077  24.585  0.00  0.00    +0.093 A 
ATOM     31  C   UNL     1       6.743   0.153  25.241  0.00  0.00    +0.146 A 
ATOM     32  C   UNL     1       5.843   0.442  26.260  0.00  0.00    +0.105 A 
ATOM     33  C   UNL     1       5.965   1.766  26.911  0.00  0.00    +0.197 A 
ATOM     34  C   UNL     1       6.970   2.699  26.344  0.00  0.00    +0.098 A 
ATOM     35  C   UNL     1       7.782   2.291  25.359  0.00  0.00    +0.139 A 
ATOM     36  O   UNL     1       5.295   2.130  27.868  0.00  0.00    -0.287 OA
ATOM     37  C   UNL     1       4.884  -0.529  26.606  0.00  0.00    +0.135 A 
ATOM     38  O   UNL     1       7.724   1.013  24.823  0.00  0.00    -0.454 OA
ATOM     39  C   UNL     1       4.812  -1.759  25.920  0.00  0.00    +0.092 A 
BRANCH  35  40
ATOM     40  C   UNL     1       8.819   3.155  24.724  0.00  0.00    +0.021 A 
ATOM     41  C   UNL     1       9.889   2.563  24.028  0.00  0.00    +0.015 A 
ATOM     42  C   UNL     1      10.909   3.328  23.437  0.00  0.00    +0.050 A 
ATOM     43  C   UNL     1      10.885   4.717  23.524  0.00  0.00    +0.161 A 
ATOM     44  C   UNL     1       9.822   5.319  24.210  0.00  0.00    +0.159 A 
ATOM     45  C   UNL     1       8.807   4.557  24.808  0.00  0.00    +0.060 A 
BRANCH  43  46
ATOM     46  O   UNL     1      11.821   5.560  22.986  0.00  0.00    -0.491 OA
ATOM     47  C   UNL     1      13.187   5.183  23.083  0.00  0.00    +0.277 C 
ENDBRANCH  43  46
BRANCH  44  48
ATOM     48  O   UNL     1       9.786   6.687  24.295  0.00  0.00    -0.503 OA
ATOM     49  H   UNL     1      10.105   6.969  25.166  0.00  0.00    +0.292 HD
ENDBRANCH  44  48
ENDBRANCH  35  40
BRANCH  37  50
ATOM     50  O   UNL     1       4.027  -0.303  27.646  0.00  0.00    -0.506 OA
ATOM     51  H   UNL     1       4.447  -0.497  28.499  0.00  0.00    +0.292 HD
ENDBRANCH  37  50
ENDBRANCH  28  29
ENDBRANCH   5  28
TORSDOF 15
ENDMDL
MODEL 7
REMARK VINA RESULT:      -7.1      2.227      4.976
REMARK  Name = 
REMARK  17 active torsions:
REMARK  status: ('A' for Active; 'I' for Inactive)
REMARK    1  A    between atoms: C_2  and  C_3
REMARK    2  A    between atoms: C_5  and  O_7
REMARK    3  A    between atoms: O_7  and  C_8
REMARK    4  A    between atoms: C_8  and  C_9
REMARK    5  A    between atoms: C_12  and  O_14
REMARK    6  A    between atoms: O_14  and  C_15
REMARK    7  A    between atoms: C_17  and  O_18
REMARK    8  A    between atoms: C_23  and  C_27
REMARK    9  A    between atoms: C_29  and  O_30
REMARK   10  A    between atoms: C_31  and  O_32
REMARK   11  A    between atoms: O_32  and  C_33
REMARK   12  A    between atoms: C_36  and  O_38
REMARK   13  A    between atoms: C_39  and  O_41
REMARK   14  A    between atoms: C_42  and  O_44
REMARK   15  A    between atoms: C_45  and  O_47
REMARK   16  A    between atoms: C_48  and  O_50
REMARK   17  A    between atoms: C_51  and  O_53
REMARK                            x       y       z     vdW  Elec       q    Type
REMARK                         _______ _______ _______ _____ _____    ______ ____
ROOT
ATOM      1  C   UNL     1       2.787  -5.335  24.194  0.00  0.00    +0.179 C 
ATOM      2  C   UNL     1       3.438  -6.736  24.187  0.00  0.00    +0.177 C 
ATOM      3  C   UNL     1       4.964  -6.704  24.025  0.00  0.00    +0.180 C 
ATOM      4  C   UNL     1       5.360  -5.754  22.879  0.00  0.00    +0.214 C 
ATOM      5  C   UNL     1       4.754  -4.345  23.116  0.00  0.00    +0.339 C 
ATOM      6  O   UNL     1       3.334  -4.416  23.226  0.00  0.00    -0.331 OA
ENDROOT
BRANCH   2   7
ATOM      7  O   UNL     1       2.862  -7.501  23.114  0.00  0.00    -0.386 OA
ATOM      8  H   UNL     1       2.815  -6.913  22.330  0.00  0.00    +0.210 HD
ENDBRANCH   2   7
BRANCH   3   9
ATOM      9  O   UNL     1       5.617  -6.390  25.256  0.00  0.00    -0.386 OA
ATOM     10  H   UNL     1       5.481  -7.114  25.892  0.00  0.00    +0.210 HD
ENDBRANCH   3   9
BRANCH   4  11
ATOM     11  O   UNL     1       4.889  -6.322  21.643  0.00  0.00    -0.383 OA
ATOM     12  H   UNL     1       4.750  -5.592  21.012  0.00  0.00    +0.210 HD
ENDBRANCH   4  11
BRANCH   1  13
ATOM     13  C   UNL     1       2.732  -4.724  25.606  0.00  0.00    +0.197 C 
BRANCH  13  14
ATOM     14  O   UNL     1       1.831  -5.495  26.410  0.00  0.00    -0.346 OA
BRANCH  14  19
ATOM     15  C   UNL     1       3.930  -4.271  29.057  0.00  0.00    +0.149 C 
ATOM     16  C   UNL     1       4.729  -5.561  29.288  0.00  0.00    +0.174 C 
ATOM     17  C   UNL     1       4.578  -6.465  28.066  0.00  0.00    +0.179 C 
ATOM     18  C   UNL     1       3.094  -6.827  27.921  0.00  0.00    +0.201 C 
ATOM     19  C   UNL     1       2.227  -5.555  27.794  0.00  0.00    +0.282 C 
ATOM     20  O   UNL     1       2.838  -4.324  28.146  0.00  0.00    -0.343 OA
ATOM     21  C   UNL     1       3.512  -3.615  30.369  0.00  0.00    +0.041 C 
BRANCH  16  22
ATOM     22  O   UNL     1       6.097  -5.214  29.557  0.00  0.00    -0.387 OA
ATOM     23  H   UNL     1       6.136  -4.788  30.429  0.00  0.00    +0.210 HD
ENDBRANCH  16  22
BRANCH  17  24
ATOM     24  O   UNL     1       5.395  -7.634  28.200  0.00  0.00    -0.386 OA
ATOM     25  H   UNL     1       4.927  -8.377  27.785  0.00  0.00    +0.210 HD
ENDBRANCH  17  24
BRANCH  18  26
ATOM     26  O   UNL     1       2.656  -7.584  29.065  0.00  0.00    -0.384 OA
ATOM     27  H   UNL     1       1.718  -7.371  29.226  0.00  0.00    +0.210 HD
ENDBRANCH  18  26
ENDBRANCH  14  19
ENDBRANCH  13  14
ENDBRANCH   1  13
BRANCH   5  28
ATOM     28  O   UNL     1       5.408  -3.778  24.254  0.00  0.00    -0.461 OA
BRANCH  28  29
ATOM     29  C   UNL     1       6.518  -2.997  24.126  0.00  0.00    +0.131 A 
ATOM     30  C   UNL     1       6.214  -1.658  23.868  0.00  0.00    +0.093 A 
ATOM     31  C   UNL     1       7.217  -0.715  23.639  0.00  0.00    +0.146 A 
ATOM     32  C   UNL     1       8.553  -1.097  23.644  0.00  0.00    +0.105 A 
ATOM     33  C   UNL     1       9.557  -0.039  23.387  0.00  0.00    +0.197 A 
ATOM     34  C   UNL     1       9.046   1.347  23.253  0.00  0.00    +0.098 A 
ATOM     35  C   UNL     1       7.726   1.579  23.264  0.00  0.00    +0.139 A 
ATOM     36  O   UNL     1      10.760  -0.239  23.287  0.00  0.00    -0.287 OA
ATOM     37  C   UNL     1       8.865  -2.448  23.887  0.00  0.00    +0.135 A 
ATOM     38  O   UNL     1       6.790   0.566  23.407  0.00  0.00    -0.454 OA
ATOM     39  C   UNL     1       7.854  -3.394  24.151  0.00  0.00    +0.092 A 
BRANCH  35  40
ATOM     40  C   UNL     1       7.118   2.936  23.139  0.00  0.00    +0.021 A 
ATOM     41  C   UNL     1       5.954   3.248  23.865  0.00  0.00    +0.015 A 
ATOM     42  C   UNL     1       5.324   4.500  23.761  0.00  0.00    +0.050 A 
ATOM     43  C   UNL     1       5.847   5.483  22.925  0.00  0.00    +0.161 A 
ATOM     44  C   UNL     1       7.008   5.186  22.202  0.00  0.00    +0.159 A 
ATOM     45  C   UNL     1       7.635   3.934  22.297  0.00  0.00    +0.060 A 
BRANCH  43  46
ATOM     46  O   UNL     1       5.319   6.734  22.749  0.00  0.00    -0.491 OA
ATOM     47  C   UNL     1       4.032   6.834  22.156  0.00  0.00    +0.277 C 
ENDBRANCH  43  46
BRANCH  44  48
ATOM     48  O   UNL     1       7.535   6.150  21.380  0.00  0.00    -0.503 OA
ATOM     49  H   UNL     1       8.324   6.534  21.791  0.00  0.00    +0.292 HD
ENDBRANCH  44  48
ENDBRANCH  35  40
BRANCH  37  50
ATOM     50  O   UNL     1      10.165  -2.870  23.834  0.00  0.00    -0.506 OA
ATOM     51  H   UNL     1      10.219  -3.836  23.759  0.00  0.00    +0.292 HD
ENDBRANCH  37  50
ENDBRANCH  28  29
ENDBRANCH   5  28
TORSDOF 15
ENDMDL
MODEL 8
REMARK VINA RESULT:      -7.1      2.286      4.284
REMARK  Name = 
REMARK  17 active torsions:
REMARK  status: ('A' for Active; 'I' for Inactive)
REMARK    1  A    between atoms: C_2  and  C_3
REMARK    2  A    between atoms: C_5  and  O_7
REMARK    3  A    between atoms: O_7  and  C_8
REMARK    4  A    between atoms: C_8  and  C_9
REMARK    5  A    between atoms: C_12  and  O_14
REMARK    6  A    between atoms: O_14  and  C_15
REMARK    7  A    between atoms: C_17  and  O_18
REMARK    8  A    between atoms: C_23  and  C_27
REMARK    9  A    between atoms: C_29  and  O_30
REMARK   10  A    between atoms: C_31  and  O_32
REMARK   11  A    between atoms: O_32  and  C_33
REMARK   12  A    between atoms: C_36  and  O_38
REMARK   13  A    between atoms: C_39  and  O_41
REMARK   14  A    between atoms: C_42  and  O_44
REMARK   15  A    between atoms: C_45  and  O_47
REMARK   16  A    between atoms: C_48  and  O_50
REMARK   17  A    between atoms: C_51  and  O_53
REMARK                            x       y       z     vdW  Elec       q    Type
REMARK                         _______ _______ _______ _____ _____    ______ ____
ROOT
ATOM      1  C   UNL     1       4.210  -7.137  24.815  0.00  0.00    +0.179 C 
ATOM      2  C   UNL     1       2.770  -7.685  24.695  0.00  0.00    +0.177 C 
ATOM      3  C   UNL     1       1.725  -6.835  25.432  0.00  0.00    +0.180 C 
ATOM      4  C   UNL     1       2.218  -6.495  26.850  0.00  0.00    +0.214 C 
ATOM      5  C   UNL     1       3.609  -5.809  26.786  0.00  0.00    +0.339 C 
ATOM      6  O   UNL     1       4.556  -6.647  26.126  0.00  0.00    -0.331 OA
ENDROOT
BRANCH   2   7
ATOM      7  O   UNL     1       2.747  -9.025  25.218  0.00  0.00    -0.386 OA
ATOM      8  H   UNL     1       3.314  -9.034  26.018  0.00  0.00    +0.210 HD
ENDBRANCH   2   7
BRANCH   3   9
ATOM      9  O   UNL     1       1.364  -5.677  24.677  0.00  0.00    -0.386 OA
ATOM     10  H   UNL     1       2.047  -4.991  24.785  0.00  0.00    +0.210 HD
ENDBRANCH   3   9
BRANCH   4  11
ATOM     11  O   UNL     1       2.275  -7.716  27.611  0.00  0.00    -0.383 OA
ATOM     12  H   UNL     1       1.461  -7.775  28.144  0.00  0.00    +0.210 HD
ENDBRANCH   4  11
BRANCH   1  13
ATOM     13  C   UNL     1       4.540  -6.118  23.709  0.00  0.00    +0.197 C 
BRANCH  13  14
ATOM     14  O   UNL     1       5.964  -5.994  23.603  0.00  0.00    -0.346 OA
BRANCH  14  19
ATOM     15  C   UNL     1       7.836  -2.984  23.020  0.00  0.00    +0.149 C 
ATOM     16  C   UNL     1       8.965  -3.256  24.023  0.00  0.00    +0.174 C 
ATOM     17  C   UNL     1       8.978  -4.745  24.365  0.00  0.00    +0.179 C 
ATOM     18  C   UNL     1       7.639  -5.093  25.029  0.00  0.00    +0.201 C 
ATOM     19  C   UNL     1       6.456  -4.736  24.102  0.00  0.00    +0.282 C 
ATOM     20  O   UNL     1       6.738  -3.888  23.000  0.00  0.00    -0.343 OA
ATOM     21  C   UNL     1       7.349  -1.539  23.088  0.00  0.00    +0.041 C 
BRANCH  16  22
ATOM     22  O   UNL     1      10.206  -2.806  23.454  0.00  0.00    -0.387 OA
ATOM     23  H   UNL     1      10.495  -2.018  23.943  0.00  0.00    +0.210 HD
ENDBRANCH  16  22
BRANCH  17  24
ATOM     24  O   UNL     1      10.086  -5.057  25.218  0.00  0.00    -0.386 OA
ATOM     25  H   UNL     1      10.205  -6.020  25.216  0.00  0.00    +0.210 HD
ENDBRANCH  17  24
BRANCH  18  26
ATOM     26  O   UNL     1       7.501  -4.375  26.269  0.00  0.00    -0.384 OA
ATOM     27  H   UNL     1       8.142  -3.639  26.264  0.00  0.00    +0.210 HD
ENDBRANCH  18  26
ENDBRANCH  14  19
ENDBRANCH  13  14
ENDBRANCH   1  13
BRANCH   5  28
ATOM     28  O   UNL     1       3.432  -4.525  26.182  0.00  0.00    -0.461 OA
BRANCH  28  29
ATOM     29  C   UNL     1       3.700  -3.373  26.861  0.00  0.00    +0.131 A 
ATOM     30  C   UNL     1       4.775  -2.661  26.322  0.00  0.00    +0.093 A 
ATOM     31  C   UNL     1       5.243  -1.490  26.916  0.00  0.00    +0.146 A 
ATOM     32  C   UNL     1       4.657  -1.012  28.082  0.00  0.00    +0.105 A 
ATOM     33  C   UNL     1       5.215   0.234  28.654  0.00  0.00    +0.197 A 
ATOM     34  C   UNL     1       6.279   0.911  27.872  0.00  0.00    +0.098 A 
ATOM     35  C   UNL     1       6.761   0.337  26.760  0.00  0.00    +0.139 A 
ATOM     36  O   UNL     1       4.853   0.732  29.712  0.00  0.00    -0.287 OA
ATOM     37  C   UNL     1       3.585  -1.732  28.639  0.00  0.00    +0.135 A 
ATOM     38  O   UNL     1       6.297  -0.881  26.287  0.00  0.00    -0.454 OA
ATOM     39  C   UNL     1       3.089  -2.898  28.020  0.00  0.00    +0.092 A 
BRANCH  35  40
ATOM     40  C   UNL     1       7.826   0.940  25.907  0.00  0.00    +0.021 A 
ATOM     41  C   UNL     1       7.716   2.283  25.499  0.00  0.00    +0.015 A 
ATOM     42  C   UNL     1       8.675   2.891  24.672  0.00  0.00    +0.050 A 
ATOM     43  C   UNL     1       9.780   2.169  24.228  0.00  0.00    +0.161 A 
ATOM     44  C   UNL     1       9.903   0.834  24.631  0.00  0.00    +0.159 A 
ATOM     45  C   UNL     1       8.942   0.221  25.451  0.00  0.00    +0.060 A 
BRANCH  43  46
ATOM     46  O   UNL     1      10.773   2.659  23.423  0.00  0.00    -0.491 OA
ATOM     47  C   UNL     1      11.108   4.035  23.543  0.00  0.00    +0.277 C 
ENDBRANCH  43  46
BRANCH  44  48
ATOM     48  O   UNL     1      10.991   0.116  24.204  0.00  0.00    -0.503 OA
ATOM     49  H   UNL     1      10.882  -0.816  24.444  0.00  0.00    +0.292 HD
ENDBRANCH  44  48
ENDBRANCH  35  40
BRANCH  37  50
ATOM     50  O   UNL     1       3.028  -1.326  29.820  0.00  0.00    -0.506 OA
ATOM     51  H   UNL     1       2.326  -1.932  30.106  0.00  0.00    +0.292 HD
ENDBRANCH  37  50
ENDBRANCH  28  29
ENDBRANCH   5  28
TORSDOF 15
ENDMDL
MODEL 9
REMARK VINA RESULT:      -7.0      2.471      4.180
REMARK  Name = 
REMARK  17 active torsions:
REMARK  status: ('A' for Active; 'I' for Inactive)
REMARK    1  A    between atoms: C_2  and  C_3
REMARK    2  A    between atoms: C_5  and  O_7
REMARK    3  A    between atoms: O_7  and  C_8
REMARK    4  A    between atoms: C_8  and  C_9
REMARK    5  A    between atoms: C_12  and  O_14
REMARK    6  A    between atoms: O_14  and  C_15
REMARK    7  A    between atoms: C_17  and  O_18
REMARK    8  A    between atoms: C_23  and  C_27
REMARK    9  A    between atoms: C_29  and  O_30
REMARK   10  A    between atoms: C_31  and  O_32
REMARK   11  A    between atoms: O_32  and  C_33
REMARK   12  A    between atoms: C_36  and  O_38
REMARK   13  A    between atoms: C_39  and  O_41
REMARK   14  A    between atoms: C_42  and  O_44
REMARK   15  A    between atoms: C_45  and  O_47
REMARK   16  A    between atoms: C_48  and  O_50
REMARK   17  A    between atoms: C_51  and  O_53
REMARK                            x       y       z     vdW  Elec       q    Type
REMARK                         _______ _______ _______ _____ _____    ______ ____
ROOT
ATOM      1  C   UNL     1       6.151  -5.381  27.877  0.00  0.00    +0.179 C 
ATOM      2  C   UNL     1       5.461  -6.654  27.338  0.00  0.00    +0.177 C 
ATOM      3  C   UNL     1       4.079  -6.392  26.723  0.00  0.00    +0.180 C 
ATOM      4  C   UNL     1       3.242  -5.495  27.653  0.00  0.00    +0.214 C 
ATOM      5  C   UNL     1       4.012  -4.186  27.974  0.00  0.00    +0.339 C 
ATOM      6  O   UNL     1       5.273  -4.475  28.576  0.00  0.00    -0.331 OA
ENDROOT
BRANCH   2   7
ATOM      7  O   UNL     1       5.329  -7.593  28.420  0.00  0.00    -0.386 OA
ATOM      8  H   UNL     1       5.636  -8.464  28.088  0.00  0.00    +0.210 HD
ENDBRANCH   2   7
BRANCH   3   9
ATOM      9  O   UNL     1       4.186  -5.869  25.397  0.00  0.00    -0.386 OA
ATOM     10  H   UNL     1       5.123  -5.820  25.140  0.00  0.00    +0.210 HD
ENDBRANCH   3   9
BRANCH   4  11
ATOM     11  O   UNL     1       2.955  -6.237  28.853  0.00  0.00    -0.383 OA
ATOM     12  H   UNL     1       2.930  -5.608  29.596  0.00  0.00    +0.210 HD
ENDBRANCH   4  11
BRANCH   1  13
ATOM     13  C   UNL     1       6.980  -4.664  26.796  0.00  0.00    +0.197 C 
BRANCH  13  14
ATOM     14  O   UNL     1       7.106  -5.528  25.659  0.00  0.00    -0.346 OA
BRANCH  14  19
ATOM     15  C   UNL     1       8.366  -2.527  24.137  0.00  0.00    +0.149 C 
ATOM     16  C   UNL     1       7.412  -2.500  22.935  0.00  0.00    +0.174 C 
ATOM     17  C   UNL     1       6.212  -3.398  23.233  0.00  0.00    +0.179 C 
ATOM     18  C   UNL     1       6.724  -4.832  23.419  0.00  0.00    +0.201 C 
ATOM     19  C   UNL     1       7.774  -4.899  24.549  0.00  0.00    +0.282 C 
ATOM     20  O   UNL     1       8.325  -3.667  24.988  0.00  0.00    -0.343 OA
ATOM     21  C   UNL     1       9.800  -2.202  23.734  0.00  0.00    +0.041 C 
BRANCH  16  22
ATOM     22  O   UNL     1       7.036  -1.137  22.676  0.00  0.00    -0.387 OA
ATOM     23  H   UNL     1       6.115  -1.131  22.367  0.00  0.00    +0.210 HD
ENDBRANCH  16  22
BRANCH  17  24
ATOM     24  O   UNL     1       5.247  -3.315  22.177  0.00  0.00    -0.386 OA
ATOM     25  H   UNL     1       4.400  -3.646  22.517  0.00  0.00    +0.210 HD
ENDBRANCH  17  24
BRANCH  18  26
ATOM     26  O   UNL     1       7.316  -5.307  22.195  0.00  0.00    -0.384 OA
ATOM     27  H   UNL     1       8.249  -5.530  22.379  0.00  0.00    +0.210 HD
ENDBRANCH  18  26
ENDBRANCH  14  19
ENDBRANCH  13  14
ENDBRANCH   1  13
BRANCH   5  28
ATOM     28  O   UNL     1       4.093  -3.424  26.768  0.00  0.00    -0.461 OA
BRANCH  28  29
ATOM     29  C   UNL     1       3.979  -2.064  26.773  0.00  0.00    +0.131 A 
ATOM     30  C   UNL     1       5.130  -1.420  26.312  0.00  0.00    +0.093 A 
ATOM     31  C   UNL     1       5.232  -0.029  26.304  0.00  0.00    +0.146 A 
ATOM     32  C   UNL     1       4.186   0.753  26.778  0.00  0.00    +0.105 A 
ATOM     33  C   UNL     1       4.373   2.222  26.741  0.00  0.00    +0.197 A 
ATOM     34  C   UNL     1       5.617   2.720  26.106  0.00  0.00    +0.098 A 
ATOM     35  C   UNL     1       6.552   1.854  25.691  0.00  0.00    +0.139 A 
ATOM     36  O   UNL     1       3.573   3.031  27.191  0.00  0.00    -0.287 OA
ATOM     37  C   UNL     1       3.030   0.110  27.258  0.00  0.00    +0.135 A 
ATOM     38  O   UNL     1       6.408   0.481  25.821  0.00  0.00    -0.454 OA
ATOM     39  C   UNL     1       2.913  -1.295  27.235  0.00  0.00    +0.092 A 
BRANCH  35  40
ATOM     40  C   UNL     1       7.831   2.259  25.039  0.00  0.00    +0.021 A 
ATOM     41  C   UNL     1       7.965   3.557  24.512  0.00  0.00    +0.015 A 
ATOM     42  C   UNL     1       9.137   3.979  23.862  0.00  0.00    +0.050 A 
ATOM     43  C   UNL     1      10.216   3.111  23.723  0.00  0.00    +0.161 A 
ATOM     44  C   UNL     1      10.097   1.818  24.247  0.00  0.00    +0.159 A 
ATOM     45  C   UNL     1       8.925   1.390  24.890  0.00  0.00    +0.060 A 
BRANCH  43  46
ATOM     46  O   UNL     1      11.403   3.416  23.112  0.00  0.00    -0.491 OA
ATOM     47  C   UNL     1      11.979   4.687  23.377  0.00  0.00    +0.277 C 
ENDBRANCH  43  46
BRANCH  44  48
ATOM     48  O   UNL     1      11.157   0.957  24.121  0.00  0.00    -0.503 OA
ATOM     49  H   UNL     1      11.428   0.907  23.192  0.00  0.00    +0.292 HD
ENDBRANCH  44  48
ENDBRANCH  35  40
BRANCH  37  50
ATOM     50  O   UNL     1       2.009   0.848  27.791  0.00  0.00    -0.506 OA
ATOM     51  H   UNL     1       1.812   1.625  27.245  0.00  0.00    +0.292 HD
ENDBRANCH  37  50
ENDBRANCH  28  29
ENDBRANCH   5  28
TORSDOF 15
ENDMDL
