MODEL 1
REMARK VINA RESULT:      -4.8      0.000      0.000
REMARK  Name = 
REMARK  42 active torsions:
REMARK  status: ('A' for Active; 'I' for Inactive)
REMARK    1  A    between atoms: C_1  and  C_2
REMARK    2  A    between atoms: C_2  and  C_3
REMARK    3  A    between atoms: C_3  and  C_4
REMARK    4  A    between atoms: C_4  and  C_5
REMARK    5  A    between atoms: C_5  and  C_6
REMARK    6  A    between atoms: C_6  and  C_7
REMARK    7  A    between atoms: C_7  and  C_8
REMARK    8  A    between atoms: C_8  and  C_9
REMARK    9  A    between atoms: C_9  and  C_10
REMARK   10  A    between atoms: C_10  and  C_11
REMARK   11  A    between atoms: C_11  and  C_12
REMARK   12  A    between atoms: C_12  and  C_13
REMARK   13  A    between atoms: C_13  and  C_14
REMARK   14  A    between atoms: C_14  and  C_16
REMARK   15  A    between atoms: C_16  and  S_17
REMARK   16  A    between atoms: S_17  and  C_18
REMARK   17  A    between atoms: C_18  and  C_19
REMARK   18  A    between atoms: C_19  and  N_20
REMARK   19  A    between atoms: C_21  and  C_23
REMARK   20  A    between atoms: C_23  and  C_24
REMARK   21  A    between atoms: C_24  and  N_25
REMARK   22  A    between atoms: C_26  and  C_28
REMARK   23  A    between atoms: C_28  and  O_30
REMARK   24  A    between atoms: C_28  and  C_31
REMARK   25  A    between atoms: C_31  and  C_32
REMARK   26  A    between atoms: C_31  and  C_33
REMARK   27  A    between atoms: C_31  and  C_34
REMARK   28  A    between atoms: C_34  and  O_35
REMARK   29  A    between atoms: O_35  and  P_36
REMARK   30  A    between atoms: P_36  and  O_37
REMARK   31  A    between atoms: P_36  and  O_39
REMARK   32  A    between atoms: O_39  and  P_40
REMARK   33  A    between atoms: P_40  and  O_41
REMARK   34  A    between atoms: P_40  and  O_43
REMARK   35  A    between atoms: O_43  and  C_44
REMARK   36  A    between atoms: C_44  and  C_45
REMARK   37  A    between atoms: C_48  and  N_60
REMARK   38  A    between atoms: C_50  and  O_52
REMARK   39  A    between atoms: C_53  and  O_55
REMARK   40  A    between atoms: O_55  and  P_56
REMARK   41  A    between atoms: P_56  and  O_57
REMARK   42  A    between atoms: P_56  and  O_58
REMARK                            x       y       z     vdW  Elec       q    Type
REMARK                         _______ _______ _______ _____ _____    ______ ____
ROOT
ATOM      1  O   UNL     1       5.014  -1.537  27.743  0.00  0.00    -0.286 OA
ENDROOT
BRANCH   1   2
ATOM      2  P   UNL     1       4.201  -2.888  28.132  0.00  0.00    +0.483 P 
ATOM      3  O   UNL     1       4.110  -3.012  29.650  0.00  0.00    -0.227 OA
BRANCH   2   4
ATOM      4  O   UNL     1       2.803  -1.872  28.195  0.00  0.00    -0.302 OA
ATOM      5  H   UNL     1       3.097  -1.079  27.698  0.00  0.00    +0.222 HD
ENDBRANCH   2   4
BRANCH   2   6
ATOM      6  O   UNL     1       5.601  -3.904  28.067  0.00  0.00    -0.186 OA
BRANCH   6   7
ATOM      7  P   UNL     1       4.671  -5.334  27.796  0.00  0.00    +0.483 P 
ATOM      8  O   UNL     1       3.269  -5.091  27.305  0.00  0.00    -0.227 OA
BRANCH   7   9
ATOM      9  O   UNL     1       4.544  -5.924  29.280  0.00  0.00    -0.302 OA
ATOM     10  H   UNL     1       5.332  -5.709  29.817  0.00  0.00    +0.222 HD
ENDBRANCH   7   9
BRANCH   7  11
ATOM     11  O   UNL     1       5.311  -6.594  26.972  0.00  0.00    -0.284 OA
BRANCH  11  12
ATOM     12  C   UNL     1       4.591  -7.144  25.828  0.00  0.00    +0.206 C 
BRANCH  12  13
ATOM     13  C   UNL     1       4.556  -6.500  24.343  0.00  0.00    +0.179 C 
ATOM     14  C   UNL     1       3.409  -5.521  24.016  0.00  0.00    +0.194 C 
ATOM     15  C   UNL     1       3.993  -4.111  23.845  0.00  0.00    +0.196 C 
ATOM     16  C   UNL     1       5.455  -4.280  24.165  0.00  0.00    +0.253 C 
ATOM     17  O   UNL     1       5.782  -5.694  24.146  0.00  0.00    -0.346 OA
BRANCH  16  18
ATOM     18  N   UNL     1       6.421  -3.433  23.459  0.00  0.00    -0.286 N 
ATOM     19  C   UNL     1       7.466  -2.753  24.081  0.00  0.00    +0.167 A 
ATOM     20  N   UNL     1       7.648  -2.564  25.418  0.00  0.00    -0.216 NA
ATOM     21  C   UNL     1       8.831  -1.927  25.634  0.00  0.00    +0.225 A 
ATOM     22  N   UNL     1       9.760  -1.499  24.754  0.00  0.00    -0.219 NA
ATOM     23  C   UNL     1       9.543  -1.756  23.439  0.00  0.00    +0.147 A 
ATOM     24  N   UNL     1      10.524  -1.397  22.528  0.00  0.00    -0.341 N 
ATOM     25  H   UNL     1      10.223  -1.388  21.547  0.00  0.00    +0.144 HD
ATOM     26  H   UNL     1      11.131  -0.676  22.835  0.00  0.00    +0.144 HD
ATOM     27  C   UNL     1       8.344  -2.407  23.067  0.00  0.00    +0.147 A 
ATOM     28  N   UNL     1       7.857  -2.840  21.845  0.00  0.00    -0.231 NA
ATOM     29  C   UNL     1       6.743  -3.494  22.123  0.00  0.00    +0.203 A 
ENDBRANCH  16  18
BRANCH  15  30
ATOM     30  O   UNL     1       3.329  -3.242  24.779  0.00  0.00    -0.385 OA
ATOM     31  H   UNL     1       2.905  -3.808  25.463  0.00  0.00    +0.210 HD
ENDBRANCH  15  30
BRANCH  14  32
ATOM     32  O   UNL     1       2.782  -5.863  22.780  0.00  0.00    -0.278 OA
BRANCH  32  33
ATOM     33  P   UNL     1       1.426  -6.728  22.858  0.00  0.00    +0.473 P 
ATOM     34  O   UNL     1       0.443  -6.525  21.759  0.00  0.00    -0.228 OA
BRANCH  33  35
ATOM     35  O   UNL     1       1.969  -8.220  22.970  0.00  0.00    -0.303 OA
ATOM     36  H   UNL     1       2.125  -8.611  22.093  0.00  0.00    +0.222 HD
ENDBRANCH  33  35
BRANCH  33  37
ATOM     37  O   UNL     1       0.862  -6.424  24.318  0.00  0.00    -0.303 OA
ATOM     38  H   UNL     1       1.392  -5.743  24.776  0.00  0.00    +0.222 HD
ENDBRANCH  33  37
ENDBRANCH  32  33
ENDBRANCH  14  32
ENDBRANCH  12  13
ENDBRANCH  11  12
ENDBRANCH   7  11
ENDBRANCH   6   7
ENDBRANCH   2   6
ENDBRANCH   1   2
BRANCH   1  39
ATOM     39  C   UNL     1       4.869  -0.390  28.643  0.00  0.00    +0.181 C 
BRANCH  39  40
ATOM     40  C   UNL     1       5.200   0.830  27.798  0.00  0.00    +0.024 C 
ATOM     41  C   UNL     1       4.872   2.051  28.713  0.00  0.00    +0.016 C 
ATOM     42  C   UNL     1       6.658   0.473  27.462  0.00  0.00    +0.016 C 
BRANCH  40  43
ATOM     43  C   UNL     1       4.453   1.161  26.480  0.00  0.00    +0.208 C 
BRANCH  43  46
ATOM     44  N   UNL     1       5.776   1.889  24.630  0.00  0.00    -0.313 N 
ATOM     45  H   UNL     1       5.727   2.764  25.142  0.00  0.00    +0.149 HD
ATOM     46  C   UNL     1       5.241   0.791  25.245  0.00  0.00    +0.242 C 
ATOM     47  O   UNL     1       5.316  -0.358  24.838  0.00  0.00    -0.273 OA
BRANCH  44  48
ATOM     48  C   UNL     1       6.002   1.936  23.225  0.00  0.00    +0.113 C 
BRANCH  48  49
ATOM     49  C   UNL     1       5.493   3.134  22.422  0.00  0.00    +0.114 C 
BRANCH  49  52
ATOM     50  N   UNL     1       3.696   4.779  21.950  0.00  0.00    -0.314 N 
ATOM     51  H   UNL     1       4.154   4.832  21.049  0.00  0.00    +0.149 HD
ATOM     52  C   UNL     1       4.058   3.633  22.630  0.00  0.00    +0.215 C 
ATOM     53  O   UNL     1       3.235   2.949  23.220  0.00  0.00    -0.276 OA
BRANCH  50  54
ATOM     54  C   UNL     1       2.339   5.331  21.914  0.00  0.00    +0.115 C 
BRANCH  54  55
ATOM     55  C   UNL     1       1.875   6.355  22.952  0.00  0.00    +0.088 C 
BRANCH  55  56
ATOM     56  S   UNL     1       1.215   5.801  24.538  0.00  0.00    -0.152 S 
BRANCH  56  57
ATOM     57  C   UNL     1       2.055   6.880  25.761  0.00  0.00    +0.143 C 
BRANCH  57  58
ATOM     58  C   UNL     1       2.823   5.935  26.672  0.00  0.00    +0.143 C 
ATOM     59  O   UNL     1       3.001   6.174  27.874  0.00  0.00    -0.297 OA
BRANCH  58  60
ATOM     60  C   UNL     1       3.580   4.784  26.125  0.00  0.00    +0.075 C 
BRANCH  60  61
ATOM     61  C   UNL     1       4.807   5.580  25.765  0.00  0.00    +0.008 C 
BRANCH  61  62
ATOM     62  C   UNL     1       6.090   5.073  26.273  0.00  0.00    +0.000 C 
BRANCH  62  63
ATOM     63  C   UNL     1       7.011   5.261  25.088  0.00  0.00    +0.000 C 
BRANCH  63  64
ATOM     64  C   UNL     1       8.387   5.227  25.640  0.00  0.00    +0.000 C 
BRANCH  64  65
ATOM     65  C   UNL     1       8.943   6.619  25.687  0.00  0.00    +0.000 C 
BRANCH  65  66
ATOM     66  C   UNL     1      10.338   6.507  25.139  0.00  0.00    -0.000 C 
BRANCH  66  67
ATOM     67  C   UNL     1      10.276   6.066  23.703  0.00  0.00    -0.000 C 
BRANCH  67  68
ATOM     68  C   UNL     1      11.672   5.699  23.257  0.00  0.00    -0.000 C 
BRANCH  68  69
ATOM     69  C   UNL     1      11.913   4.232  23.535  0.00  0.00    -0.000 C 
BRANCH  69  70
ATOM     70  C   UNL     1      10.734   3.408  23.046  0.00  0.00    -0.000 C 
BRANCH  70  72
ATOM     71  C   UNL     1       9.382   1.935  24.546  0.00  0.00    +0.004 C 
ATOM     72  C   UNL     1      10.683   2.074  23.774  0.00  0.00    -0.003 C 
ENDBRANCH  70  72
ENDBRANCH  69  70
ENDBRANCH  68  69
ENDBRANCH  67  68
ENDBRANCH  66  67
ENDBRANCH  65  66
ENDBRANCH  64  65
ENDBRANCH  63  64
ENDBRANCH  62  63
ENDBRANCH  61  62
ENDBRANCH  60  61
ENDBRANCH  58  60
ENDBRANCH  57  58
ENDBRANCH  56  57
ENDBRANCH  55  56
ENDBRANCH  54  55
ENDBRANCH  50  54
ENDBRANCH  49  52
ENDBRANCH  48  49
ENDBRANCH  44  48
ENDBRANCH  43  46
BRANCH  43  73
ATOM     73  O   UNL     1       3.170   0.563  26.396  0.00  0.00    -0.382 OA
ATOM     74  H   UNL     1       3.350  -0.346  26.081  0.00  0.00    +0.210 HD
ENDBRANCH  43  73
ENDBRANCH  40  43
ENDBRANCH  39  40
ENDBRANCH   1  39
TORSDOF 39
ENDMDL
MODEL 2
REMARK VINA RESULT:      -4.7      1.757      3.149
REMARK  Name = 
REMARK  42 active torsions:
REMARK  status: ('A' for Active; 'I' for Inactive)
REMARK    1  A    between atoms: C_1  and  C_2
REMARK    2  A    between atoms: C_2  and  C_3
REMARK    3  A    between atoms: C_3  and  C_4
REMARK    4  A    between atoms: C_4  and  C_5
REMARK    5  A    between atoms: C_5  and  C_6
REMARK    6  A    between atoms: C_6  and  C_7
REMARK    7  A    between atoms: C_7  and  C_8
REMARK    8  A    between atoms: C_8  and  C_9
REMARK    9  A    between atoms: C_9  and  C_10
REMARK   10  A    between atoms: C_10  and  C_11
REMARK   11  A    between atoms: C_11  and  C_12
REMARK   12  A    between atoms: C_12  and  C_13
REMARK   13  A    between atoms: C_13  and  C_14
REMARK   14  A    between atoms: C_14  and  C_16
REMARK   15  A    between atoms: C_16  and  S_17
REMARK   16  A    between atoms: S_17  and  C_18
REMARK   17  A    between atoms: C_18  and  C_19
REMARK   18  A    between atoms: C_19  and  N_20
REMARK   19  A    between atoms: C_21  and  C_23
REMARK   20  A    between atoms: C_23  and  C_24
REMARK   21  A    between atoms: C_24  and  N_25
REMARK   22  A    between atoms: C_26  and  C_28
REMARK   23  A    between atoms: C_28  and  O_30
REMARK   24  A    between atoms: C_28  and  C_31
REMARK   25  A    between atoms: C_31  and  C_32
REMARK   26  A    between atoms: C_31  and  C_33
REMARK   27  A    between atoms: C_31  and  C_34
REMARK   28  A    between atoms: C_34  and  O_35
REMARK   29  A    between atoms: O_35  and  P_36
REMARK   30  A    between atoms: P_36  and  O_37
REMARK   31  A    between atoms: P_36  and  O_39
REMARK   32  A    between atoms: O_39  and  P_40
REMARK   33  A    between atoms: P_40  and  O_41
REMARK   34  A    between atoms: P_40  and  O_43
REMARK   35  A    between atoms: O_43  and  C_44
REMARK   36  A    between atoms: C_44  and  C_45
REMARK   37  A    between atoms: C_48  and  N_60
REMARK   38  A    between atoms: C_50  and  O_52
REMARK   39  A    between atoms: C_53  and  O_55
REMARK   40  A    between atoms: O_55  and  P_56
REMARK   41  A    between atoms: P_56  and  O_57
REMARK   42  A    between atoms: P_56  and  O_58
REMARK                            x       y       z     vdW  Elec       q    Type
REMARK                         _______ _______ _______ _____ _____    ______ ____
ROOT
ATOM      1  O   UNL     1       4.551  -0.526  27.545  0.00  0.00    -0.286 OA
ENDROOT
BRANCH   1   2
ATOM      2  P   UNL     1       3.535  -1.763  27.816  0.00  0.00    +0.483 P 
ATOM      3  O   UNL     1       2.324  -1.268  28.603  0.00  0.00    -0.227 OA
BRANCH   2   4
ATOM      4  O   UNL     1       2.730  -1.246  26.375  0.00  0.00    -0.302 OA
ATOM      5  H   UNL     1       1.793  -1.467  26.568  0.00  0.00    +0.222 HD
ENDBRANCH   2   4
BRANCH   2   6
ATOM      6  O   UNL     1       4.342  -2.279  29.257  0.00  0.00    -0.186 OA
BRANCH   6   7
ATOM      7  P   UNL     1       4.141  -3.954  28.887  0.00  0.00    +0.483 P 
ATOM      8  O   UNL     1       3.071  -4.251  27.872  0.00  0.00    -0.227 OA
BRANCH   7   9
ATOM      9  O   UNL     1       3.623  -4.536  30.286  0.00  0.00    -0.302 OA
ATOM     10  H   UNL     1       2.911  -5.193  30.157  0.00  0.00    +0.222 HD
ENDBRANCH   7   9
BRANCH   7  11
ATOM     11  O   UNL     1       5.443  -4.896  28.577  0.00  0.00    -0.284 OA
BRANCH  11  12
ATOM     12  C   UNL     1       5.262  -6.158  27.865  0.00  0.00    +0.206 C 
BRANCH  12  13
ATOM     13  C   UNL     1       5.372  -6.356  26.263  0.00  0.00    +0.179 C 
ATOM     14  C   UNL     1       4.105  -6.090  25.422  0.00  0.00    +0.194 C 
ATOM     15  C   UNL     1       4.330  -4.832  24.570  0.00  0.00    +0.196 C 
ATOM     16  C   UNL     1       5.686  -4.339  24.997  0.00  0.00    +0.253 C 
ATOM     17  O   UNL     1       6.363  -5.393  25.731  0.00  0.00    -0.346 OA
BRANCH  16  18
ATOM     18  N   UNL     1       6.527  -3.671  23.999  0.00  0.00    -0.286 N 
ATOM     19  C   UNL     1       7.528  -2.753  24.308  0.00  0.00    +0.167 A 
ATOM     20  N   UNL     1       7.756  -2.153  25.510  0.00  0.00    -0.216 NA
ATOM     21  C   UNL     1       8.878  -1.387  25.435  0.00  0.00    +0.225 A 
ATOM     22  N   UNL     1       9.715  -1.173  24.398  0.00  0.00    -0.219 NA
ATOM     23  C   UNL     1       9.460  -1.834  23.240  0.00  0.00    +0.147 A 
ATOM     24  N   UNL     1      10.355  -1.690  22.190  0.00  0.00    -0.341 N 
ATOM     25  H   UNL     1      10.006  -2.003  21.278  0.00  0.00    +0.144 HD
ATOM     26  H   UNL     1      10.901  -0.863  22.221  0.00  0.00    +0.144 HD
ATOM     27  C   UNL     1       8.316  -2.661  23.172  0.00  0.00    +0.147 A 
ATOM     28  N   UNL     1       7.815  -3.482  22.176  0.00  0.00    -0.231 NA
ATOM     29  C   UNL     1       6.787  -4.108  22.721  0.00  0.00    +0.203 A 
ENDBRANCH  16  18
BRANCH  15  30
ATOM     30  O   UNL     1       3.285  -3.895  24.885  0.00  0.00    -0.385 OA
ATOM     31  H   UNL     1       2.426  -4.323  24.674  0.00  0.00    +0.210 HD
ENDBRANCH  15  30
BRANCH  14  32
ATOM     32  O   UNL     1       3.858  -7.166  24.517  0.00  0.00    -0.278 OA
BRANCH  32  33
ATOM     33  P   UNL     1       2.381  -7.810  24.526  0.00  0.00    +0.473 P 
ATOM     34  O   UNL     1       1.296  -6.975  25.109  0.00  0.00    -0.228 OA
BRANCH  33  35
ATOM     35  O   UNL     1       2.155  -8.186  22.997  0.00  0.00    -0.303 OA
ATOM     36  H   UNL     1       2.606  -9.015  22.761  0.00  0.00    +0.222 HD
ENDBRANCH  33  35
BRANCH  33  37
ATOM     37  O   UNL     1       2.584  -9.223  25.234  0.00  0.00    -0.303 OA
ATOM     38  H   UNL     1       2.119  -9.938  24.755  0.00  0.00    +0.222 HD
ENDBRANCH  33  37
ENDBRANCH  32  33
ENDBRANCH  14  32
ENDBRANCH  12  13
ENDBRANCH  11  12
ENDBRANCH   7  11
ENDBRANCH   6   7
ENDBRANCH   2   6
ENDBRANCH   1   2
BRANCH   1  39
ATOM     39  C   UNL     1       4.007   0.644  26.850  0.00  0.00    +0.181 C 
BRANCH  39  40
ATOM     40  C   UNL     1       4.885   1.811  27.274  0.00  0.00    +0.024 C 
ATOM     41  C   UNL     1       4.255   3.059  26.580  0.00  0.00    +0.016 C 
ATOM     42  C   UNL     1       4.776   1.623  28.797  0.00  0.00    +0.016 C 
BRANCH  40  43
ATOM     43  C   UNL     1       6.385   1.909  26.891  0.00  0.00    +0.208 C 
BRANCH  43  46
ATOM     44  N   UNL     1       7.267   3.954  26.028  0.00  0.00    -0.313 N 
ATOM     45  H   UNL     1       6.908   3.559  25.163  0.00  0.00    +0.149 HD
ATOM     46  C   UNL     1       6.980   3.268  27.175  0.00  0.00    +0.242 C 
ATOM     47  O   UNL     1       7.220   3.651  28.310  0.00  0.00    -0.273 OA
BRANCH  44  48
ATOM     48  C   UNL     1       8.329   4.899  25.954  0.00  0.00    +0.113 C 
BRANCH  48  49
ATOM     49  C   UNL     1       8.058   6.290  25.378  0.00  0.00    +0.114 C 
BRANCH  49  52
ATOM     50  N   UNL     1       5.615   6.722  25.319  0.00  0.00    -0.314 N 
ATOM     51  H   UNL     1       5.804   7.192  26.195  0.00  0.00    +0.149 HD
ATOM     52  C   UNL     1       6.771   6.546  24.584  0.00  0.00    +0.215 C 
ATOM     53  O   UNL     1       6.808   6.762  23.382  0.00  0.00    -0.276 OA
BRANCH  50  54
ATOM     54  C   UNL     1       4.320   7.108  24.752  0.00  0.00    +0.115 C 
BRANCH  54  55
ATOM     55  C   UNL     1       3.015   6.515  25.286  0.00  0.00    +0.088 C 
BRANCH  55  56
ATOM     56  S   UNL     1       1.660   6.142  24.154  0.00  0.00    -0.152 S 
BRANCH  56  57
ATOM     57  C   UNL     1       1.470   4.322  24.285  0.00  0.00    +0.143 C 
BRANCH  57  58
ATOM     58  C   UNL     1       1.934   3.770  22.947  0.00  0.00    +0.143 C 
ATOM     59  O   UNL     1       1.655   2.624  22.570  0.00  0.00    -0.297 OA
BRANCH  58  60
ATOM     60  C   UNL     1       2.923   4.498  22.115  0.00  0.00    +0.075 C 
BRANCH  60  61
ATOM     61  C   UNL     1       4.005   3.457  22.239  0.00  0.00    +0.008 C 
BRANCH  61  62
ATOM     62  C   UNL     1       5.117   3.775  23.147  0.00  0.00    +0.000 C 
BRANCH  62  63
ATOM     63  C   UNL     1       6.288   3.079  22.488  0.00  0.00    +0.000 C 
BRANCH  63  64
ATOM     64  C   UNL     1       6.242   1.677  22.965  0.00  0.00    +0.000 C 
BRANCH  64  65
ATOM     65  C   UNL     1       7.526   0.985  22.615  0.00  0.00    +0.000 C 
BRANCH  65  66
ATOM     66  C   UNL     1       8.323   1.998  21.840  0.00  0.00    -0.000 C 
BRANCH  66  67
ATOM     67  C   UNL     1       9.776   1.870  22.202  0.00  0.00    -0.000 C 
BRANCH  67  68
ATOM     68  C   UNL     1      10.060   2.790  23.366  0.00  0.00    -0.000 C 
BRANCH  68  69
ATOM     69  C   UNL     1      11.270   3.640  23.045  0.00  0.00    -0.000 C 
BRANCH  69  70
ATOM     70  C   UNL     1      11.126   5.012  23.679  0.00  0.00    -0.000 C 
BRANCH  70  72
ATOM     71  C   UNL     1      13.189   5.575  22.385  0.00  0.00    +0.004 C 
ATOM     72  C   UNL     1      12.472   5.721  23.716  0.00  0.00    -0.003 C 
ENDBRANCH  70  72
ENDBRANCH  69  70
ENDBRANCH  68  69
ENDBRANCH  67  68
ENDBRANCH  66  67
ENDBRANCH  65  66
ENDBRANCH  64  65
ENDBRANCH  63  64
ENDBRANCH  62  63
ENDBRANCH  61  62
ENDBRANCH  60  61
ENDBRANCH  58  60
ENDBRANCH  57  58
ENDBRANCH  56  57
ENDBRANCH  55  56
ENDBRANCH  54  55
ENDBRANCH  50  54
ENDBRANCH  49  52
ENDBRANCH  48  49
ENDBRANCH  44  48
ENDBRANCH  43  46
BRANCH  43  73
ATOM     73  O   UNL     1       7.190   0.922  27.513  0.00  0.00    -0.382 OA
ATOM     74  H   UNL     1       7.318   0.245  26.818  0.00  0.00    +0.210 HD
ENDBRANCH  43  73
ENDBRANCH  40  43
ENDBRANCH  39  40
ENDBRANCH   1  39
TORSDOF 39
ENDMDL
MODEL 3
REMARK VINA RESULT:      -4.7      2.945      6.175
REMARK  Name = 
REMARK  42 active torsions:
REMARK  status: ('A' for Active; 'I' for Inactive)
REMARK    1  A    between atoms: C_1  and  C_2
REMARK    2  A    between atoms: C_2  and  C_3
REMARK    3  A    between atoms: C_3  and  C_4
REMARK    4  A    between atoms: C_4  and  C_5
REMARK    5  A    between atoms: C_5  and  C_6
REMARK    6  A    between atoms: C_6  and  C_7
REMARK    7  A    between atoms: C_7  and  C_8
REMARK    8  A    between atoms: C_8  and  C_9
REMARK    9  A    between atoms: C_9  and  C_10
REMARK   10  A    between atoms: C_10  and  C_11
REMARK   11  A    between atoms: C_11  and  C_12
REMARK   12  A    between atoms: C_12  and  C_13
REMARK   13  A    between atoms: C_13  and  C_14
REMARK   14  A    between atoms: C_14  and  C_16
REMARK   15  A    between atoms: C_16  and  S_17
REMARK   16  A    between atoms: S_17  and  C_18
REMARK   17  A    between atoms: C_18  and  C_19
REMARK   18  A    between atoms: C_19  and  N_20
REMARK   19  A    between atoms: C_21  and  C_23
REMARK   20  A    between atoms: C_23  and  C_24
REMARK   21  A    between atoms: C_24  and  N_25
REMARK   22  A    between atoms: C_26  and  C_28
REMARK   23  A    between atoms: C_28  and  O_30
REMARK   24  A    between atoms: C_28  and  C_31
REMARK   25  A    between atoms: C_31  and  C_32
REMARK   26  A    between atoms: C_31  and  C_33
REMARK   27  A    between atoms: C_31  and  C_34
REMARK   28  A    between atoms: C_34  and  O_35
REMARK   29  A    between atoms: O_35  and  P_36
REMARK   30  A    between atoms: P_36  and  O_37
REMARK   31  A    between atoms: P_36  and  O_39
REMARK   32  A    between atoms: O_39  and  P_40
REMARK   33  A    between atoms: P_40  and  O_41
REMARK   34  A    between atoms: P_40  and  O_43
REMARK   35  A    between atoms: O_43  and  C_44
REMARK   36  A    between atoms: C_44  and  C_45
REMARK   37  A    between atoms: C_48  and  N_60
REMARK   38  A    between atoms: C_50  and  O_52
REMARK   39  A    between atoms: C_53  and  O_55
REMARK   40  A    between atoms: O_55  and  P_56
REMARK   41  A    between atoms: P_56  and  O_57
REMARK   42  A    between atoms: P_56  and  O_58
REMARK                            x       y       z     vdW  Elec       q    Type
REMARK                         _______ _______ _______ _____ _____    ______ ____
ROOT
ATOM      1  O   UNL     1       3.669  -5.487  25.353  0.00  0.00    -0.286 OA
ENDROOT
BRANCH   1   2
ATOM      2  P   UNL     1       3.776  -4.820  23.877  0.00  0.00    +0.483 P 
ATOM      3  O   UNL     1       2.654  -5.356  22.991  0.00  0.00    -0.227 OA
BRANCH   2   4
ATOM      4  O   UNL     1       2.656  -3.643  24.471  0.00  0.00    -0.302 OA
ATOM      5  H   UNL     1       2.669  -3.810  25.438  0.00  0.00    +0.222 HD
ENDBRANCH   2   4
BRANCH   2   6
ATOM      6  O   UNL     1       4.896  -5.998  23.284  0.00  0.00    -0.186 OA
BRANCH   6   7
ATOM      7  P   UNL     1       6.261  -5.181  23.957  0.00  0.00    +0.483 P 
ATOM      8  O   UNL     1       7.531  -5.312  23.160  0.00  0.00    -0.227 OA
BRANCH   7   9
ATOM      9  O   UNL     1       6.486  -5.994  25.319  0.00  0.00    -0.302 OA
ATOM     10  H   UNL     1       7.411  -5.920  25.629  0.00  0.00    +0.222 HD
ENDBRANCH   7   9
BRANCH   7  11
ATOM     11  O   UNL     1       6.125  -3.640  24.489  0.00  0.00    -0.284 OA
BRANCH  11  12
ATOM     12  C   UNL     1       7.003  -3.168  25.555  0.00  0.00    +0.206 C 
BRANCH  12  13
ATOM     13  C   UNL     1       7.946  -1.854  25.483  0.00  0.00    +0.179 C 
ATOM     14  C   UNL     1       7.670  -0.838  24.355  0.00  0.00    +0.194 C 
ATOM     15  C   UNL     1       7.124   0.456  24.975  0.00  0.00    +0.196 C 
ATOM     16  C   UNL     1       7.008   0.137  26.442  0.00  0.00    +0.253 C 
ATOM     17  O   UNL     1       7.764  -1.069  26.725  0.00  0.00    -0.346 OA
BRANCH  16  18
ATOM     18  N   UNL     1       7.229   1.220  27.406  0.00  0.00    -0.286 N 
ATOM     19  C   UNL     1       6.868   2.548  27.186  0.00  0.00    +0.167 A 
ATOM     20  N   UNL     1       6.475   3.113  26.010  0.00  0.00    -0.216 NA
ATOM     21  C   UNL     1       6.123   4.410  26.220  0.00  0.00    +0.225 A 
ATOM     22  N   UNL     1       6.121   5.136  27.358  0.00  0.00    -0.219 NA
ATOM     23  C   UNL     1       6.482   4.505  28.504  0.00  0.00    +0.147 A 
ATOM     24  N   UNL     1       6.407   5.212  29.695  0.00  0.00    -0.341 N 
ATOM     25  H   UNL     1       6.907   4.786  30.483  0.00  0.00    +0.144 HD
ATOM     26  H   UNL     1       6.449   6.198  29.596  0.00  0.00    +0.144 HD
ATOM     27  C   UNL     1       6.882   3.151  28.434  0.00  0.00    +0.147 A 
ATOM     28  N   UNL     1       7.256   2.235  29.402  0.00  0.00    -0.231 NA
ATOM     29  C   UNL     1       7.399   1.087  28.764  0.00  0.00    +0.203 A 
ENDBRANCH  16  18
BRANCH  15  30
ATOM     30  O   UNL     1       5.846   0.728  24.375  0.00  0.00    -0.385 OA
ATOM     31  H   UNL     1       5.249   1.063  25.081  0.00  0.00    +0.210 HD
ENDBRANCH  15  30
BRANCH  14  32
ATOM     32  O   UNL     1       8.874  -0.495  23.670  0.00  0.00    -0.278 OA
BRANCH  32  33
ATOM     33  P   UNL     1       9.362  -1.487  22.499  0.00  0.00    +0.473 P 
ATOM     34  O   UNL     1      10.593  -2.280  22.770  0.00  0.00    -0.228 OA
BRANCH  33  35
ATOM     35  O   UNL     1       8.069  -2.375  22.233  0.00  0.00    -0.303 OA
ATOM     36  H   UNL     1       7.251  -1.868  22.373  0.00  0.00    +0.222 HD
ENDBRANCH  33  35
BRANCH  33  37
ATOM     37  O   UNL     1       9.446  -0.550  21.212  0.00  0.00    -0.303 OA
ATOM     38  H   UNL     1      10.117   0.153  21.320  0.00  0.00    +0.222 HD
ENDBRANCH  33  37
ENDBRANCH  32  33
ENDBRANCH  14  32
ENDBRANCH  12  13
ENDBRANCH  11  12
ENDBRANCH   7  11
ENDBRANCH   6   7
ENDBRANCH   2   6
ENDBRANCH   1   2
BRANCH   1  39
ATOM     39  C   UNL     1       2.835  -6.685  25.484  0.00  0.00    +0.181 C 
BRANCH  39  40
ATOM     40  C   UNL     1       2.192  -6.581  26.859  0.00  0.00    +0.024 C 
ATOM     41  C   UNL     1       1.249  -7.822  26.954  0.00  0.00    +0.016 C 
ATOM     42  C   UNL     1       3.480  -6.511  27.697  0.00  0.00    +0.016 C 
BRANCH  40  43
ATOM     43  C   UNL     1       1.271  -5.400  27.262  0.00  0.00    +0.208 C 
BRANCH  43  46
ATOM     44  N   UNL     1       2.512  -3.360  27.283  0.00  0.00    -0.313 N 
ATOM     45  H   UNL     1       2.230  -3.363  26.307  0.00  0.00    +0.149 HD
ATOM     46  C   UNL     1       1.985  -4.345  28.073  0.00  0.00    +0.242 C 
ATOM     47  O   UNL     1       2.112  -4.426  29.285  0.00  0.00    -0.273 OA
BRANCH  44  48
ATOM     48  C   UNL     1       3.683  -2.639  27.650  0.00  0.00    +0.113 C 
BRANCH  48  49
ATOM     49  C   UNL     1       4.028  -1.343  26.915  0.00  0.00    +0.114 C 
BRANCH  49  52
ATOM     50  N   UNL     1       3.726   1.116  26.760  0.00  0.00    -0.314 N 
ATOM     51  H   UNL     1       4.307   1.009  25.938  0.00  0.00    +0.149 HD
ATOM     52  C   UNL     1       3.173  -0.090  27.144  0.00  0.00    +0.215 C 
ATOM     53  O   UNL     1       2.001  -0.182  27.477  0.00  0.00    -0.276 OA
BRANCH  50  54
ATOM     54  C   UNL     1       3.016   2.398  26.772  0.00  0.00    +0.115 C 
BRANCH  54  55
ATOM     55  C   UNL     1       2.287   2.909  25.528  0.00  0.00    +0.088 C 
BRANCH  55  56
ATOM     56  S   UNL     1       3.221   3.348  24.048  0.00  0.00    -0.152 S 
BRANCH  56  57
ATOM     57  C   UNL     1       2.638   5.041  23.649  0.00  0.00    +0.143 C 
BRANCH  57  58
ATOM     58  C   UNL     1       3.737   5.657  22.797  0.00  0.00    +0.143 C 
ATOM     59  O   UNL     1       3.496   6.455  21.882  0.00  0.00    -0.297 OA
BRANCH  58  60
ATOM     60  C   UNL     1       5.135   5.172  22.878  0.00  0.00    +0.075 C 
BRANCH  60  61
ATOM     61  C   UNL     1       5.746   6.399  22.254  0.00  0.00    +0.008 C 
BRANCH  61  62
ATOM     62  C   UNL     1       7.203   6.379  22.059  0.00  0.00    +0.000 C 
BRANCH  62  63
ATOM     63  C   UNL     1       7.727   6.486  23.474  0.00  0.00    +0.000 C 
BRANCH  63  64
ATOM     64  C   UNL     1       9.203   6.550  23.353  0.00  0.00    +0.000 C 
BRANCH  64  65
ATOM     65  C   UNL     1       9.816   6.633  24.719  0.00  0.00    +0.000 C 
BRANCH  65  66
ATOM     66  C   UNL     1      11.226   6.141  24.552  0.00  0.00    -0.000 C 
BRANCH  66  67
ATOM     67  C   UNL     1      11.405   5.605  23.159  0.00  0.00    -0.000 C 
BRANCH  67  68
ATOM     68  C   UNL     1      12.043   4.239  23.252  0.00  0.00    -0.000 C 
BRANCH  68  69
ATOM     69  C   UNL     1      11.015   3.243  23.743  0.00  0.00    -0.000 C 
BRANCH  69  70
ATOM     70  C   UNL     1      10.130   2.798  22.591  0.00  0.00    -0.000 C 
BRANCH  70  72
ATOM     71  C   UNL     1       7.772   2.450  21.840  0.00  0.00    +0.004 C 
ATOM     72  C   UNL     1       8.663   2.937  22.969  0.00  0.00    -0.003 C 
ENDBRANCH  70  72
ENDBRANCH  69  70
ENDBRANCH  68  69
ENDBRANCH  67  68
ENDBRANCH  66  67
ENDBRANCH  65  66
ENDBRANCH  64  65
ENDBRANCH  63  64
ENDBRANCH  62  63
ENDBRANCH  61  62
ENDBRANCH  60  61
ENDBRANCH  58  60
ENDBRANCH  57  58
ENDBRANCH  56  57
ENDBRANCH  55  56
ENDBRANCH  54  55
ENDBRANCH  50  54
ENDBRANCH  49  52
ENDBRANCH  48  49
ENDBRANCH  44  48
ENDBRANCH  43  46
BRANCH  43  73
ATOM     73  O   UNL     1       0.641  -4.775  26.156  0.00  0.00    -0.382 OA
ATOM     74  H   UNL     1       1.353  -4.243  25.746  0.00  0.00    +0.210 HD
ENDBRANCH  43  73
ENDBRANCH  40  43
ENDBRANCH  39  40
ENDBRANCH   1  39
TORSDOF 39
ENDMDL
MODEL 4
REMARK VINA RESULT:      -4.2      3.889      9.511
REMARK  Name = 
REMARK  42 active torsions:
REMARK  status: ('A' for Active; 'I' for Inactive)
REMARK    1  A    between atoms: C_1  and  C_2
REMARK    2  A    between atoms: C_2  and  C_3
REMARK    3  A    between atoms: C_3  and  C_4
REMARK    4  A    between atoms: C_4  and  C_5
REMARK    5  A    between atoms: C_5  and  C_6
REMARK    6  A    between atoms: C_6  and  C_7
REMARK    7  A    between atoms: C_7  and  C_8
REMARK    8  A    between atoms: C_8  and  C_9
REMARK    9  A    between atoms: C_9  and  C_10
REMARK   10  A    between atoms: C_10  and  C_11
REMARK   11  A    between atoms: C_11  and  C_12
REMARK   12  A    between atoms: C_12  and  C_13
REMARK   13  A    between atoms: C_13  and  C_14
REMARK   14  A    between atoms: C_14  and  C_16
REMARK   15  A    between atoms: C_16  and  S_17
REMARK   16  A    between atoms: S_17  and  C_18
REMARK   17  A    between atoms: C_18  and  C_19
REMARK   18  A    between atoms: C_19  and  N_20
REMARK   19  A    between atoms: C_21  and  C_23
REMARK   20  A    between atoms: C_23  and  C_24
REMARK   21  A    between atoms: C_24  and  N_25
REMARK   22  A    between atoms: C_26  and  C_28
REMARK   23  A    between atoms: C_28  and  O_30
REMARK   24  A    between atoms: C_28  and  C_31
REMARK   25  A    between atoms: C_31  and  C_32
REMARK   26  A    between atoms: C_31  and  C_33
REMARK   27  A    between atoms: C_31  and  C_34
REMARK   28  A    between atoms: C_34  and  O_35
REMARK   29  A    between atoms: O_35  and  P_36
REMARK   30  A    between atoms: P_36  and  O_37
REMARK   31  A    between atoms: P_36  and  O_39
REMARK   32  A    between atoms: O_39  and  P_40
REMARK   33  A    between atoms: P_40  and  O_41
REMARK   34  A    between atoms: P_40  and  O_43
REMARK   35  A    between atoms: O_43  and  C_44
REMARK   36  A    between atoms: C_44  and  C_45
REMARK   37  A    between atoms: C_48  and  N_60
REMARK   38  A    between atoms: C_50  and  O_52
REMARK   39  A    between atoms: C_53  and  O_55
REMARK   40  A    between atoms: O_55  and  P_56
REMARK   41  A    between atoms: P_56  and  O_57
REMARK   42  A    between atoms: P_56  and  O_58
REMARK                            x       y       z     vdW  Elec       q    Type
REMARK                         _______ _______ _______ _____ _____    ______ ____
ROOT
ATOM      1  O   UNL     1       9.090  -1.927  23.994  0.00  0.00    -0.286 OA
ENDROOT
BRANCH   1   2
ATOM      2  P   UNL     1       9.332  -0.983  22.696  0.00  0.00    +0.483 P 
ATOM      3  O   UNL     1      10.527  -1.502  21.901  0.00  0.00    -0.227 OA
BRANCH   2   4
ATOM      4  O   UNL     1       8.351  -2.125  21.845  0.00  0.00    -0.302 OA
ATOM      5  H   UNL     1       7.647  -2.325  22.498  0.00  0.00    +0.222 HD
ENDBRANCH   2   4
BRANCH   2   6
ATOM      6  O   UNL     1      10.313   0.160  23.549  0.00  0.00    -0.186 OA
BRANCH   6   7
ATOM      7  P   UNL     1       9.043   1.327  23.643  0.00  0.00    +0.483 P 
ATOM      8  O   UNL     1       9.057   2.176  24.886  0.00  0.00    -0.227 OA
BRANCH   7   9
ATOM      9  O   UNL     1       7.748   0.390  23.739  0.00  0.00    -0.302 OA
ATOM     10  H   UNL     1       7.995  -0.549  23.850  0.00  0.00    +0.222 HD
ENDBRANCH   7   9
BRANCH   7  11
ATOM     11  O   UNL     1       8.694   2.276  22.357  0.00  0.00    -0.284 OA
BRANCH  11  12
ATOM     12  C   UNL     1       7.299   2.559  22.031  0.00  0.00    +0.206 C 
BRANCH  12  13
ATOM     13  C   UNL     1       6.483   3.886  22.472  0.00  0.00    +0.179 C 
ATOM     14  C   UNL     1       4.996   3.717  22.851  0.00  0.00    +0.194 C 
ATOM     15  C   UNL     1       4.835   3.978  24.355  0.00  0.00    +0.196 C 
ATOM     16  C   UNL     1       6.242   4.204  24.840  0.00  0.00    +0.253 C 
ATOM     17  O   UNL     1       7.104   4.441  23.696  0.00  0.00    -0.346 OA
BRANCH  16  18
ATOM     18  N   UNL     1       6.450   5.140  25.949  0.00  0.00    -0.286 N 
ATOM     19  C   UNL     1       6.050   4.899  27.261  0.00  0.00    +0.167 A 
ATOM     20  N   UNL     1       5.228   3.907  27.705  0.00  0.00    -0.216 NA
ATOM     21  C   UNL     1       5.147   3.950  29.063  0.00  0.00    +0.225 A 
ATOM     22  N   UNL     1       5.736   4.790  29.941  0.00  0.00    -0.219 NA
ATOM     23  C   UNL     1       6.578   5.729  29.441  0.00  0.00    +0.147 A 
ATOM     24  N   UNL     1       7.255   6.547  30.334  0.00  0.00    -0.341 N 
ATOM     25  H   UNL     1       7.683   7.381  29.918  0.00  0.00    +0.144 HD
ATOM     26  H   UNL     1       6.822   6.639  31.221  0.00  0.00    +0.144 HD
ATOM     27  C   UNL     1       6.751   5.806  28.040  0.00  0.00    +0.147 A 
ATOM     28  N   UNL     1       7.553   6.602  27.240  0.00  0.00    -0.231 NA
ATOM     29  C   UNL     1       7.391   6.141  26.012  0.00  0.00    +0.203 A 
ENDBRANCH  16  18
BRANCH  15  30
ATOM     30  O   UNL     1       4.238   2.808  24.943  0.00  0.00    -0.385 OA
ATOM     31  H   UNL     1       4.228   2.937  25.918  0.00  0.00    +0.210 HD
ENDBRANCH  15  30
BRANCH  14  32
ATOM     32  O   UNL     1       4.184   4.676  22.173  0.00  0.00    -0.278 OA
BRANCH  32  33
ATOM     33  P   UNL     1       2.663   4.256  21.854  0.00  0.00    +0.473 P 
ATOM     34  O   UNL     1       1.599   5.121  22.432  0.00  0.00    -0.228 OA
BRANCH  33  35
ATOM     35  O   UNL     1       2.646   4.189  20.264  0.00  0.00    -0.303 OA
ATOM     36  H   UNL     1       3.072   4.968  19.867  0.00  0.00    +0.222 HD
ENDBRANCH  33  35
BRANCH  33  37
ATOM     37  O   UNL     1       2.587   2.726  22.295  0.00  0.00    -0.303 OA
ATOM     38  H   UNL     1       3.015   2.139  21.640  0.00  0.00    +0.222 HD
ENDBRANCH  33  37
ENDBRANCH  32  33
ENDBRANCH  14  32
ENDBRANCH  12  13
ENDBRANCH  11  12
ENDBRANCH   7  11
ENDBRANCH   6   7
ENDBRANCH   2   6
ENDBRANCH   1   2
BRANCH   1  39
ATOM     39  C   UNL     1       9.167  -3.376  23.787  0.00  0.00    +0.181 C 
BRANCH  39  40
ATOM     40  C   UNL     1       8.235  -3.982  24.825  0.00  0.00    +0.024 C 
ATOM     41  C   UNL     1       6.809  -3.500  24.412  0.00  0.00    +0.016 C 
ATOM     42  C   UNL     1       8.644  -5.455  24.652  0.00  0.00    +0.016 C 
BRANCH  40  43
ATOM     43  C   UNL     1       8.313  -3.618  26.331  0.00  0.00    +0.208 C 
BRANCH  43  46
ATOM     44  N   UNL     1       7.869  -1.281  26.543  0.00  0.00    -0.313 N 
ATOM     45  H   UNL     1       8.744  -1.230  26.029  0.00  0.00    +0.149 HD
ATOM     46  C   UNL     1       7.342  -2.530  26.726  0.00  0.00    +0.242 C 
ATOM     47  O   UNL     1       6.247  -2.774  27.208  0.00  0.00    -0.273 OA
BRANCH  44  48
ATOM     48  C   UNL     1       7.489  -0.171  27.350  0.00  0.00    +0.113 C 
BRANCH  48  49
ATOM     49  C   UNL     1       6.456   0.824  26.820  0.00  0.00    +0.114 C 
BRANCH  49  52
ATOM     50  N   UNL     1       4.041   0.935  27.379  0.00  0.00    -0.314 N 
ATOM     51  H   UNL     1       4.265   1.895  27.603  0.00  0.00    +0.149 HD
ATOM     52  C   UNL     1       5.012   0.366  26.579  0.00  0.00    +0.215 C 
ATOM     53  O   UNL     1       4.726  -0.325  25.613  0.00  0.00    -0.276 OA
BRANCH  50  54
ATOM     54  C   UNL     1       2.600   0.727  27.211  0.00  0.00    +0.115 C 
BRANCH  54  55
ATOM     55  C   UNL     1       1.624   0.995  28.359  0.00  0.00    +0.088 C 
BRANCH  55  56
ATOM     56  S   UNL     1       1.788   0.097  29.915  0.00  0.00    -0.152 S 
BRANCH  56  57
ATOM     57  C   UNL     1       1.935  -1.656  29.395  0.00  0.00    +0.143 C 
BRANCH  57  58
ATOM     58  C   UNL     1       3.393  -2.024  29.622  0.00  0.00    +0.143 C 
ATOM     59  O   UNL     1       4.294  -1.175  29.647  0.00  0.00    -0.297 OA
BRANCH  58  60
ATOM     60  C   UNL     1       3.840  -3.438  29.613  0.00  0.00    +0.075 C 
BRANCH  60  61
ATOM     61  C   UNL     1       2.461  -4.022  29.774  0.00  0.00    +0.008 C 
BRANCH  61  62
ATOM     62  C   UNL     1       2.256  -5.375  29.235  0.00  0.00    +0.000 C 
BRANCH  62  63
ATOM     63  C   UNL     1       3.626  -5.727  28.700  0.00  0.00    +0.000 C 
BRANCH  63  64
ATOM     64  C   UNL     1       3.386  -6.525  27.474  0.00  0.00    +0.000 C 
BRANCH  64  65
ATOM     65  C   UNL     1       1.910  -6.711  27.278  0.00  0.00    +0.000 C 
BRANCH  65  66
ATOM     66  C   UNL     1       1.780  -7.672  26.130  0.00  0.00    -0.000 C 
BRANCH  66  67
ATOM     67  C   UNL     1       1.492  -6.907  24.869  0.00  0.00    -0.000 C 
BRANCH  67  68
ATOM     68  C   UNL     1       2.627  -7.140  23.900  0.00  0.00    -0.000 C 
BRANCH  68  69
ATOM     69  C   UNL     1       3.300  -5.820  23.597  0.00  0.00    -0.000 C 
BRANCH  69  70
ATOM     70  C   UNL     1       2.450  -4.671  24.112  0.00  0.00    -0.000 C 
BRANCH  70  72
ATOM     71  C   UNL     1       2.459  -3.080  26.040  0.00  0.00    +0.004 C 
ATOM     72  C   UNL     1       3.296  -3.722  24.948  0.00  0.00    -0.003 C 
ENDBRANCH  70  72
ENDBRANCH  69  70
ENDBRANCH  68  69
ENDBRANCH  67  68
ENDBRANCH  66  67
ENDBRANCH  65  66
ENDBRANCH  64  65
ENDBRANCH  63  64
ENDBRANCH  62  63
ENDBRANCH  61  62
ENDBRANCH  60  61
ENDBRANCH  58  60
ENDBRANCH  57  58
ENDBRANCH  56  57
ENDBRANCH  55  56
ENDBRANCH  54  55
ENDBRANCH  50  54
ENDBRANCH  49  52
ENDBRANCH  48  49
ENDBRANCH  44  48
ENDBRANCH  43  46
BRANCH  43  73
ATOM     73  O   UNL     1       8.121  -4.730  27.189  0.00  0.00    -0.382 OA
ATOM     74  H   UNL     1       8.801  -4.615  27.884  0.00  0.00    +0.210 HD
ENDBRANCH  43  73
ENDBRANCH  40  43
ENDBRANCH  39  40
ENDBRANCH   1  39
TORSDOF 39
ENDMDL
MODEL 5
REMARK VINA RESULT:      -4.2      2.699      5.743
REMARK  Name = 
REMARK  42 active torsions:
REMARK  status: ('A' for Active; 'I' for Inactive)
REMARK    1  A    between atoms: C_1  and  C_2
REMARK    2  A    between atoms: C_2  and  C_3
REMARK    3  A    between atoms: C_3  and  C_4
REMARK    4  A    between atoms: C_4  and  C_5
REMARK    5  A    between atoms: C_5  and  C_6
REMARK    6  A    between atoms: C_6  and  C_7
REMARK    7  A    between atoms: C_7  and  C_8
REMARK    8  A    between atoms: C_8  and  C_9
REMARK    9  A    between atoms: C_9  and  C_10
REMARK   10  A    between atoms: C_10  and  C_11
REMARK   11  A    between atoms: C_11  and  C_12
REMARK   12  A    between atoms: C_12  and  C_13
REMARK   13  A    between atoms: C_13  and  C_14
REMARK   14  A    between atoms: C_14  and  C_16
REMARK   15  A    between atoms: C_16  and  S_17
REMARK   16  A    between atoms: S_17  and  C_18
REMARK   17  A    between atoms: C_18  and  C_19
REMARK   18  A    between atoms: C_19  and  N_20
REMARK   19  A    between atoms: C_21  and  C_23
REMARK   20  A    between atoms: C_23  and  C_24
REMARK   21  A    between atoms: C_24  and  N_25
REMARK   22  A    between atoms: C_26  and  C_28
REMARK   23  A    between atoms: C_28  and  O_30
REMARK   24  A    between atoms: C_28  and  C_31
REMARK   25  A    between atoms: C_31  and  C_32
REMARK   26  A    between atoms: C_31  and  C_33
REMARK   27  A    between atoms: C_31  and  C_34
REMARK   28  A    between atoms: C_34  and  O_35
REMARK   29  A    between atoms: O_35  and  P_36
REMARK   30  A    between atoms: P_36  and  O_37
REMARK   31  A    between atoms: P_36  and  O_39
REMARK   32  A    between atoms: O_39  and  P_40
REMARK   33  A    between atoms: P_40  and  O_41
REMARK   34  A    between atoms: P_40  and  O_43
REMARK   35  A    between atoms: O_43  and  C_44
REMARK   36  A    between atoms: C_44  and  C_45
REMARK   37  A    between atoms: C_48  and  N_60
REMARK   38  A    between atoms: C_50  and  O_52
REMARK   39  A    between atoms: C_53  and  O_55
REMARK   40  A    between atoms: O_55  and  P_56
REMARK   41  A    between atoms: P_56  and  O_57
REMARK   42  A    between atoms: P_56  and  O_58
REMARK                            x       y       z     vdW  Elec       q    Type
REMARK                         _______ _______ _______ _____ _____    ______ ____
ROOT
ATOM      1  O   UNL     1       2.375  -6.372  25.746  0.00  0.00    -0.286 OA
ENDROOT
BRANCH   1   2
ATOM      2  P   UNL     1       2.258  -6.693  24.159  0.00  0.00    +0.483 P 
ATOM      3  O   UNL     1       1.384  -7.927  23.949  0.00  0.00    -0.227 OA
BRANCH   2   4
ATOM      4  O   UNL     1       0.806  -5.753  24.208  0.00  0.00    -0.302 OA
ATOM      5  H   UNL     1       0.492  -5.900  25.126  0.00  0.00    +0.222 HD
ENDBRANCH   2   4
BRANCH   2   6
ATOM      6  O   UNL     1       3.710  -7.633  24.111  0.00  0.00    -0.186 OA
BRANCH   6   7
ATOM      7  P   UNL     1       4.714  -6.248  23.869  0.00  0.00    +0.483 P 
ATOM      8  O   UNL     1       6.009  -6.525  23.154  0.00  0.00    -0.227 OA
BRANCH   7   9
ATOM      9  O   UNL     1       5.095  -5.857  25.376  0.00  0.00    -0.302 OA
ATOM     10  H   UNL     1       4.300  -5.813  25.944  0.00  0.00    +0.222 HD
ENDBRANCH   7   9
BRANCH   7  11
ATOM     11  O   UNL     1       4.078  -4.854  23.297  0.00  0.00    -0.284 OA
BRANCH  11  12
ATOM     12  C   UNL     1       4.958  -3.718  23.036  0.00  0.00    +0.206 C 
BRANCH  12  13
ATOM     13  C   UNL     1       5.739  -2.858  24.163  0.00  0.00    +0.179 C 
ATOM     14  C   UNL     1       7.149  -3.333  24.574  0.00  0.00    +0.194 C 
ATOM     15  C   UNL     1       8.181  -2.305  24.087  0.00  0.00    +0.196 C 
ATOM     16  C   UNL     1       7.361  -1.298  23.324  0.00  0.00    +0.253 C 
ATOM     17  O   UNL     1       5.958  -1.487  23.649  0.00  0.00    -0.346 OA
BRANCH  16  18
ATOM     18  N   UNL     1       7.794   0.103  23.341  0.00  0.00    -0.286 N 
ATOM     19  C   UNL     1       9.067   0.523  23.717  0.00  0.00    +0.167 A 
ATOM     20  N   UNL     1      10.033  -0.217  24.332  0.00  0.00    -0.216 NA
ATOM     21  C   UNL     1      11.168   0.523  24.455  0.00  0.00    +0.225 A 
ATOM     22  N   UNL     1      11.423   1.792  24.073  0.00  0.00    -0.219 NA
ATOM     23  C   UNL     1      10.436   2.462  23.427  0.00  0.00    +0.147 A 
ATOM     24  N   UNL     1      10.707   3.738  22.955  0.00  0.00    -0.341 N 
ATOM     25  H   UNL     1       9.881   4.288  22.696  0.00  0.00    +0.144 HD
ATOM     26  H   UNL     1      11.449   4.203  23.421  0.00  0.00    +0.144 HD
ATOM     27  C   UNL     1       9.193   1.817  23.237  0.00  0.00    +0.147 A 
ATOM     28  N   UNL     1       8.028   2.201  22.594  0.00  0.00    -0.231 NA
ATOM     29  C   UNL     1       7.242   1.140  22.626  0.00  0.00    +0.203 A 
ENDBRANCH  16  18
BRANCH  15  30
ATOM     30  O   UNL     1       9.122  -2.991  23.243  0.00  0.00    -0.385 OA
ATOM     31  H   UNL     1       9.576  -3.668  23.792  0.00  0.00    +0.210 HD
ENDBRANCH  15  30
BRANCH  14  32
ATOM     32  O   UNL     1       7.272  -3.403  25.994  0.00  0.00    -0.278 OA
BRANCH  32  33
ATOM     33  P   UNL     1       7.918  -4.743  26.611  0.00  0.00    +0.473 P 
ATOM     34  O   UNL     1       7.172  -5.390  27.725  0.00  0.00    -0.228 OA
BRANCH  33  35
ATOM     35  O   UNL     1       8.091  -5.669  25.328  0.00  0.00    -0.303 OA
ATOM     36  H   UNL     1       7.277  -6.165  25.131  0.00  0.00    +0.222 HD
ENDBRANCH  33  35
BRANCH  33  37
ATOM     37  O   UNL     1       9.412  -4.318  26.971  0.00  0.00    -0.303 OA
ATOM     38  H   UNL     1       9.686  -4.665  27.843  0.00  0.00    +0.222 HD
ENDBRANCH  33  37
ENDBRANCH  32  33
ENDBRANCH  14  32
ENDBRANCH  12  13
ENDBRANCH  11  12
ENDBRANCH   7  11
ENDBRANCH   6   7
ENDBRANCH   2   6
ENDBRANCH   1   2
BRANCH   1  39
ATOM     39  C   UNL     1       1.898  -7.403  26.671  0.00  0.00    +0.181 C 
BRANCH  39  40
ATOM     40  C   UNL     1       1.718  -6.696  28.006  0.00  0.00    +0.024 C 
ATOM     41  C   UNL     1       1.176  -7.797  28.971  0.00  0.00    +0.016 C 
ATOM     42  C   UNL     1       3.149  -6.154  28.160  0.00  0.00    +0.016 C 
BRANCH  40  43
ATOM     43  C   UNL     1       0.718  -5.526  28.203  0.00  0.00    +0.208 C 
BRANCH  43  46
ATOM     44  N   UNL     1       1.469  -3.326  28.749  0.00  0.00    -0.313 N 
ATOM     45  H   UNL     1       1.222  -3.171  27.776  0.00  0.00    +0.149 HD
ATOM     46  C   UNL     1       1.154  -4.550  29.270  0.00  0.00    +0.242 C 
ATOM     47  O   UNL     1       1.263  -4.871  30.444  0.00  0.00    -0.273 OA
BRANCH  44  48
ATOM     48  C   UNL     1       2.438  -2.472  29.349  0.00  0.00    +0.113 C 
BRANCH  48  49
ATOM     49  C   UNL     1       3.761  -2.214  28.626  0.00  0.00    +0.114 C 
BRANCH  49  52
ATOM     50  N   UNL     1       3.502  -0.159  27.259  0.00  0.00    -0.314 N 
ATOM     51  H   UNL     1       2.536  -0.457  27.221  0.00  0.00    +0.149 HD
ATOM     52  C   UNL     1       4.177  -0.776  28.294  0.00  0.00    +0.215 C 
ATOM     53  O   UNL     1       4.935  -0.157  29.026  0.00  0.00    -0.276 OA
BRANCH  50  54
ATOM     54  C   UNL     1       3.663   1.248  26.884  0.00  0.00    +0.115 C 
BRANCH  54  55
ATOM     55  C   UNL     1       2.587   2.283  27.220  0.00  0.00    +0.088 C 
BRANCH  55  56
ATOM     56  S   UNL     1       1.277   2.645  26.033  0.00  0.00    -0.152 S 
BRANCH  56  57
ATOM     57  C   UNL     1       1.933   4.069  25.080  0.00  0.00    +0.143 C 
BRANCH  57  58
ATOM     58  C   UNL     1       2.617   3.462  23.865  0.00  0.00    +0.143 C 
ATOM     59  O   UNL     1       2.006   2.773  23.037  0.00  0.00    -0.297 OA
BRANCH  58  60
ATOM     60  C   UNL     1       4.092   3.485  23.721  0.00  0.00    +0.075 C 
BRANCH  60  61
ATOM     61  C   UNL     1       4.218   4.985  23.796  0.00  0.00    +0.008 C 
BRANCH  61  62
ATOM     62  C   UNL     1       4.081   5.717  22.529  0.00  0.00    +0.000 C 
BRANCH  62  63
ATOM     63  C   UNL     1       4.546   7.108  22.900  0.00  0.00    +0.000 C 
BRANCH  63  64
ATOM     64  C   UNL     1       5.839   6.925  23.601  0.00  0.00    +0.000 C 
BRANCH  64  65
ATOM     65  C   UNL     1       6.956   6.929  22.600  0.00  0.00    +0.000 C 
BRANCH  65  66
ATOM     66  C   UNL     1       7.974   5.963  23.139  0.00  0.00    -0.000 C 
BRANCH  66  67
ATOM     67  C   UNL     1       9.043   6.724  23.873  0.00  0.00    -0.000 C 
BRANCH  67  68
ATOM     68  C   UNL     1       9.201   6.116  25.247  0.00  0.00    -0.000 C 
BRANCH  68  69
ATOM     69  C   UNL     1       8.357   4.863  25.337  0.00  0.00    -0.000 C 
BRANCH  69  70
ATOM     70  C   UNL     1       7.397   4.965  26.509  0.00  0.00    -0.000 C 
BRANCH  70  72
ATOM     71  C   UNL     1       7.249   2.471  26.413  0.00  0.00    +0.004 C 
ATOM     72  C   UNL     1       6.462   3.765  26.531  0.00  0.00    -0.003 C 
ENDBRANCH  70  72
ENDBRANCH  69  70
ENDBRANCH  68  69
ENDBRANCH  67  68
ENDBRANCH  66  67
ENDBRANCH  65  66
ENDBRANCH  64  65
ENDBRANCH  63  64
ENDBRANCH  62  63
ENDBRANCH  61  62
ENDBRANCH  60  61
ENDBRANCH  58  60
ENDBRANCH  57  58
ENDBRANCH  56  57
ENDBRANCH  55  56
ENDBRANCH  54  55
ENDBRANCH  50  54
ENDBRANCH  49  52
ENDBRANCH  48  49
ENDBRANCH  44  48
ENDBRANCH  43  46
BRANCH  43  73
ATOM     73  O   UNL     1       0.454  -4.806  27.010  0.00  0.00    -0.382 OA
ATOM     74  H   UNL     1       1.025  -5.235  26.341  0.00  0.00    +0.210 HD
ENDBRANCH  43  73
ENDBRANCH  40  43
ENDBRANCH  39  40
ENDBRANCH   1  39
TORSDOF 39
ENDMDL
MODEL 6
REMARK VINA RESULT:      -4.1      3.065      6.954
REMARK  Name = 
REMARK  42 active torsions:
REMARK  status: ('A' for Active; 'I' for Inactive)
REMARK    1  A    between atoms: C_1  and  C_2
REMARK    2  A    between atoms: C_2  and  C_3
REMARK    3  A    between atoms: C_3  and  C_4
REMARK    4  A    between atoms: C_4  and  C_5
REMARK    5  A    between atoms: C_5  and  C_6
REMARK    6  A    between atoms: C_6  and  C_7
REMARK    7  A    between atoms: C_7  and  C_8
REMARK    8  A    between atoms: C_8  and  C_9
REMARK    9  A    between atoms: C_9  and  C_10
REMARK   10  A    between atoms: C_10  and  C_11
REMARK   11  A    between atoms: C_11  and  C_12
REMARK   12  A    between atoms: C_12  and  C_13
REMARK   13  A    between atoms: C_13  and  C_14
REMARK   14  A    between atoms: C_14  and  C_16
REMARK   15  A    between atoms: C_16  and  S_17
REMARK   16  A    between atoms: S_17  and  C_18
REMARK   17  A    between atoms: C_18  and  C_19
REMARK   18  A    between atoms: C_19  and  N_20
REMARK   19  A    between atoms: C_21  and  C_23
REMARK   20  A    between atoms: C_23  and  C_24
REMARK   21  A    between atoms: C_24  and  N_25
REMARK   22  A    between atoms: C_26  and  C_28
REMARK   23  A    between atoms: C_28  and  O_30
REMARK   24  A    between atoms: C_28  and  C_31
REMARK   25  A    between atoms: C_31  and  C_32
REMARK   26  A    between atoms: C_31  and  C_33
REMARK   27  A    between atoms: C_31  and  C_34
REMARK   28  A    between atoms: C_34  and  O_35
REMARK   29  A    between atoms: O_35  and  P_36
REMARK   30  A    between atoms: P_36  and  O_37
REMARK   31  A    between atoms: P_36  and  O_39
REMARK   32  A    between atoms: O_39  and  P_40
REMARK   33  A    between atoms: P_40  and  O_41
REMARK   34  A    between atoms: P_40  and  O_43
REMARK   35  A    between atoms: O_43  and  C_44
REMARK   36  A    between atoms: C_44  and  C_45
REMARK   37  A    between atoms: C_48  and  N_60
REMARK   38  A    between atoms: C_50  and  O_52
REMARK   39  A    between atoms: C_53  and  O_55
REMARK   40  A    between atoms: O_55  and  P_56
REMARK   41  A    between atoms: P_56  and  O_57
REMARK   42  A    between atoms: P_56  and  O_58
REMARK                            x       y       z     vdW  Elec       q    Type
REMARK                         _______ _______ _______ _____ _____    ______ ____
ROOT
ATOM      1  O   UNL     1       4.113  -5.211  22.634  0.00  0.00    -0.286 OA
ENDROOT
BRANCH   1   2
ATOM      2  P   UNL     1       3.049  -5.903  23.646  0.00  0.00    +0.483 P 
ATOM      3  O   UNL     1       1.759  -5.087  23.667  0.00  0.00    -0.227 OA
BRANCH   2   4
ATOM      4  O   UNL     1       2.438  -6.711  22.244  0.00  0.00    -0.302 OA
ATOM      5  H   UNL     1       3.163  -7.337  22.030  0.00  0.00    +0.222 HD
ENDBRANCH   2   4
BRANCH   2   6
ATOM      6  O   UNL     1       3.660  -5.093  25.048  0.00  0.00    -0.186 OA
BRANCH   6   7
ATOM      7  P   UNL     1       3.938  -6.571  25.899  0.00  0.00    +0.483 P 
ATOM      8  O   UNL     1       3.711  -7.818  25.088  0.00  0.00    -0.227 OA
BRANCH   7   9
ATOM      9  O   UNL     1       2.784  -6.527  27.010  0.00  0.00    -0.302 OA
ATOM     10  H   UNL     1       2.127  -5.830  26.814  0.00  0.00    +0.222 HD
ENDBRANCH   7   9
BRANCH   7  11
ATOM     11  O   UNL     1       5.287  -6.764  26.804  0.00  0.00    -0.284 OA
BRANCH  11  12
ATOM     12  C   UNL     1       6.439  -5.899  26.569  0.00  0.00    +0.206 C 
BRANCH  12  13
ATOM     13  C   UNL     1       6.720  -4.487  27.310  0.00  0.00    +0.179 C 
ATOM     14  C   UNL     1       6.823  -3.225  26.427  0.00  0.00    +0.194 C 
ATOM     15  C   UNL     1       5.612  -2.323  26.708  0.00  0.00    +0.196 C 
ATOM     16  C   UNL     1       4.782  -3.118  27.681  0.00  0.00    +0.253 C 
ATOM     17  O   UNL     1       5.590  -4.196  28.221  0.00  0.00    -0.346 OA
BRANCH  16  18
ATOM     18  N   UNL     1       4.008  -2.388  28.689  0.00  0.00    -0.286 N 
ATOM     19  C   UNL     1       3.169  -1.313  28.403  0.00  0.00    +0.167 A 
ATOM     20  N   UNL     1       3.085  -0.619  27.234  0.00  0.00    -0.216 NA
ATOM     21  C   UNL     1       2.087   0.302  27.317  0.00  0.00    +0.225 A 
ATOM     22  N   UNL     1       1.247   0.582  28.336  0.00  0.00    -0.219 NA
ATOM     23  C   UNL     1       1.351  -0.173  29.459  0.00  0.00    +0.147 A 
ATOM     24  N   UNL     1       0.443   0.045  30.484  0.00  0.00    -0.341 N 
ATOM     25  H   UNL     1       0.702  -0.367  31.387  0.00  0.00    +0.144 HD
ATOM     26  H   UNL     1       0.028   0.946  30.486  0.00  0.00    +0.144 HD
ATOM     27  C   UNL     1       2.355  -1.166  29.515  0.00  0.00    +0.147 A 
ATOM     28  N   UNL     1       2.685  -2.109  30.475  0.00  0.00    -0.231 NA
ATOM     29  C   UNL     1       3.631  -2.851  29.928  0.00  0.00    +0.203 A 
ENDBRANCH  16  18
BRANCH  15  30
ATOM     30  O   UNL     1       4.928  -2.103  25.462  0.00  0.00    -0.385 OA
ATOM     31  H   UNL     1       5.300  -1.287  25.058  0.00  0.00    +0.210 HD
ENDBRANCH  15  30
BRANCH  14  32
ATOM     32  O   UNL     1       7.989  -2.468  26.752  0.00  0.00    -0.278 OA
BRANCH  32  33
ATOM     33  P   UNL     1       8.174  -1.049  26.013  0.00  0.00    +0.473 P 
ATOM     34  O   UNL     1       7.046  -0.595  25.154  0.00  0.00    -0.228 OA
BRANCH  33  35
ATOM     35  O   UNL     1       8.501  -0.066  27.221  0.00  0.00    -0.303 OA
ATOM     36  H   UNL     1       8.018   0.774  27.140  0.00  0.00    +0.222 HD
ENDBRANCH  33  35
BRANCH  33  37
ATOM     37  O   UNL     1       9.570  -1.191  25.255  0.00  0.00    -0.303 OA
ATOM     38  H   UNL     1       9.939  -0.318  25.011  0.00  0.00    +0.222 HD
ENDBRANCH  33  37
ENDBRANCH  32  33
ENDBRANCH  14  32
ENDBRANCH  12  13
ENDBRANCH  11  12
ENDBRANCH   7  11
ENDBRANCH   6   7
ENDBRANCH   2   6
ENDBRANCH   1   2
BRANCH   1  39
ATOM     39  C   UNL     1       5.291  -6.001  22.264  0.00  0.00    +0.181 C 
BRANCH  39  40
ATOM     40  C   UNL     1       6.425  -4.997  22.127  0.00  0.00    +0.024 C 
ATOM     41  C   UNL     1       7.719  -5.809  22.446  0.00  0.00    +0.016 C 
ATOM     42  C   UNL     1       6.128  -4.528  20.693  0.00  0.00    +0.016 C 
BRANCH  40  43
ATOM     43  C   UNL     1       6.551  -3.751  23.042  0.00  0.00    +0.208 C 
BRANCH  43  46
ATOM     44  N   UNL     1       8.000  -1.968  22.391  0.00  0.00    -0.313 N 
ATOM     45  H   UNL     1       7.111  -1.551  22.131  0.00  0.00    +0.149 HD
ATOM     46  C   UNL     1       7.942  -3.164  23.052  0.00  0.00    +0.242 C 
ATOM     47  O   UNL     1       8.894  -3.747  23.546  0.00  0.00    -0.273 OA
BRANCH  44  48
ATOM     48  C   UNL     1       9.179  -1.523  21.728  0.00  0.00    +0.113 C 
BRANCH  48  49
ATOM     49  C   UNL     1       9.351  -0.035  21.420  0.00  0.00    +0.114 C 
BRANCH  49  52
ATOM     50  N   UNL     1       9.140   2.094  22.678  0.00  0.00    -0.314 N 
ATOM     51  H   UNL     1       8.155   1.963  22.488  0.00  0.00    +0.149 HD
ATOM     52  C   UNL     1       9.843   0.916  22.518  0.00  0.00    +0.215 C 
ATOM     53  O   UNL     1      10.694   0.562  23.320  0.00  0.00    -0.276 OA
BRANCH  50  54
ATOM     54  C   UNL     1       9.372   3.061  23.755  0.00  0.00    +0.115 C 
BRANCH  54  55
ATOM     55  C   UNL     1       8.793   4.475  23.685  0.00  0.00    +0.088 C 
BRANCH  55  56
ATOM     56  S   UNL     1       7.338   4.809  22.670  0.00  0.00    -0.152 S 
BRANCH  56  57
ATOM     57  C   UNL     1       5.957   4.819  23.877  0.00  0.00    +0.143 C 
BRANCH  57  58
ATOM     58  C   UNL     1       4.885   3.927  23.272  0.00  0.00    +0.143 C 
ATOM     59  O   UNL     1       4.365   4.168  22.174  0.00  0.00    -0.297 OA
BRANCH  58  60
ATOM     60  C   UNL     1       4.253   2.841  24.058  0.00  0.00    +0.075 C 
BRANCH  60  61
ATOM     61  C   UNL     1       3.524   3.758  25.006  0.00  0.00    +0.008 C 
BRANCH  61  62
ATOM     62  C   UNL     1       2.100   3.992  24.724  0.00  0.00    +0.000 C 
BRANCH  62  63
ATOM     63  C   UNL     1       1.433   3.544  26.006  0.00  0.00    +0.000 C 
BRANCH  63  64
ATOM     64  C   UNL     1       1.863   4.513  27.042  0.00  0.00    +0.000 C 
BRANCH  64  65
ATOM     65  C   UNL     1       1.062   4.298  28.292  0.00  0.00    +0.000 C 
BRANCH  65  66
ATOM     66  C   UNL     1       2.073   4.016  29.368  0.00  0.00    -0.000 C 
BRANCH  66  67
ATOM     67  C   UNL     1       3.441   4.405  28.881  0.00  0.00    -0.000 C 
BRANCH  67  68
ATOM     68  C   UNL     1       4.469   3.735  29.761  0.00  0.00    -0.000 C 
BRANCH  68  69
ATOM     69  C   UNL     1       4.491   2.253  29.458  0.00  0.00    -0.000 C 
BRANCH  69  70
ATOM     70  C   UNL     1       5.381   1.980  28.258  0.00  0.00    -0.000 C 
BRANCH  70  72
ATOM     71  C   UNL     1       7.150   2.961  26.790  0.00  0.00    +0.004 C 
ATOM     72  C   UNL     1       6.440   3.064  28.129  0.00  0.00    -0.003 C 
ENDBRANCH  70  72
ENDBRANCH  69  70
ENDBRANCH  68  69
ENDBRANCH  67  68
ENDBRANCH  66  67
ENDBRANCH  65  66
ENDBRANCH  64  65
ENDBRANCH  63  64
ENDBRANCH  62  63
ENDBRANCH  61  62
ENDBRANCH  60  61
ENDBRANCH  58  60
ENDBRANCH  57  58
ENDBRANCH  56  57
ENDBRANCH  55  56
ENDBRANCH  54  55
ENDBRANCH  50  54
ENDBRANCH  49  52
ENDBRANCH  48  49
ENDBRANCH  44  48
ENDBRANCH  43  46
BRANCH  43  73
ATOM     73  O   UNL     1       5.627  -2.723  22.724  0.00  0.00    -0.382 OA
ATOM     74  H   UNL     1       6.099  -1.898  22.955  0.00  0.00    +0.210 HD
ENDBRANCH  43  73
ENDBRANCH  40  43
ENDBRANCH  39  40
ENDBRANCH   1  39
TORSDOF 39
ENDMDL
MODEL 7
REMARK VINA RESULT:      -4.1      3.127      6.938
REMARK  Name = 
REMARK  42 active torsions:
REMARK  status: ('A' for Active; 'I' for Inactive)
REMARK    1  A    between atoms: C_1  and  C_2
REMARK    2  A    between atoms: C_2  and  C_3
REMARK    3  A    between atoms: C_3  and  C_4
REMARK    4  A    between atoms: C_4  and  C_5
REMARK    5  A    between atoms: C_5  and  C_6
REMARK    6  A    between atoms: C_6  and  C_7
REMARK    7  A    between atoms: C_7  and  C_8
REMARK    8  A    between atoms: C_8  and  C_9
REMARK    9  A    between atoms: C_9  and  C_10
REMARK   10  A    between atoms: C_10  and  C_11
REMARK   11  A    between atoms: C_11  and  C_12
REMARK   12  A    between atoms: C_12  and  C_13
REMARK   13  A    between atoms: C_13  and  C_14
REMARK   14  A    between atoms: C_14  and  C_16
REMARK   15  A    between atoms: C_16  and  S_17
REMARK   16  A    between atoms: S_17  and  C_18
REMARK   17  A    between atoms: C_18  and  C_19
REMARK   18  A    between atoms: C_19  and  N_20
REMARK   19  A    between atoms: C_21  and  C_23
REMARK   20  A    between atoms: C_23  and  C_24
REMARK   21  A    between atoms: C_24  and  N_25
REMARK   22  A    between atoms: C_26  and  C_28
REMARK   23  A    between atoms: C_28  and  O_30
REMARK   24  A    between atoms: C_28  and  C_31
REMARK   25  A    between atoms: C_31  and  C_32
REMARK   26  A    between atoms: C_31  and  C_33
REMARK   27  A    between atoms: C_31  and  C_34
REMARK   28  A    between atoms: C_34  and  O_35
REMARK   29  A    between atoms: O_35  and  P_36
REMARK   30  A    between atoms: P_36  and  O_37
REMARK   31  A    between atoms: P_36  and  O_39
REMARK   32  A    between atoms: O_39  and  P_40
REMARK   33  A    between atoms: P_40  and  O_41
REMARK   34  A    between atoms: P_40  and  O_43
REMARK   35  A    between atoms: O_43  and  C_44
REMARK   36  A    between atoms: C_44  and  C_45
REMARK   37  A    between atoms: C_48  and  N_60
REMARK   38  A    between atoms: C_50  and  O_52
REMARK   39  A    between atoms: C_53  and  O_55
REMARK   40  A    between atoms: O_55  and  P_56
REMARK   41  A    between atoms: P_56  and  O_57
REMARK   42  A    between atoms: P_56  and  O_58
REMARK                            x       y       z     vdW  Elec       q    Type
REMARK                         _______ _______ _______ _____ _____    ______ ____
ROOT
ATOM      1  O   UNL     1       4.086  -5.210  22.695  0.00  0.00    -0.286 OA
ENDROOT
BRANCH   1   2
ATOM      2  P   UNL     1       2.970  -5.979  23.588  0.00  0.00    +0.483 P 
ATOM      3  O   UNL     1       1.652  -5.209  23.535  0.00  0.00    -0.227 OA
BRANCH   2   4
ATOM      4  O   UNL     1       2.506  -6.749  22.110  0.00  0.00    -0.302 OA
ATOM      5  H   UNL     1       3.372  -6.930  21.687  0.00  0.00    +0.222 HD
ENDBRANCH   2   4
BRANCH   2   6
ATOM      6  O   UNL     1       3.434  -5.208  25.067  0.00  0.00    -0.186 OA
BRANCH   6   7
ATOM      7  P   UNL     1       3.973  -6.686  25.781  0.00  0.00    +0.483 P 
ATOM      8  O   UNL     1       3.971  -7.872  24.855  0.00  0.00    -0.227 OA
BRANCH   7   9
ATOM      9  O   UNL     1       2.832  -6.953  26.873  0.00  0.00    -0.302 OA
ATOM     10  H   UNL     1       2.473  -6.114  27.226  0.00  0.00    +0.222 HD
ENDBRANCH   7   9
BRANCH   7  11
ATOM     11  O   UNL     1       5.337  -6.720  26.685  0.00  0.00    -0.284 OA
BRANCH  11  12
ATOM     12  C   UNL     1       6.302  -5.631  26.569  0.00  0.00    +0.206 C 
BRANCH  12  13
ATOM     13  C   UNL     1       6.230  -4.224  27.367  0.00  0.00    +0.179 C 
ATOM     14  C   UNL     1       6.251  -2.927  26.531  0.00  0.00    +0.194 C 
ATOM     15  C   UNL     1       4.878  -2.246  26.637  0.00  0.00    +0.196 C 
ATOM     16  C   UNL     1       4.058  -3.205  27.459  0.00  0.00    +0.253 C 
ATOM     17  O   UNL     1       4.945  -4.158  28.100  0.00  0.00    -0.346 OA
BRANCH  16  18
ATOM     18  N   UNL     1       3.032  -2.653  28.349  0.00  0.00    -0.286 N 
ATOM     19  C   UNL     1       3.150  -1.437  29.019  0.00  0.00    +0.167 A 
ATOM     20  N   UNL     1       4.272  -0.676  29.157  0.00  0.00    -0.216 NA
ATOM     21  C   UNL     1       3.965   0.481  29.802  0.00  0.00    +0.225 A 
ATOM     22  N   UNL     1       2.782   0.921  30.280  0.00  0.00    -0.219 NA
ATOM     23  C   UNL     1       1.693   0.138  30.074  0.00  0.00    +0.147 A 
ATOM     24  N   UNL     1       0.455   0.611  30.485  0.00  0.00    -0.341 N 
ATOM     25  H   UNL     1      -0.286  -0.097  30.530  0.00  0.00    +0.144 HD
ATOM     26  H   UNL     1       0.490   1.294  31.203  0.00  0.00    +0.144 HD
ATOM     27  C   UNL     1       1.867  -1.103  29.420  0.00  0.00    +0.147 A 
ATOM     28  N   UNL     1       0.974  -2.087  29.029  0.00  0.00    -0.231 NA
ATOM     29  C   UNL     1       1.692  -2.962  28.347  0.00  0.00    +0.203 A 
ENDBRANCH  16  18
BRANCH  15  30
ATOM     30  O   UNL     1       4.359  -2.089  25.305  0.00  0.00    -0.385 OA
ATOM     31  H   UNL     1       3.511  -2.583  25.255  0.00  0.00    +0.210 HD
ENDBRANCH  15  30
BRANCH  14  32
ATOM     32  O   UNL     1       7.213  -2.005  27.042  0.00  0.00    -0.278 OA
BRANCH  32  33
ATOM     33  P   UNL     1       7.830  -0.937  26.006  0.00  0.00    +0.473 P 
ATOM     34  O   UNL     1       6.898  -0.383  24.987  0.00  0.00    -0.228 OA
BRANCH  33  35
ATOM     35  O   UNL     1       8.458   0.162  26.971  0.00  0.00    -0.303 OA
ATOM     36  H   UNL     1       7.805   0.491  27.613  0.00  0.00    +0.222 HD
ENDBRANCH  33  35
BRANCH  33  37
ATOM     37  O   UNL     1       9.106  -1.681  25.405  0.00  0.00    -0.303 OA
ATOM     38  H   UNL     1       9.692  -1.062  24.925  0.00  0.00    +0.222 HD
ENDBRANCH  33  37
ENDBRANCH  32  33
ENDBRANCH  14  32
ENDBRANCH  12  13
ENDBRANCH  11  12
ENDBRANCH   7  11
ENDBRANCH   6   7
ENDBRANCH   2   6
ENDBRANCH   1   2
BRANCH   1  39
ATOM     39  C   UNL     1       5.224  -6.004  22.224  0.00  0.00    +0.181 C 
BRANCH  39  40
ATOM     40  C   UNL     1       6.385  -5.026  22.125  0.00  0.00    +0.024 C 
ATOM     41  C   UNL     1       7.660  -5.894  22.367  0.00  0.00    +0.016 C 
ATOM     42  C   UNL     1       6.076  -4.462  20.728  0.00  0.00    +0.016 C 
BRANCH  40  43
ATOM     43  C   UNL     1       6.566  -3.843  23.111  0.00  0.00    +0.208 C 
BRANCH  43  46
ATOM     44  N   UNL     1       8.013  -2.080  22.405  0.00  0.00    -0.313 N 
ATOM     45  H   UNL     1       7.122  -1.664  22.151  0.00  0.00    +0.149 HD
ATOM     46  C   UNL     1       7.960  -3.263  23.088  0.00  0.00    +0.242 C 
ATOM     47  O   UNL     1       8.918  -3.842  23.578  0.00  0.00    -0.273 OA
BRANCH  44  48
ATOM     48  C   UNL     1       9.183  -1.653  21.715  0.00  0.00    +0.113 C 
BRANCH  48  49
ATOM     49  C   UNL     1       9.437  -0.158  21.520  0.00  0.00    +0.114 C 
BRANCH  49  52
ATOM     50  N   UNL     1      10.123   2.029  22.473  0.00  0.00    -0.314 N 
ATOM     51  H   UNL     1       9.327   2.366  21.947  0.00  0.00    +0.149 HD
ATOM     52  C   UNL     1      10.061   0.662  22.657  0.00  0.00    +0.215 C 
ATOM     53  O   UNL     1      10.317   0.146  23.735  0.00  0.00    -0.276 OA
BRANCH  50  54
ATOM     54  C   UNL     1      10.558   2.986  23.494  0.00  0.00    +0.115 C 
BRANCH  54  55
ATOM     55  C   UNL     1       9.825   4.314  23.694  0.00  0.00    +0.088 C 
BRANCH  55  56
ATOM     56  S   UNL     1       8.147   4.332  24.357  0.00  0.00    -0.152 S 
BRANCH  56  57
ATOM     57  C   UNL     1       7.772   6.118  24.548  0.00  0.00    +0.143 C 
BRANCH  57  58
ATOM     58  C   UNL     1       6.800   6.204  25.714  0.00  0.00    +0.143 C 
ATOM     59  O   UNL     1       5.576   6.086  25.566  0.00  0.00    -0.297 OA
BRANCH  58  60
ATOM     60  C   UNL     1       7.247   6.644  27.058  0.00  0.00    +0.075 C 
BRANCH  60  61
ATOM     61  C   UNL     1       6.305   5.749  27.820  0.00  0.00    +0.008 C 
BRANCH  61  62
ATOM     62  C   UNL     1       6.916   4.835  28.796  0.00  0.00    +0.000 C 
BRANCH  62  63
ATOM     63  C   UNL     1       6.098   3.574  28.623  0.00  0.00    +0.000 C 
BRANCH  63  64
ATOM     64  C   UNL     1       6.419   3.071  27.266  0.00  0.00    +0.000 C 
BRANCH  64  65
ATOM     65  C   UNL     1       5.241   2.322  26.717  0.00  0.00    +0.000 C 
BRANCH  65  66
ATOM     66  C   UNL     1       4.032   3.058  27.223  0.00  0.00    -0.000 C 
BRANCH  66  67
ATOM     67  C   UNL     1       2.927   2.959  26.209  0.00  0.00    -0.000 C 
BRANCH  67  68
ATOM     68  C   UNL     1       3.459   3.432  24.877  0.00  0.00    -0.000 C 
BRANCH  68  69
ATOM     69  C   UNL     1       2.324   3.481  23.878  0.00  0.00    -0.000 C 
BRANCH  69  70
ATOM     70  C   UNL     1       2.848   3.200  22.480  0.00  0.00    -0.000 C 
BRANCH  70  72
ATOM     71  C   UNL     1       1.544   2.376  20.513  0.00  0.00    +0.004 C 
ATOM     72  C   UNL     1       1.794   3.552  21.441  0.00  0.00    -0.003 C 
ENDBRANCH  70  72
ENDBRANCH  69  70
ENDBRANCH  68  69
ENDBRANCH  67  68
ENDBRANCH  66  67
ENDBRANCH  65  66
ENDBRANCH  64  65
ENDBRANCH  63  64
ENDBRANCH  62  63
ENDBRANCH  61  62
ENDBRANCH  60  61
ENDBRANCH  58  60
ENDBRANCH  57  58
ENDBRANCH  56  57
ENDBRANCH  55  56
ENDBRANCH  54  55
ENDBRANCH  50  54
ENDBRANCH  49  52
ENDBRANCH  48  49
ENDBRANCH  44  48
ENDBRANCH  43  46
BRANCH  43  73
ATOM     73  O   UNL     1       5.634  -2.794  22.908  0.00  0.00    -0.382 OA
ATOM     74  H   UNL     1       6.149  -1.980  23.084  0.00  0.00    +0.210 HD
ENDBRANCH  43  73
ENDBRANCH  40  43
ENDBRANCH  39  40
ENDBRANCH   1  39
TORSDOF 39
ENDMDL
MODEL 8
REMARK VINA RESULT:      -4.1      2.565      4.987
REMARK  Name = 
REMARK  42 active torsions:
REMARK  status: ('A' for Active; 'I' for Inactive)
REMARK    1  A    between atoms: C_1  and  C_2
REMARK    2  A    between atoms: C_2  and  C_3
REMARK    3  A    between atoms: C_3  and  C_4
REMARK    4  A    between atoms: C_4  and  C_5
REMARK    5  A    between atoms: C_5  and  C_6
REMARK    6  A    between atoms: C_6  and  C_7
REMARK    7  A    between atoms: C_7  and  C_8
REMARK    8  A    between atoms: C_8  and  C_9
REMARK    9  A    between atoms: C_9  and  C_10
REMARK   10  A    between atoms: C_10  and  C_11
REMARK   11  A    between atoms: C_11  and  C_12
REMARK   12  A    between atoms: C_12  and  C_13
REMARK   13  A    between atoms: C_13  and  C_14
REMARK   14  A    between atoms: C_14  and  C_16
REMARK   15  A    between atoms: C_16  and  S_17
REMARK   16  A    between atoms: S_17  and  C_18
REMARK   17  A    between atoms: C_18  and  C_19
REMARK   18  A    between atoms: C_19  and  N_20
REMARK   19  A    between atoms: C_21  and  C_23
REMARK   20  A    between atoms: C_23  and  C_24
REMARK   21  A    between atoms: C_24  and  N_25
REMARK   22  A    between atoms: C_26  and  C_28
REMARK   23  A    between atoms: C_28  and  O_30
REMARK   24  A    between atoms: C_28  and  C_31
REMARK   25  A    between atoms: C_31  and  C_32
REMARK   26  A    between atoms: C_31  and  C_33
REMARK   27  A    between atoms: C_31  and  C_34
REMARK   28  A    between atoms: C_34  and  O_35
REMARK   29  A    between atoms: O_35  and  P_36
REMARK   30  A    between atoms: P_36  and  O_37
REMARK   31  A    between atoms: P_36  and  O_39
REMARK   32  A    between atoms: O_39  and  P_40
REMARK   33  A    between atoms: P_40  and  O_41
REMARK   34  A    between atoms: P_40  and  O_43
REMARK   35  A    between atoms: O_43  and  C_44
REMARK   36  A    between atoms: C_44  and  C_45
REMARK   37  A    between atoms: C_48  and  N_60
REMARK   38  A    between atoms: C_50  and  O_52
REMARK   39  A    between atoms: C_53  and  O_55
REMARK   40  A    between atoms: O_55  and  P_56
REMARK   41  A    between atoms: P_56  and  O_57
REMARK   42  A    between atoms: P_56  and  O_58
REMARK                            x       y       z     vdW  Elec       q    Type
REMARK                         _______ _______ _______ _____ _____    ______ ____
ROOT
ATOM      1  O   UNL     1       7.902  -0.024  25.292  0.00  0.00    -0.286 OA
ENDROOT
BRANCH   1   2
ATOM      2  P   UNL     1       7.076   0.189  26.674  0.00  0.00    +0.483 P 
ATOM      3  O   UNL     1       8.007  -0.025  27.865  0.00  0.00    -0.227 OA
BRANCH   2   4
ATOM      4  O   UNL     1       7.641   1.822  26.608  0.00  0.00    -0.302 OA
ATOM      5  H   UNL     1       8.311   1.784  25.892  0.00  0.00    +0.222 HD
ENDBRANCH   2   4
BRANCH   2   6
ATOM      6  O   UNL     1       6.511  -1.446  26.739  0.00  0.00    -0.186 OA
BRANCH   6   7
ATOM      7  P   UNL     1       4.976  -0.992  27.388  0.00  0.00    +0.483 P 
ATOM      8  O   UNL     1       3.872  -0.872  26.372  0.00  0.00    -0.227 OA
BRANCH   7   9
ATOM      9  O   UNL     1       5.274   0.488  27.922  0.00  0.00    -0.302 OA
ATOM     10  H   UNL     1       5.253   0.525  28.899  0.00  0.00    +0.222 HD
ENDBRANCH   7   9
BRANCH   7  11
ATOM     11  O   UNL     1       4.390  -1.734  28.724  0.00  0.00    -0.284 OA
BRANCH  11  12
ATOM     12  C   UNL     1       3.270  -2.662  28.596  0.00  0.00    +0.206 C 
BRANCH  12  13
ATOM     13  C   UNL     1       3.381  -4.207  28.123  0.00  0.00    +0.179 C 
ATOM     14  C   UNL     1       2.067  -4.952  27.804  0.00  0.00    +0.194 C 
ATOM     15  C   UNL     1       2.011  -5.233  26.295  0.00  0.00    +0.196 C 
ATOM     16  C   UNL     1       3.249  -4.568  25.753  0.00  0.00    +0.253 C 
ATOM     17  O   UNL     1       4.143  -4.263  26.855  0.00  0.00    -0.346 OA
BRANCH  16  18
ATOM     18  N   UNL     1       3.913  -5.178  24.596  0.00  0.00    -0.286 N 
ATOM     19  C   UNL     1       4.719  -4.480  23.701  0.00  0.00    +0.167 A 
ATOM     20  N   UNL     1       4.856  -3.128  23.593  0.00  0.00    -0.216 NA
ATOM     21  C   UNL     1       5.801  -2.835  22.659  0.00  0.00    +0.225 A 
ATOM     22  N   UNL     1       6.551  -3.658  21.895  0.00  0.00    -0.219 NA
ATOM     23  C   UNL     1       6.401  -4.994  22.080  0.00  0.00    +0.147 A 
ATOM     24  N   UNL     1       7.220  -5.853  21.363  0.00  0.00    -0.341 N 
ATOM     25  H   UNL     1       6.915  -6.833  21.351  0.00  0.00    +0.144 HD
ATOM     26  H   UNL     1       7.592  -5.471  20.527  0.00  0.00    +0.144 HD
ATOM     27  C   UNL     1       5.442  -5.444  23.017  0.00  0.00    +0.147 A 
ATOM     28  N   UNL     1       5.087  -6.708  23.458  0.00  0.00    -0.231 NA
ATOM     29  C   UNL     1       4.219  -6.508  24.434  0.00  0.00    +0.203 A 
ENDBRANCH  16  18
BRANCH  15  30
ATOM     30  O   UNL     1       0.805  -4.641  25.781  0.00  0.00    -0.385 OA
ATOM     31  H   UNL     1       1.008  -4.276  24.890  0.00  0.00    +0.210 HD
ENDBRANCH  15  30
BRANCH  14  32
ATOM     32  O   UNL     1       2.023  -6.216  28.464  0.00  0.00    -0.278 OA
BRANCH  32  33
ATOM     33  P   UNL     1       3.380  -6.727  29.165  0.00  0.00    +0.473 P 
ATOM     34  O   UNL     1       3.997  -5.813  30.164  0.00  0.00    -0.228 OA
BRANCH  33  35
ATOM     35  O   UNL     1       2.955  -8.140  29.761  0.00  0.00    -0.303 OA
ATOM     36  H   UNL     1       3.494  -8.861  29.393  0.00  0.00    +0.222 HD
ENDBRANCH  33  35
BRANCH  33  37
ATOM     37  O   UNL     1       4.326  -7.106  27.939  0.00  0.00    -0.303 OA
ATOM     38  H   UNL     1       5.177  -6.625  27.976  0.00  0.00    +0.222 HD
ENDBRANCH  33  37
ENDBRANCH  32  33
ENDBRANCH  14  32
ENDBRANCH  12  13
ENDBRANCH  11  12
ENDBRANCH   7  11
ENDBRANCH   6   7
ENDBRANCH   2   6
ENDBRANCH   1   2
BRANCH   1  39
ATOM     39  C   UNL     1       8.129  -1.404  24.858  0.00  0.00    +0.181 C 
BRANCH  39  40
ATOM     40  C   UNL     1       9.339  -1.344  23.937  0.00  0.00    +0.024 C 
ATOM     41  C   UNL     1      10.230  -0.204  24.522  0.00  0.00    +0.016 C 
ATOM     42  C   UNL     1       9.774  -2.815  24.053  0.00  0.00    +0.016 C 
BRANCH  40  43
ATOM     43  C   UNL     1       9.227  -0.975  22.435  0.00  0.00    +0.208 C 
BRANCH  43  46
ATOM     44  N   UNL     1       7.940   1.034  22.341  0.00  0.00    -0.313 N 
ATOM     45  H   UNL     1       7.239   0.417  22.741  0.00  0.00    +0.149 HD
ATOM     46  C   UNL     1       9.196   0.516  22.194  0.00  0.00    +0.242 C 
ATOM     47  O   UNL     1      10.186   1.142  21.848  0.00  0.00    -0.273 OA
BRANCH  44  48
ATOM     48  C   UNL     1       7.502   2.180  21.617  0.00  0.00    +0.113 C 
BRANCH  48  49
ATOM     49  C   UNL     1       7.426   3.533  22.326  0.00  0.00    +0.114 C 
BRANCH  49  52
ATOM     50  N   UNL     1       5.451   5.035  22.371  0.00  0.00    -0.314 N 
ATOM     51  H   UNL     1       5.575   5.021  21.368  0.00  0.00    +0.149 HD
ATOM     52  C   UNL     1       6.109   3.979  22.972  0.00  0.00    +0.215 C 
ATOM     53  O   UNL     1       5.588   3.317  23.858  0.00  0.00    -0.276 OA
BRANCH  50  54
ATOM     54  C   UNL     1       4.121   5.514  22.759  0.00  0.00    +0.115 C 
BRANCH  54  55
ATOM     55  C   UNL     1       2.870   5.071  21.998  0.00  0.00    +0.088 C 
BRANCH  55  56
ATOM     56  S   UNL     1       2.353   3.343  22.032  0.00  0.00    -0.152 S 
BRANCH  56  57
ATOM     57  C   UNL     1       0.819   3.365  23.039  0.00  0.00    +0.143 C 
BRANCH  57  58
ATOM     58  C   UNL     1       1.285   3.304  24.485  0.00  0.00    +0.143 C 
ATOM     59  O   UNL     1       1.446   2.232  25.084  0.00  0.00    -0.297 OA
BRANCH  58  60
ATOM     60  C   UNL     1       1.366   4.527  25.320  0.00  0.00    +0.075 C 
BRANCH  60  61
ATOM     61  C   UNL     1       2.384   3.973  26.282  0.00  0.00    +0.008 C 
BRANCH  61  62
ATOM     62  C   UNL     1       3.630   4.740  26.429  0.00  0.00    +0.000 C 
BRANCH  62  63
ATOM     63  C   UNL     1       4.471   3.838  27.306  0.00  0.00    +0.000 C 
BRANCH  63  64
ATOM     64  C   UNL     1       3.955   4.022  28.683  0.00  0.00    +0.000 C 
BRANCH  64  65
ATOM     65  C   UNL     1       5.017   3.639  29.671  0.00  0.00    +0.000 C 
BRANCH  65  66
ATOM     66  C   UNL     1       5.569   4.939  30.184  0.00  0.00    -0.000 C 
BRANCH  66  67
ATOM     67  C   UNL     1       7.032   5.025  29.851  0.00  0.00    -0.000 C 
BRANCH  67  68
ATOM     68  C   UNL     1       7.342   6.441  29.424  0.00  0.00    -0.000 C 
BRANCH  68  69
ATOM     69  C   UNL     1       6.582   6.754  28.154  0.00  0.00    -0.000 C 
BRANCH  69  70
ATOM     70  C   UNL     1       7.536   6.793  26.973  0.00  0.00    -0.000 C 
BRANCH  70  72
ATOM     71  C   UNL     1       8.716   5.217  25.433  0.00  0.00    +0.004 C 
ATOM     72  C   UNL     1       7.413   5.519  26.151  0.00  0.00    -0.003 C 
ENDBRANCH  70  72
ENDBRANCH  69  70
ENDBRANCH  68  69
ENDBRANCH  67  68
ENDBRANCH  66  67
ENDBRANCH  65  66
ENDBRANCH  64  65
ENDBRANCH  63  64
ENDBRANCH  62  63
ENDBRANCH  61  62
ENDBRANCH  60  61
ENDBRANCH  58  60
ENDBRANCH  57  58
ENDBRANCH  56  57
ENDBRANCH  55  56
ENDBRANCH  54  55
ENDBRANCH  50  54
ENDBRANCH  49  52
ENDBRANCH  48  49
ENDBRANCH  44  48
ENDBRANCH  43  46
BRANCH  43  73
ATOM     73  O   UNL     1      10.253  -1.543  21.638  0.00  0.00    -0.382 OA
ATOM     74  H   UNL     1       9.980  -2.477  21.528  0.00  0.00    +0.210 HD
ENDBRANCH  43  73
ENDBRANCH  40  43
ENDBRANCH  39  40
ENDBRANCH   1  39
TORSDOF 39
ENDMDL
MODEL 9
REMARK VINA RESULT:      -3.8      3.579      6.975
REMARK  Name = 
REMARK  42 active torsions:
REMARK  status: ('A' for Active; 'I' for Inactive)
REMARK    1  A    between atoms: C_1  and  C_2
REMARK    2  A    between atoms: C_2  and  C_3
REMARK    3  A    between atoms: C_3  and  C_4
REMARK    4  A    between atoms: C_4  and  C_5
REMARK    5  A    between atoms: C_5  and  C_6
REMARK    6  A    between atoms: C_6  and  C_7
REMARK    7  A    between atoms: C_7  and  C_8
REMARK    8  A    between atoms: C_8  and  C_9
REMARK    9  A    between atoms: C_9  and  C_10
REMARK   10  A    between atoms: C_10  and  C_11
REMARK   11  A    between atoms: C_11  and  C_12
REMARK   12  A    between atoms: C_12  and  C_13
REMARK   13  A    between atoms: C_13  and  C_14
REMARK   14  A    between atoms: C_14  and  C_16
REMARK   15  A    between atoms: C_16  and  S_17
REMARK   16  A    between atoms: S_17  and  C_18
REMARK   17  A    between atoms: C_18  and  C_19
REMARK   18  A    between atoms: C_19  and  N_20
REMARK   19  A    between atoms: C_21  and  C_23
REMARK   20  A    between atoms: C_23  and  C_24
REMARK   21  A    between atoms: C_24  and  N_25
REMARK   22  A    between atoms: C_26  and  C_28
REMARK   23  A    between atoms: C_28  and  O_30
REMARK   24  A    between atoms: C_28  and  C_31
REMARK   25  A    between atoms: C_31  and  C_32
REMARK   26  A    between atoms: C_31  and  C_33
REMARK   27  A    between atoms: C_31  and  C_34
REMARK   28  A    between atoms: C_34  and  O_35
REMARK   29  A    between atoms: O_35  and  P_36
REMARK   30  A    between atoms: P_36  and  O_37
REMARK   31  A    between atoms: P_36  and  O_39
REMARK   32  A    between atoms: O_39  and  P_40
REMARK   33  A    between atoms: P_40  and  O_41
REMARK   34  A    between atoms: P_40  and  O_43
REMARK   35  A    between atoms: O_43  and  C_44
REMARK   36  A    between atoms: C_44  and  C_45
REMARK   37  A    between atoms: C_48  and  N_60
REMARK   38  A    between atoms: C_50  and  O_52
REMARK   39  A    between atoms: C_53  and  O_55
REMARK   40  A    between atoms: O_55  and  P_56
REMARK   41  A    between atoms: P_56  and  O_57
REMARK   42  A    between atoms: P_56  and  O_58
REMARK                            x       y       z     vdW  Elec       q    Type
REMARK                         _______ _______ _______ _____ _____    ______ ____
ROOT
ATOM      1  O   UNL     1       8.374  -0.907  23.817  0.00  0.00    -0.286 OA
ENDROOT
BRANCH   1   2
ATOM      2  P   UNL     1       8.400  -2.527  23.919  0.00  0.00    +0.483 P 
ATOM      3  O   UNL     1       9.815  -3.034  23.654  0.00  0.00    -0.227 OA
BRANCH   2   4
ATOM      4  O   UNL     1       8.865  -2.286  25.568  0.00  0.00    -0.302 OA
ATOM      5  H   UNL     1       9.423  -1.481  25.513  0.00  0.00    +0.222 HD
ENDBRANCH   2   4
BRANCH   2   6
ATOM      6  O   UNL     1       7.935  -2.768  22.270  0.00  0.00    -0.186 OA
BRANCH   6   7
ATOM      7  P   UNL     1       6.516  -3.656  22.698  0.00  0.00    +0.483 P 
ATOM      8  O   UNL     1       6.775  -4.924  23.467  0.00  0.00    -0.227 OA
BRANCH   7   9
ATOM      9  O   UNL     1       5.963  -4.095  21.260  0.00  0.00    -0.302 OA
ATOM     10  H   UNL     1       5.172  -3.576  21.010  0.00  0.00    +0.222 HD
ENDBRANCH   7   9
BRANCH   7  11
ATOM     11  O   UNL     1       5.226  -2.892  23.352  0.00  0.00    -0.284 OA
BRANCH  11  12
ATOM     12  C   UNL     1       5.068  -2.865  24.803  0.00  0.00    +0.206 C 
BRANCH  12  13
ATOM     13  C   UNL     1       5.028  -4.164  25.767  0.00  0.00    +0.179 C 
ATOM     14  C   UNL     1       4.757  -3.931  27.269  0.00  0.00    +0.194 C 
ATOM     15  C   UNL     1       3.377  -4.508  27.619  0.00  0.00    +0.196 C 
ATOM     16  C   UNL     1       2.834  -4.984  26.297  0.00  0.00    +0.253 C 
ATOM     17  O   UNL     1       3.919  -5.044  25.335  0.00  0.00    -0.346 OA
BRANCH  16  18
ATOM     18  N   UNL     1       1.964  -6.164  26.291  0.00  0.00    -0.286 N 
ATOM     19  C   UNL     1       1.739  -6.963  25.172  0.00  0.00    +0.167 A 
ATOM     20  N   UNL     1       2.079  -6.691  23.881  0.00  0.00    -0.216 NA
ATOM     21  C   UNL     1       1.770  -7.755  23.091  0.00  0.00    +0.225 A 
ATOM     22  N   UNL     1       1.215  -8.943  23.413  0.00  0.00    -0.219 NA
ATOM     23  C   UNL     1       0.940  -9.172  24.722  0.00  0.00    +0.147 A 
ATOM     24  N   UNL     1       0.445 -10.416  25.082  0.00  0.00    -0.341 N 
ATOM     25  H   UNL     1       0.032 -10.463  26.020  0.00  0.00    +0.144 HD
ATOM     26  H   UNL     1      -0.005 -10.911  24.350  0.00  0.00    +0.144 HD
ATOM     27  C   UNL     1       1.202  -8.145  25.657  0.00  0.00    +0.147 A 
ATOM     28  N   UNL     1       1.077  -8.081  27.035  0.00  0.00    -0.231 NA
ATOM     29  C   UNL     1       1.591  -6.914  27.381  0.00  0.00    +0.203 A 
ENDBRANCH  16  18
BRANCH  15  30
ATOM     30  O   UNL     1       2.586  -3.447  28.181  0.00  0.00    -0.385 OA
ATOM     31  H   UNL     1       2.705  -3.471  29.157  0.00  0.00    +0.210 HD
ENDBRANCH  15  30
BRANCH  14  32
ATOM     32  O   UNL     1       5.712  -4.622  28.074  0.00  0.00    -0.278 OA
BRANCH  32  33
ATOM     33  P   UNL     1       6.888  -5.410  27.306  0.00  0.00    +0.473 P 
ATOM     34  O   UNL     1       7.977  -4.578  26.725  0.00  0.00    -0.228 OA
BRANCH  33  35
ATOM     35  O   UNL     1       7.386  -6.449  28.403  0.00  0.00    -0.303 OA
ATOM     36  H   UNL     1       8.208  -6.152  28.831  0.00  0.00    +0.222 HD
ENDBRANCH  33  35
BRANCH  33  37
ATOM     37  O   UNL     1       6.113  -6.321  26.251  0.00  0.00    -0.303 OA
ATOM     38  H   UNL     1       6.244  -6.005  25.335  0.00  0.00    +0.222 HD
ENDBRANCH  33  37
ENDBRANCH  32  33
ENDBRANCH  14  32
ENDBRANCH  12  13
ENDBRANCH  11  12
ENDBRANCH   7  11
ENDBRANCH   6   7
ENDBRANCH   2   6
ENDBRANCH   1   2
BRANCH   1  39
ATOM     39  C   UNL     1       9.083  -0.300  22.688  0.00  0.00    +0.181 C 
BRANCH  39  40
ATOM     40  C   UNL     1       9.740   0.952  23.249  0.00  0.00    +0.024 C 
ATOM     41  C   UNL     1      10.771   0.427  24.297  0.00  0.00    +0.016 C 
ATOM     42  C   UNL     1      10.215   1.564  21.920  0.00  0.00    +0.016 C 
BRANCH  40  43
ATOM     43  C   UNL     1       8.947   2.028  24.037  0.00  0.00    +0.208 C 
BRANCH  43  46
ATOM     44  N   UNL     1       8.232   3.802  22.607  0.00  0.00    -0.313 N 
ATOM     45  H   UNL     1       9.227   4.003  22.622  0.00  0.00    +0.149 HD
ATOM     46  C   UNL     1       7.834   2.651  23.229  0.00  0.00    +0.242 C 
ATOM     47  O   UNL     1       6.704   2.187  23.207  0.00  0.00    -0.273 OA
BRANCH  44  48
ATOM     48  C   UNL     1       7.328   4.866  22.328  0.00  0.00    +0.113 C 
BRANCH  48  49
ATOM     49  C   UNL     1       7.756   6.308  22.604  0.00  0.00    +0.114 C 
BRANCH  49  52
ATOM     50  N   UNL     1       8.424   6.933  24.911  0.00  0.00    -0.314 N 
ATOM     51  H   UNL     1       7.569   6.451  25.155  0.00  0.00    +0.149 HD
ATOM     52  C   UNL     1       8.849   6.589  23.642  0.00  0.00    +0.215 C 
ATOM     53  O   UNL     1      10.022   6.344  23.402  0.00  0.00    -0.276 OA
BRANCH  50  54
ATOM     54  C   UNL     1       9.310   7.106  26.066  0.00  0.00    +0.115 C 
BRANCH  54  55
ATOM     55  C   UNL     1       8.769   7.030  27.495  0.00  0.00    +0.088 C 
BRANCH  55  56
ATOM     56  S   UNL     1       7.097   6.425  27.799  0.00  0.00    -0.152 S 
BRANCH  56  57
ATOM     57  C   UNL     1       7.147   4.688  27.210  0.00  0.00    +0.143 C 
BRANCH  57  58
ATOM     58  C   UNL     1       6.434   3.878  28.281  0.00  0.00    +0.143 C 
ATOM     59  O   UNL     1       5.465   4.322  28.913  0.00  0.00    -0.297 OA
BRANCH  58  60
ATOM     60  C   UNL     1       6.992   2.596  28.776  0.00  0.00    +0.075 C 
BRANCH  60  61
ATOM     61  C   UNL     1       5.657   1.918  28.945  0.00  0.00    +0.008 C 
BRANCH  61  62
ATOM     62  C   UNL     1       5.561   0.532  28.462  0.00  0.00    +0.000 C 
BRANCH  62  63
ATOM     63  C   UNL     1       5.103   0.713  27.031  0.00  0.00    +0.000 C 
BRANCH  63  64
ATOM     64  C   UNL     1       3.862  -0.087  26.903  0.00  0.00    +0.000 C 
BRANCH  64  65
ATOM     65  C   UNL     1       2.839   0.415  27.877  0.00  0.00    +0.000 C 
BRANCH  65  66
ATOM     66  C   UNL     1       1.871   1.220  27.056  0.00  0.00    -0.000 C 
BRANCH  66  67
ATOM     67  C   UNL     1       2.332   2.649  26.999  0.00  0.00    -0.000 C 
BRANCH  67  68
ATOM     68  C   UNL     1       1.922   3.229  25.666  0.00  0.00    -0.000 C 
BRANCH  68  69
ATOM     69  C   UNL     1       3.096   3.166  24.713  0.00  0.00    -0.000 C 
BRANCH  69  70
ATOM     70  C   UNL     1       4.241   4.011  25.242  0.00  0.00    -0.000 C 
BRANCH  70  72
ATOM     71  C   UNL     1       3.920   5.978  23.732  0.00  0.00    +0.004 C 
ATOM     72  C   UNL     1       3.884   5.488  25.170  0.00  0.00    -0.003 C 
ENDBRANCH  70  72
ENDBRANCH  69  70
ENDBRANCH  68  69
ENDBRANCH  67  68
ENDBRANCH  66  67
ENDBRANCH  65  66
ENDBRANCH  64  65
ENDBRANCH  63  64
ENDBRANCH  62  63
ENDBRANCH  61  62
ENDBRANCH  60  61
ENDBRANCH  58  60
ENDBRANCH  57  58
ENDBRANCH  56  57
ENDBRANCH  55  56
ENDBRANCH  54  55
ENDBRANCH  50  54
ENDBRANCH  49  52
ENDBRANCH  48  49
ENDBRANCH  44  48
ENDBRANCH  43  46
BRANCH  43  73
ATOM     73  O   UNL     1       8.409   1.549  25.258  0.00  0.00    -0.382 OA
ATOM     74  H   UNL     1       7.447   1.711  25.175  0.00  0.00    +0.210 HD
ENDBRANCH  43  73
ENDBRANCH  40  43
ENDBRANCH  39  40
ENDBRANCH   1  39
TORSDOF 39
ENDMDL
