MODEL 1
REMARK VINA RESULT:      -6.6      0.000      0.000
REMARK  Name = 
REMARK  20 active torsions:
REMARK  status: ('A' for Active; 'I' for Inactive)
REMARK    1  A    between atoms: C_1  and  C_2
REMARK    2  A    between atoms: N_4  and  C_5
REMARK    3  A    between atoms: C_8  and  N_10
REMARK    4  A    between atoms: C_13  and  C_15
REMARK    5  A    between atoms: C_15  and  O_16
REMARK    6  A    between atoms: O_16  and  P_17
REMARK    7  A    between atoms: P_17  and  O_20
REMARK    8  A    between atoms: O_20  and  P_21
REMARK    9  A    between atoms: P_21  and  O_24
REMARK   10  A    between atoms: O_24  and  P_25
REMARK   11  A    between atoms: P_25  and  O_28
REMARK   12  A    between atoms: O_28  and  P_29
REMARK   13  A    between atoms: P_29  and  O_32
REMARK   14  A    between atoms: O_32  and  P_33
REMARK   15  A    between atoms: P_33  and  O_36
REMARK   16  A    between atoms: O_36  and  C_37
REMARK   17  A    between atoms: C_37  and  C_38
REMARK   18  A    between atoms: C_41  and  N_49
REMARK   19  A    between atoms: C_43  and  O_45
REMARK   20  A    between atoms: C_46  and  O_48
REMARK                            x       y       z     vdW  Elec       q    Type
REMARK                         _______ _______ _______ _____ _____    ______ ____
ROOT
ATOM      1  P   UNL     1       4.950   5.147  23.232  0.00  0.00    +0.224 P 
ATOM      2  O   UNL     1       3.727   4.530  22.176  0.00  0.00    -0.437 OA
ATOM      3  O   UNL     1       5.595   3.736  23.419  0.00  0.00    -0.517 OA
ENDROOT
BRANCH   1   4
ATOM      4  O   UNL     1       3.789   5.258  24.511  0.00  0.00    -0.270 OA
BRANCH   4   5
ATOM      5  P   UNL     1       3.818   3.791  25.428  0.00  0.00    +0.224 P 
ATOM      6  O   UNL     1       3.928   4.601  26.765  0.00  0.00    -0.517 OA
ATOM      7  O   UNL     1       2.354   3.471  24.996  0.00  0.00    -0.437 OA
BRANCH   5   8
ATOM      8  O   UNL     1       3.846   2.325  26.344  0.00  0.00    -0.270 OA
BRANCH   8   9
ATOM      9  P   UNL     1       5.173   2.364  27.455  0.00  0.00    +0.218 P 
ATOM     10  O   UNL     1       6.499   2.404  28.564  0.00  0.00    -0.437 OA
ATOM     11  O   UNL     1       6.120   2.128  26.229  0.00  0.00    -0.517 OA
BRANCH   9  12
ATOM     12  O   UNL     1       4.793   0.840  28.102  0.00  0.00    -0.325 OA
BRANCH  12  13
ATOM     13  C   UNL     1       5.380  -0.437  27.832  0.00  0.00    +0.202 C 
BRANCH  13  16
ATOM     14  C   UNL     1       5.291  -3.725  26.364  0.00  0.00    +0.226 C 
ATOM     15  O   UNL     1       4.801  -2.385  26.017  0.00  0.00    -0.349 OA
ATOM     16  C   UNL     1       4.443  -1.678  27.291  0.00  0.00    +0.178 C 
ATOM     17  C   UNL     1       4.195  -2.824  28.263  0.00  0.00    +0.226 C 
ATOM     18  C   UNL     1       5.316  -3.762  27.886  0.00  0.00    +0.091 C 
BRANCH  14  27
ATOM     19  C   UNL     1       1.858  -5.915  23.240  0.00  0.00    +0.051 C 
ATOM     20  C   UNL     1       2.907  -5.886  24.307  0.00  0.00    +0.030 A 
ATOM     21  C   UNL     1       3.396  -7.230  24.699  0.00  0.00    +0.257 A 
ATOM     22  O   UNL     1       3.060  -8.267  24.110  0.00  0.00    -0.267 OA
ATOM     23  N   UNL     1       4.290  -7.234  25.732  0.00  0.00    -0.275 N 
ATOM     24  H   UNL     1       4.714  -8.119  25.956  0.00  0.00    +0.173 HD
ATOM     25  C   UNL     1       5.081  -6.156  26.026  0.00  0.00    +0.331 A 
ATOM     26  O   UNL     1       6.225  -6.373  26.413  0.00  0.00    -0.246 OA
ATOM     27  N   UNL     1       4.530  -4.896  25.774  0.00  0.00    -0.274 N 
ATOM     28  C   UNL     1       3.447  -4.799  24.906  0.00  0.00    +0.101 A 
ENDBRANCH  14  27
BRANCH  17  29
ATOM     29  N   UNL     1       2.883  -3.484  27.970  0.00  0.00    +0.082 NA
ATOM     30  N   UNL     1       2.683  -4.556  28.573  0.00  0.00    -0.014 NA
ATOM     31  N   UNL     1       2.360  -5.510  29.115  0.00  0.00    -0.328 NA
ENDBRANCH  17  29
ENDBRANCH  13  16
ENDBRANCH  12  13
ENDBRANCH   9  12
ENDBRANCH   8   9
ENDBRANCH   5   8
ENDBRANCH   4   5
ENDBRANCH   1   4
BRANCH   1  32
ATOM     32  O   UNL     1       6.172   5.765  24.289  0.00  0.00    -0.270 OA
BRANCH  32  33
ATOM     33  P   UNL     1       7.866   5.970  23.387  0.00  0.00    +0.224 P 
ATOM     34  O   UNL     1       7.492   6.228  21.927  0.00  0.00    -0.517 OA
ATOM     35  O   UNL     1       8.532   7.104  24.156  0.00  0.00    -0.437 OA
BRANCH  33  36
ATOM     36  O   UNL     1       9.288   4.770  23.161  0.00  0.00    -0.270 OA
BRANCH  36  37
ATOM     37  P   UNL     1       9.458   3.056  23.317  0.00  0.00    +0.218 P 
ATOM     38  O   UNL     1       8.454   2.758  22.183  0.00  0.00    -0.517 OA
ATOM     39  O   UNL     1       8.904   3.131  24.758  0.00  0.00    -0.437 OA
BRANCH  37  40
ATOM     40  O   UNL     1       9.629   1.341  23.474  0.00  0.00    -0.325 OA
BRANCH  40  41
ATOM     41  C   UNL     1      10.676   0.842  24.290  0.00  0.00    +0.202 C 
BRANCH  41  42
ATOM     42  C   UNL     1      10.193  -0.257  25.238  0.00  0.00    +0.178 C 
ATOM     43  C   UNL     1       8.829   0.006  25.886  0.00  0.00    +0.178 C 
ATOM     44  C   UNL     1       7.858  -0.937  25.168  0.00  0.00    +0.195 C 
ATOM     45  C   UNL     1       8.703  -1.563  24.049  0.00  0.00    +0.253 C 
ATOM     46  O   UNL     1      10.058  -1.522  24.556  0.00  0.00    -0.346 OA
BRANCH  45  47
ATOM     47  N   UNL     1       8.351  -2.952  23.796  0.00  0.00    -0.286 N 
ATOM     48  C   UNL     1       7.260  -3.378  23.089  0.00  0.00    +0.167 A 
ATOM     49  N   UNL     1       6.334  -2.635  22.467  0.00  0.00    -0.216 NA
ATOM     50  C   UNL     1       5.415  -3.401  21.860  0.00  0.00    +0.225 A 
ATOM     51  N   UNL     1       5.317  -4.753  21.860  0.00  0.00    -0.219 NA
ATOM     52  C   UNL     1       6.267  -5.454  22.519  0.00  0.00    +0.147 A 
ATOM     53  N   UNL     1       6.192  -6.852  22.484  0.00  0.00    -0.341 N 
ATOM     54  H   UNL     1       7.125  -7.239  22.600  0.00  0.00    +0.144 HD
ATOM     55  H   UNL     1       5.710  -7.117  21.634  0.00  0.00    +0.144 HD
ATOM     56  C   UNL     1       7.304  -4.759  23.163  0.00  0.00    +0.147 A 
ATOM     57  N   UNL     1       8.403  -5.185  23.882  0.00  0.00    -0.231 NA
ATOM     58  C   UNL     1       9.030  -4.070  24.209  0.00  0.00    +0.203 A 
ENDBRANCH  45  47
BRANCH  43  59
ATOM     59  O   UNL     1       8.889  -0.390  27.285  0.00  0.00    -0.386 OA
ATOM     60  H   UNL     1       7.980  -0.612  27.550  0.00  0.00    +0.210 HD
ENDBRANCH  43  59
BRANCH  44  61
ATOM     61  O   UNL     1       6.668  -0.273  24.748  0.00  0.00    -0.385 OA
ATOM     62  H   UNL     1       6.388  -0.669  23.895  0.00  0.00    +0.210 HD
ENDBRANCH  44  61
ENDBRANCH  41  42
ENDBRANCH  40  41
ENDBRANCH  37  40
ENDBRANCH  36  37
ENDBRANCH  33  36
ENDBRANCH  32  33
ENDBRANCH   1  32
TORSDOF 19
ENDMDL
MODEL 2
REMARK VINA RESULT:      -6.4      2.275      4.240
REMARK  Name = 
REMARK  20 active torsions:
REMARK  status: ('A' for Active; 'I' for Inactive)
REMARK    1  A    between atoms: C_1  and  C_2
REMARK    2  A    between atoms: N_4  and  C_5
REMARK    3  A    between atoms: C_8  and  N_10
REMARK    4  A    between atoms: C_13  and  C_15
REMARK    5  A    between atoms: C_15  and  O_16
REMARK    6  A    between atoms: O_16  and  P_17
REMARK    7  A    between atoms: P_17  and  O_20
REMARK    8  A    between atoms: O_20  and  P_21
REMARK    9  A    between atoms: P_21  and  O_24
REMARK   10  A    between atoms: O_24  and  P_25
REMARK   11  A    between atoms: P_25  and  O_28
REMARK   12  A    between atoms: O_28  and  P_29
REMARK   13  A    between atoms: P_29  and  O_32
REMARK   14  A    between atoms: O_32  and  P_33
REMARK   15  A    between atoms: P_33  and  O_36
REMARK   16  A    between atoms: O_36  and  C_37
REMARK   17  A    between atoms: C_37  and  C_38
REMARK   18  A    between atoms: C_41  and  N_49
REMARK   19  A    between atoms: C_43  and  O_45
REMARK   20  A    between atoms: C_46  and  O_48
REMARK                            x       y       z     vdW  Elec       q    Type
REMARK                         _______ _______ _______ _____ _____    ______ ____
ROOT
ATOM      1  P   UNL     1       6.245   2.501  27.249  0.00  0.00    +0.224 P 
ATOM      2  O   UNL     1       7.556   1.568  26.615  0.00  0.00    -0.437 OA
ATOM      3  O   UNL     1       7.204   3.623  27.762  0.00  0.00    -0.517 OA
ENDROOT
BRANCH   1   4
ATOM      4  O   UNL     1       6.115   1.409  28.586  0.00  0.00    -0.270 OA
BRANCH   4   5
ATOM      5  P   UNL     1       4.552   0.667  28.559  0.00  0.00    +0.224 P 
ATOM      6  O   UNL     1       5.130  -0.579  27.806  0.00  0.00    -0.517 OA
ATOM      7  O   UNL     1       4.567   0.536  30.113  0.00  0.00    -0.437 OA
BRANCH   5   8
ATOM      8  O   UNL     1       2.989  -0.074  28.532  0.00  0.00    -0.270 OA
BRANCH   8   9
ATOM      9  P   UNL     1       1.987   0.735  27.376  0.00  0.00    +0.218 P 
ATOM     10  O   UNL     1       0.985   1.544  26.221  0.00  0.00    -0.437 OA
ATOM     11  O   UNL     1       1.656   1.782  28.495  0.00  0.00    -0.517 OA
BRANCH   9  12
ATOM     12  O   UNL     1       0.790  -0.469  27.438  0.00  0.00    -0.325 OA
BRANCH  12  13
ATOM     13  C   UNL     1       0.927  -1.894  27.396  0.00  0.00    +0.202 C 
BRANCH  13  16
ATOM     14  C   UNL     1       3.908  -3.509  26.180  0.00  0.00    +0.226 C 
ATOM     15  O   UNL     1       3.123  -2.315  25.840  0.00  0.00    -0.349 OA
ATOM     16  C   UNL     1       1.680  -2.613  26.121  0.00  0.00    +0.178 C 
ATOM     17  C   UNL     1       1.624  -4.133  26.059  0.00  0.00    +0.226 C 
ATOM     18  C   UNL     1       2.906  -4.492  26.770  0.00  0.00    +0.091 C 
BRANCH  14  27
ATOM     19  C   UNL     1       6.588  -3.395  21.804  0.00  0.00    +0.051 C 
ATOM     20  C   UNL     1       5.960  -4.035  23.003  0.00  0.00    +0.030 A 
ATOM     21  C   UNL     1       6.365  -5.447  23.205  0.00  0.00    +0.257 A 
ATOM     22  O   UNL     1       7.236  -6.002  22.521  0.00  0.00    -0.267 OA
ATOM     23  N   UNL     1       5.738  -6.079  24.241  0.00  0.00    -0.275 N 
ATOM     24  H   UNL     1       6.062  -7.005  24.465  0.00  0.00    +0.173 HD
ATOM     25  C   UNL     1       5.225  -5.401  25.315  0.00  0.00    +0.331 A 
ATOM     26  O   UNL     1       5.311  -5.929  26.420  0.00  0.00    -0.246 OA
ATOM     27  N   UNL     1       4.721  -4.122  25.058  0.00  0.00    -0.274 N 
ATOM     28  C   UNL     1       5.114  -3.468  23.895  0.00  0.00    +0.101 A 
ENDBRANCH  14  27
BRANCH  17  29
ATOM     29  N   UNL     1       1.701  -4.603  24.640  0.00  0.00    +0.082 NA
ATOM     30  N   UNL     1       1.442  -5.810  24.466  0.00  0.00    -0.014 NA
ATOM     31  N   UNL     1       1.161  -6.879  24.175  0.00  0.00    -0.328 NA
ENDBRANCH  17  29
ENDBRANCH  13  16
ENDBRANCH  12  13
ENDBRANCH   9  12
ENDBRANCH   8   9
ENDBRANCH   5   8
ENDBRANCH   4   5
ENDBRANCH   1   4
BRANCH   1  32
ATOM     32  O   UNL     1       4.933   3.434  27.885  0.00  0.00    -0.270 OA
BRANCH  32  33
ATOM     33  P   UNL     1       4.337   4.779  26.636  0.00  0.00    +0.224 P 
ATOM     34  O   UNL     1       2.943   4.314  26.210  0.00  0.00    -0.517 OA
ATOM     35  O   UNL     1       4.436   6.067  27.442  0.00  0.00    -0.437 OA
BRANCH  33  36
ATOM     36  O   UNL     1       5.034   5.308  24.977  0.00  0.00    -0.270 OA
BRANCH  36  37
ATOM     37  P   UNL     1       5.910   4.501  23.723  0.00  0.00    +0.218 P 
ATOM     38  O   UNL     1       5.646   5.617  22.691  0.00  0.00    -0.517 OA
ATOM     39  O   UNL     1       4.907   3.327  23.776  0.00  0.00    -0.437 OA
BRANCH  37  40
ATOM     40  O   UNL     1       6.787   3.693  22.470  0.00  0.00    -0.325 OA
BRANCH  40  41
ATOM     41  C   UNL     1       6.643   2.288  22.348  0.00  0.00    +0.202 C 
BRANCH  41  42
ATOM     42  C   UNL     1       7.946   1.611  21.918  0.00  0.00    +0.178 C 
ATOM     43  C   UNL     1       9.212   2.176  22.572  0.00  0.00    +0.178 C 
ATOM     44  C   UNL     1       9.635   1.122  23.600  0.00  0.00    +0.195 C 
ATOM     45  C   UNL     1       8.494   0.095  23.574  0.00  0.00    +0.253 C 
ATOM     46  O   UNL     1       7.943   0.204  22.241  0.00  0.00    -0.346 OA
BRANCH  45  47
ATOM     47  N   UNL     1       8.967  -1.267  23.765  0.00  0.00    -0.286 N 
ATOM     48  C   UNL     1       8.609  -2.095  24.794  0.00  0.00    +0.167 A 
ATOM     49  N   UNL     1       7.748  -1.852  25.791  0.00  0.00    -0.216 NA
ATOM     50  C   UNL     1       7.634  -2.908  26.612  0.00  0.00    +0.225 A 
ATOM     51  N   UNL     1       8.299  -4.088  26.557  0.00  0.00    -0.219 NA
ATOM     52  C   UNL     1       9.170  -4.275  25.540  0.00  0.00    +0.147 A 
ATOM     53  N   UNL     1       9.825  -5.510  25.457  0.00  0.00    -0.341 N 
ATOM     54  H   UNL     1      10.071  -5.691  24.487  0.00  0.00    +0.144 HD
ATOM     55  H   UNL     1       9.235  -6.205  25.897  0.00  0.00    +0.144 HD
ATOM     56  C   UNL     1       9.344  -3.250  24.595  0.00  0.00    +0.147 A 
ATOM     57  N   UNL     1      10.128  -3.153  23.462  0.00  0.00    -0.231 NA
ATOM     58  C   UNL     1       9.841  -1.963  22.968  0.00  0.00    +0.203 A 
ENDBRANCH  45  47
BRANCH  43  59
ATOM     59  O   UNL     1      10.259   2.272  21.566  0.00  0.00    -0.386 OA
ATOM     60  H   UNL     1      11.044   2.629  22.016  0.00  0.00    +0.210 HD
ENDBRANCH  43  59
BRANCH  44  61
ATOM     61  O   UNL     1       9.927   1.693  24.874  0.00  0.00    -0.385 OA
ATOM     62  H   UNL     1       9.157   2.239  25.142  0.00  0.00    +0.210 HD
ENDBRANCH  44  61
ENDBRANCH  41  42
ENDBRANCH  40  41
ENDBRANCH  37  40
ENDBRANCH  36  37
ENDBRANCH  33  36
ENDBRANCH  32  33
ENDBRANCH   1  32
TORSDOF 19
ENDMDL
MODEL 3
REMARK VINA RESULT:      -6.4      1.632      2.650
REMARK  Name = 
REMARK  20 active torsions:
REMARK  status: ('A' for Active; 'I' for Inactive)
REMARK    1  A    between atoms: C_1  and  C_2
REMARK    2  A    between atoms: N_4  and  C_5
REMARK    3  A    between atoms: C_8  and  N_10
REMARK    4  A    between atoms: C_13  and  C_15
REMARK    5  A    between atoms: C_15  and  O_16
REMARK    6  A    between atoms: O_16  and  P_17
REMARK    7  A    between atoms: P_17  and  O_20
REMARK    8  A    between atoms: O_20  and  P_21
REMARK    9  A    between atoms: P_21  and  O_24
REMARK   10  A    between atoms: O_24  and  P_25
REMARK   11  A    between atoms: P_25  and  O_28
REMARK   12  A    between atoms: O_28  and  P_29
REMARK   13  A    between atoms: P_29  and  O_32
REMARK   14  A    between atoms: O_32  and  P_33
REMARK   15  A    between atoms: P_33  and  O_36
REMARK   16  A    between atoms: O_36  and  C_37
REMARK   17  A    between atoms: C_37  and  C_38
REMARK   18  A    between atoms: C_41  and  N_49
REMARK   19  A    between atoms: C_43  and  O_45
REMARK   20  A    between atoms: C_46  and  O_48
REMARK                            x       y       z     vdW  Elec       q    Type
REMARK                         _______ _______ _______ _____ _____    ______ ____
ROOT
ATOM      1  P   UNL     1       7.048   4.113  25.858  0.00  0.00    +0.224 P 
ATOM      2  O   UNL     1       7.591   2.863  26.922  0.00  0.00    -0.437 OA
ATOM      3  O   UNL     1       7.296   5.224  26.929  0.00  0.00    -0.517 OA
ENDROOT
BRANCH   1   4
ATOM      4  O   UNL     1       5.408   3.626  26.122  0.00  0.00    -0.270 OA
BRANCH   4   5
ATOM      5  P   UNL     1       5.396   2.054  26.844  0.00  0.00    +0.224 P 
ATOM      6  O   UNL     1       4.649   2.612  28.103  0.00  0.00    -0.517 OA
ATOM      7  O   UNL     1       4.448   1.527  25.723  0.00  0.00    -0.437 OA
BRANCH   5   8
ATOM      8  O   UNL     1       5.384   0.482  27.566  0.00  0.00    -0.270 OA
BRANCH   8   9
ATOM      9  P   UNL     1       3.923  -0.339  27.135  0.00  0.00    +0.218 P 
ATOM     10  O   UNL     1       2.462  -1.160  26.705  0.00  0.00    -0.437 OA
ATOM     11  O   UNL     1       3.635  -0.493  28.669  0.00  0.00    -0.517 OA
BRANCH   9  12
ATOM     12  O   UNL     1       4.750  -1.735  26.633  0.00  0.00    -0.325 OA
BRANCH  12  13
ATOM     13  C   UNL     1       4.862  -3.010  27.275  0.00  0.00    +0.202 C 
BRANCH  13  16
ATOM     14  C   UNL     1       4.097  -5.570  24.860  0.00  0.00    +0.226 C 
ATOM     15  O   UNL     1       3.425  -4.390  25.417  0.00  0.00    -0.349 OA
ATOM     16  C   UNL     1       3.857  -4.241  26.846  0.00  0.00    +0.178 C 
ATOM     17  C   UNL     1       4.298  -5.649  27.221  0.00  0.00    +0.226 C 
ATOM     18  C   UNL     1       5.025  -6.062  25.964  0.00  0.00    +0.091 C 
BRANCH  14  27
ATOM     19  C   UNL     1       1.373  -9.904  25.235  0.00  0.00    +0.051 C 
ATOM     20  C   UNL     1       1.944  -8.708  24.540  0.00  0.00    +0.030 A 
ATOM     21  C   UNL     1       1.384  -8.481  23.185  0.00  0.00    +0.257 A 
ATOM     22  O   UNL     1       0.443  -9.144  22.727  0.00  0.00    -0.267 OA
ATOM     23  N   UNL     1       1.952  -7.447  22.497  0.00  0.00    -0.275 N 
ATOM     24  H   UNL     1       1.527  -7.207  21.617  0.00  0.00    +0.173 HD
ATOM     25  C   UNL     1       2.557  -6.391  23.123  0.00  0.00    +0.331 A 
ATOM     26  O   UNL     1       2.430  -5.278  22.620  0.00  0.00    -0.246 OA
ATOM     27  N   UNL     1       3.199  -6.671  24.332  0.00  0.00    -0.274 N 
ATOM     28  C   UNL     1       2.864  -7.836  25.015  0.00  0.00    +0.101 A 
ENDBRANCH  14  27
BRANCH  17  29
ATOM     29  N   UNL     1       3.108  -6.537  27.414  0.00  0.00    +0.082 NA
ATOM     30  N   UNL     1       2.183  -6.046  28.089  0.00  0.00    -0.014 NA
ATOM     31  N   UNL     1       1.247  -5.681  28.635  0.00  0.00    -0.328 NA
ENDBRANCH  17  29
ENDBRANCH  13  16
ENDBRANCH  12  13
ENDBRANCH   9  12
ENDBRANCH   8   9
ENDBRANCH   5   8
ENDBRANCH   4   5
ENDBRANCH   1   4
BRANCH   1  32
ATOM     32  O   UNL     1       6.504   5.364  24.794  0.00  0.00    -0.270 OA
BRANCH  32  33
ATOM     33  P   UNL     1       6.476   4.781  22.954  0.00  0.00    +0.224 P 
ATOM     34  O   UNL     1       5.192   3.958  22.834  0.00  0.00    -0.517 OA
ATOM     35  O   UNL     1       6.552   6.088  22.176  0.00  0.00    -0.437 OA
BRANCH  33  36
ATOM     36  O   UNL     1       7.661   3.691  21.995  0.00  0.00    -0.270 OA
BRANCH  36  37
ATOM     37  P   UNL     1       8.600   2.292  22.386  0.00  0.00    +0.218 P 
ATOM     38  O   UNL     1       7.361   1.444  22.743  0.00  0.00    -0.517 OA
ATOM     39  O   UNL     1       9.285   3.071  23.531  0.00  0.00    -0.437 OA
BRANCH  37  40
ATOM     40  O   UNL     1       9.541   0.893  22.776  0.00  0.00    -0.325 OA
BRANCH  40  41
ATOM     41  C   UNL     1      10.383   0.947  23.915  0.00  0.00    +0.202 C 
BRANCH  41  42
ATOM     42  C   UNL     1      10.082  -0.178  24.907  0.00  0.00    +0.178 C 
ATOM     43  C   UNL     1       8.771  -0.016  25.686  0.00  0.00    +0.178 C 
ATOM     44  C   UNL     1       7.811  -1.036  25.067  0.00  0.00    +0.195 C 
ATOM     45  C   UNL     1       8.587  -1.604  23.871  0.00  0.00    +0.253 C 
ATOM     46  O   UNL     1       9.978  -1.455  24.243  0.00  0.00    -0.346 OA
BRANCH  45  47
ATOM     47  N   UNL     1       8.320  -3.018  23.655  0.00  0.00    -0.286 N 
ATOM     48  C   UNL     1       7.368  -3.527  22.814  0.00  0.00    +0.167 A 
ATOM     49  N   UNL     1       6.532  -2.857  22.009  0.00  0.00    -0.216 NA
ATOM     50  C   UNL     1       5.743  -3.693  21.315  0.00  0.00    +0.225 A 
ATOM     51  N   UNL     1       5.685  -5.045  21.386  0.00  0.00    -0.219 NA
ATOM     52  C   UNL     1       6.539  -5.670  22.228  0.00  0.00    +0.147 A 
ATOM     53  N   UNL     1       6.510  -7.069  22.271  0.00  0.00    -0.341 N 
ATOM     54  H   UNL     1       7.424  -7.412  22.556  0.00  0.00    +0.144 HD
ATOM     55  H   UNL     1       6.178  -7.401  21.374  0.00  0.00    +0.144 HD
ATOM     56  C   UNL     1       7.440  -4.898  22.981  0.00  0.00    +0.147 A 
ATOM     57  N   UNL     1       8.423  -5.239  23.889  0.00  0.00    -0.231 NA
ATOM     58  C   UNL     1       8.957  -4.084  24.239  0.00  0.00    +0.203 A 
ENDBRANCH  45  47
BRANCH  43  59
ATOM     59  O   UNL     1       8.999  -0.394  27.072  0.00  0.00    -0.386 OA
ATOM     60  H   UNL     1       9.930  -0.189  27.266  0.00  0.00    +0.210 HD
ENDBRANCH  43  59
BRANCH  44  61
ATOM     61  O   UNL     1       6.537  -0.468  24.766  0.00  0.00    -0.385 OA
ATOM     62  H   UNL     1       6.227   0.013  25.564  0.00  0.00    +0.210 HD
ENDBRANCH  44  61
ENDBRANCH  41  42
ENDBRANCH  40  41
ENDBRANCH  37  40
ENDBRANCH  36  37
ENDBRANCH  33  36
ENDBRANCH  32  33
ENDBRANCH   1  32
TORSDOF 19
ENDMDL
MODEL 4
REMARK VINA RESULT:      -6.3      2.133      6.186
REMARK  Name = 
REMARK  20 active torsions:
REMARK  status: ('A' for Active; 'I' for Inactive)
REMARK    1  A    between atoms: C_1  and  C_2
REMARK    2  A    between atoms: N_4  and  C_5
REMARK    3  A    between atoms: C_8  and  N_10
REMARK    4  A    between atoms: C_13  and  C_15
REMARK    5  A    between atoms: C_15  and  O_16
REMARK    6  A    between atoms: O_16  and  P_17
REMARK    7  A    between atoms: P_17  and  O_20
REMARK    8  A    between atoms: O_20  and  P_21
REMARK    9  A    between atoms: P_21  and  O_24
REMARK   10  A    between atoms: O_24  and  P_25
REMARK   11  A    between atoms: P_25  and  O_28
REMARK   12  A    between atoms: O_28  and  P_29
REMARK   13  A    between atoms: P_29  and  O_32
REMARK   14  A    between atoms: O_32  and  P_33
REMARK   15  A    between atoms: P_33  and  O_36
REMARK   16  A    between atoms: O_36  and  C_37
REMARK   17  A    between atoms: C_37  and  C_38
REMARK   18  A    between atoms: C_41  and  N_49
REMARK   19  A    between atoms: C_43  and  O_45
REMARK   20  A    between atoms: C_46  and  O_48
REMARK                            x       y       z     vdW  Elec       q    Type
REMARK                         _______ _______ _______ _____ _____    ______ ____
ROOT
ATOM      1  P   UNL     1       3.058   3.354  24.525  0.00  0.00    +0.224 P 
ATOM      2  O   UNL     1       2.586   3.091  22.882  0.00  0.00    -0.437 OA
ATOM      3  O   UNL     1       3.540   4.810  24.223  0.00  0.00    -0.517 OA
ENDROOT
BRANCH   1   4
ATOM      4  O   UNL     1       4.466   2.379  24.277  0.00  0.00    -0.270 OA
BRANCH   4   5
ATOM      5  P   UNL     1       5.718   3.358  23.594  0.00  0.00    +0.224 P 
ATOM      6  O   UNL     1       6.546   3.269  24.921  0.00  0.00    -0.517 OA
ATOM      7  O   UNL     1       6.052   2.241  22.558  0.00  0.00    -0.437 OA
BRANCH   5   8
ATOM      8  O   UNL     1       6.969   4.338  22.911  0.00  0.00    -0.270 OA
BRANCH   8   9
ATOM      9  P   UNL     1       8.062   4.830  24.159  0.00  0.00    +0.218 P 
ATOM     10  O   UNL     1       9.155   5.323  25.406  0.00  0.00    -0.437 OA
ATOM     11  O   UNL     1       7.853   6.305  23.669  0.00  0.00    -0.517 OA
BRANCH   9  12
ATOM     12  O   UNL     1       9.416   4.213  23.339  0.00  0.00    -0.325 OA
BRANCH  12  13
ATOM     13  C   UNL     1       9.975   2.895  23.365  0.00  0.00    +0.202 C 
BRANCH  13  16
ATOM     14  C   UNL     1       9.607  -0.669  22.992  0.00  0.00    +0.226 C 
ATOM     15  O   UNL     1       8.943   0.535  22.476  0.00  0.00    -0.349 OA
ATOM     16  C   UNL     1       8.992   1.586  23.546  0.00  0.00    +0.178 C 
ATOM     17  C   UNL     1       9.162   0.772  24.821  0.00  0.00    +0.226 C 
ATOM     18  C   UNL     1      10.148  -0.274  24.360  0.00  0.00    +0.091 C 
BRANCH  14  27
ATOM     19  C   UNL     1       5.793  -3.764  21.506  0.00  0.00    +0.051 C 
ATOM     20  C   UNL     1       6.967  -3.349  22.335  0.00  0.00    +0.030 A 
ATOM     21  C   UNL     1       7.491  -4.426  23.210  0.00  0.00    +0.257 A 
ATOM     22  O   UNL     1       7.075  -5.592  23.164  0.00  0.00    -0.267 OA
ATOM     23  N   UNL     1       8.506  -4.046  24.040  0.00  0.00    -0.275 N 
ATOM     24  H   UNL     1       8.948  -4.776  24.574  0.00  0.00    +0.173 HD
ATOM     25  C   UNL     1       9.337  -2.995  23.754  0.00  0.00    +0.331 A 
ATOM     26  O   UNL     1      10.519  -3.097  24.070  0.00  0.00    -0.246 OA
ATOM     27  N   UNL     1       8.769  -1.930  23.048  0.00  0.00    -0.274 N 
ATOM     28  C   UNL     1       7.587  -2.145  22.347  0.00  0.00    +0.101 A 
ENDBRANCH  14  27
BRANCH  17  29
ATOM     29  N   UNL     1       7.875   0.103  25.191  0.00  0.00    +0.082 NA
ATOM     30  N   UNL     1       7.752  -0.180  26.399  0.00  0.00    -0.014 NA
ATOM     31  N   UNL     1       7.498  -0.428  27.485  0.00  0.00    -0.328 NA
ENDBRANCH  17  29
ENDBRANCH  13  16
ENDBRANCH  12  13
ENDBRANCH   9  12
ENDBRANCH   8   9
ENDBRANCH   5   8
ENDBRANCH   4   5
ENDBRANCH   1   4
BRANCH   1  32
ATOM     32  O   UNL     1       3.531   3.618  26.168  0.00  0.00    -0.270 OA
BRANCH  32  33
ATOM     33  P   UNL     1       3.527   1.979  27.188  0.00  0.00    +0.224 P 
ATOM     34  O   UNL     1       5.002   1.716  27.494  0.00  0.00    -0.517 OA
ATOM     35  O   UNL     1       2.611   2.305  28.361  0.00  0.00    -0.437 OA
BRANCH  33  36
ATOM     36  O   UNL     1       2.966   0.250  26.730  0.00  0.00    -0.270 OA
BRANCH  36  37
ATOM     37  P   UNL     1       3.441  -1.341  27.215  0.00  0.00    +0.218 P 
ATOM     38  O   UNL     1       2.442  -2.031  26.262  0.00  0.00    -0.517 OA
ATOM     39  O   UNL     1       2.965  -1.045  28.655  0.00  0.00    -0.437 OA
BRANCH  37  40
ATOM     40  O   UNL     1       3.917  -2.932  27.700  0.00  0.00    -0.325 OA
BRANCH  40  41
ATOM     41  C   UNL     1       5.301  -3.204  27.845  0.00  0.00    +0.202 C 
BRANCH  41  42
ATOM     42  C   UNL     1       5.852  -4.020  26.674  0.00  0.00    +0.178 C 
ATOM     43  C   UNL     1       6.355  -5.420  27.045  0.00  0.00    +0.178 C 
ATOM     44  C   UNL     1       5.289  -6.381  26.510  0.00  0.00    +0.195 C 
ATOM     45  C   UNL     1       4.170  -5.458  26.007  0.00  0.00    +0.253 C 
ATOM     46  O   UNL     1       4.849  -4.229  25.657  0.00  0.00    -0.346 OA
BRANCH  45  47
ATOM     47  N   UNL     1       3.515  -5.975  24.815  0.00  0.00    -0.286 N 
ATOM     48  C   UNL     1       2.694  -7.068  24.771  0.00  0.00    +0.167 A 
ATOM     49  N   UNL     1       2.298  -7.848  25.787  0.00  0.00    -0.216 NA
ATOM     50  C   UNL     1       1.475  -8.822  25.368  0.00  0.00    +0.225 A 
ATOM     51  N   UNL     1       1.078  -9.098  24.101  0.00  0.00    -0.219 NA
ATOM     52  C   UNL     1       1.521  -8.290  23.111  0.00  0.00    +0.147 A 
ATOM     53  N   UNL     1       1.078  -8.548  21.808  0.00  0.00    -0.341 N 
ATOM     54  H   UNL     1       1.094  -7.682  21.274  0.00  0.00    +0.144 HD
ATOM     55  H   UNL     1       0.178  -9.007  21.871  0.00  0.00    +0.144 HD
ATOM     56  C   UNL     1       2.361  -7.211  23.436  0.00  0.00    +0.147 A 
ATOM     57  N   UNL     1       2.945  -6.224  22.668  0.00  0.00    -0.231 NA
ATOM     58  C   UNL     1       3.596  -5.476  23.539  0.00  0.00    +0.203 A 
ENDBRANCH  45  47
BRANCH  43  59
ATOM     59  O   UNL     1       7.595  -5.679  26.329  0.00  0.00    -0.386 OA
ATOM     60  H   UNL     1       8.259  -5.071  26.698  0.00  0.00    +0.210 HD
ENDBRANCH  43  59
BRANCH  44  61
ATOM     61  O   UNL     1       4.901  -7.355  27.478  0.00  0.00    -0.385 OA
ATOM     62  H   UNL     1       4.768  -8.207  27.009  0.00  0.00    +0.210 HD
ENDBRANCH  44  61
ENDBRANCH  41  42
ENDBRANCH  40  41
ENDBRANCH  37  40
ENDBRANCH  36  37
ENDBRANCH  33  36
ENDBRANCH  32  33
ENDBRANCH   1  32
TORSDOF 19
ENDMDL
MODEL 5
REMARK VINA RESULT:      -6.2      4.732      8.125
REMARK  Name = 
REMARK  20 active torsions:
REMARK  status: ('A' for Active; 'I' for Inactive)
REMARK    1  A    between atoms: C_1  and  C_2
REMARK    2  A    between atoms: N_4  and  C_5
REMARK    3  A    between atoms: C_8  and  N_10
REMARK    4  A    between atoms: C_13  and  C_15
REMARK    5  A    between atoms: C_15  and  O_16
REMARK    6  A    between atoms: O_16  and  P_17
REMARK    7  A    between atoms: P_17  and  O_20
REMARK    8  A    between atoms: O_20  and  P_21
REMARK    9  A    between atoms: P_21  and  O_24
REMARK   10  A    between atoms: O_24  and  P_25
REMARK   11  A    between atoms: P_25  and  O_28
REMARK   12  A    between atoms: O_28  and  P_29
REMARK   13  A    between atoms: P_29  and  O_32
REMARK   14  A    between atoms: O_32  and  P_33
REMARK   15  A    between atoms: P_33  and  O_36
REMARK   16  A    between atoms: O_36  and  C_37
REMARK   17  A    between atoms: C_37  and  C_38
REMARK   18  A    between atoms: C_41  and  N_49
REMARK   19  A    between atoms: C_43  and  O_45
REMARK   20  A    between atoms: C_46  and  O_48
REMARK                            x       y       z     vdW  Elec       q    Type
REMARK                         _______ _______ _______ _____ _____    ______ ____
ROOT
ATOM      1  P   UNL     1       5.861  -4.144  22.669  0.00  0.00    +0.224 P 
ATOM      2  O   UNL     1       4.151  -4.177  22.925  0.00  0.00    -0.437 OA
ATOM      3  O   UNL     1       5.701  -4.327  21.125  0.00  0.00    -0.517 OA
ENDROOT
BRANCH   1   4
ATOM      4  O   UNL     1       5.983  -5.760  23.279  0.00  0.00    -0.270 OA
BRANCH   4   5
ATOM      5  P   UNL     1       4.897  -5.942  24.613  0.00  0.00    +0.224 P 
ATOM      6  O   UNL     1       4.640  -7.440  24.231  0.00  0.00    -0.517 OA
ATOM      7  O   UNL     1       6.070  -5.734  25.620  0.00  0.00    -0.437 OA
BRANCH   5   8
ATOM      8  O   UNL     1       3.811  -6.125  25.947  0.00  0.00    -0.270 OA
BRANCH   8   9
ATOM      9  P   UNL     1       4.455  -5.309  27.331  0.00  0.00    +0.218 P 
ATOM     10  O   UNL     1       5.098  -4.493  28.714  0.00  0.00    -0.437 OA
ATOM     11  O   UNL     1       4.002  -6.542  28.187  0.00  0.00    -0.517 OA
BRANCH   9  12
ATOM     12  O   UNL     1       3.188  -4.178  27.364  0.00  0.00    -0.325 OA
BRANCH  12  13
ATOM     13  C   UNL     1       2.815  -3.256  28.394  0.00  0.00    +0.202 C 
BRANCH  13  16
ATOM     14  C   UNL     1       5.364  -0.730  28.083  0.00  0.00    +0.226 C 
ATOM     15  O   UNL     1       4.271  -1.038  29.014  0.00  0.00    -0.349 OA
ATOM     16  C   UNL     1       3.151  -1.653  28.228  0.00  0.00    +0.178 C 
ATOM     17  C   UNL     1       3.406  -1.149  26.814  0.00  0.00    +0.226 C 
ATOM     18  C   UNL     1       4.908  -1.274  26.735  0.00  0.00    +0.091 C 
BRANCH  14  27
ATOM     19  C   UNL     1       5.156   4.237  29.357  0.00  0.00    +0.051 C 
ATOM     20  C   UNL     1       5.660   3.040  28.613  0.00  0.00    +0.030 A 
ATOM     21  C   UNL     1       6.886   3.302  27.821  0.00  0.00    +0.257 A 
ATOM     22  O   UNL     1       7.504   4.374  27.873  0.00  0.00    -0.267 OA
ATOM     23  N   UNL     1       7.314   2.249  27.065  0.00  0.00    -0.275 N 
ATOM     24  H   UNL     1       8.197   2.363  26.594  0.00  0.00    +0.173 HD
ATOM     25  C   UNL     1       7.024   0.949  27.381  0.00  0.00    +0.331 A 
ATOM     26  O   UNL     1       7.885   0.101  27.167  0.00  0.00    -0.246 OA
ATOM     27  N   UNL     1       5.791   0.722  28.001  0.00  0.00    -0.274 N 
ATOM     28  C   UNL     1       5.141   1.790  28.611  0.00  0.00    +0.101 A 
ENDBRANCH  14  27
BRANCH  17  29
ATOM     29  N   UNL     1       3.027   0.295  26.696  0.00  0.00    +0.082 NA
ATOM     30  N   UNL     1       1.814   0.512  26.515  0.00  0.00    -0.014 NA
ATOM     31  N   UNL     1       0.723   0.838  26.413  0.00  0.00    -0.328 NA
ENDBRANCH  17  29
ENDBRANCH  13  16
ENDBRANCH  12  13
ENDBRANCH   9  12
ENDBRANCH   8   9
ENDBRANCH   5   8
ENDBRANCH   4   5
ENDBRANCH   1   4
BRANCH   1  32
ATOM     32  O   UNL     1       7.572  -4.113  22.414  0.00  0.00    -0.270 OA
BRANCH  32  33
ATOM     33  P   UNL     1       8.433  -2.758  23.485  0.00  0.00    +0.224 P 
ATOM     34  O   UNL     1       7.340  -2.272  24.438  0.00  0.00    -0.517 OA
ATOM     35  O   UNL     1       9.620  -3.497  24.090  0.00  0.00    -0.437 OA
BRANCH  33  36
ATOM     36  O   UNL     1       9.207  -1.120  23.001  0.00  0.00    -0.270 OA
BRANCH  36  37
ATOM     37  P   UNL     1       9.323   0.431  23.759  0.00  0.00    +0.218 P 
ATOM     38  O   UNL     1      10.023   1.077  22.544  0.00  0.00    -0.517 OA
ATOM     39  O   UNL     1      10.223  -0.175  24.860  0.00  0.00    -0.437 OA
BRANCH  37  40
ATOM     40  O   UNL     1       9.440   1.981  24.518  0.00  0.00    -0.325 OA
BRANCH  40  41
ATOM     41  C   UNL     1       9.717   3.108  23.705  0.00  0.00    +0.202 C 
BRANCH  41  42
ATOM     42  C   UNL     1       9.128   4.395  24.285  0.00  0.00    +0.178 C 
ATOM     43  C   UNL     1       9.143   5.597  23.333  0.00  0.00    +0.178 C 
ATOM     44  C   UNL     1       7.689   5.771  22.886  0.00  0.00    +0.195 C 
ATOM     45  C   UNL     1       6.964   4.560  23.491  0.00  0.00    +0.253 C 
ATOM     46  O   UNL     1       7.745   4.221  24.661  0.00  0.00    -0.346 OA
BRANCH  45  47
ATOM     47  N   UNL     1       5.611   4.878  23.920  0.00  0.00    -0.286 N 
ATOM     48  C   UNL     1       4.463   4.442  23.316  0.00  0.00    +0.167 A 
ATOM     49  N   UNL     1       4.341   3.626  22.261  0.00  0.00    -0.216 NA
ATOM     50  C   UNL     1       3.053   3.404  21.956  0.00  0.00    +0.225 A 
ATOM     51  N   UNL     1       1.950   3.930  22.542  0.00  0.00    -0.219 NA
ATOM     52  C   UNL     1       2.130   4.763  23.593  0.00  0.00    +0.147 A 
ATOM     53  N   UNL     1       0.990   5.273  24.226  0.00  0.00    -0.341 N 
ATOM     54  H   UNL     1       1.215   5.485  25.195  0.00  0.00    +0.144 HD
ATOM     55  H   UNL     1       0.235   4.613  24.086  0.00  0.00    +0.144 HD
ATOM     56  C   UNL     1       3.437   5.040  24.026  0.00  0.00    +0.147 A 
ATOM     57  N   UNL     1       3.930   5.815  25.057  0.00  0.00    -0.231 NA
ATOM     58  C   UNL     1       5.238   5.658  24.986  0.00  0.00    +0.203 A 
ENDBRANCH  45  47
BRANCH  43  59
ATOM     59  O   UNL     1       9.531   6.784  24.080  0.00  0.00    -0.386 OA
ATOM     60  H   UNL     1       9.484   6.545  25.022  0.00  0.00    +0.210 HD
ENDBRANCH  43  59
BRANCH  44  61
ATOM     61  O   UNL     1       7.570   5.924  21.473  0.00  0.00    -0.385 OA
ATOM     62  H   UNL     1       8.413   6.299  21.139  0.00  0.00    +0.210 HD
ENDBRANCH  44  61
ENDBRANCH  41  42
ENDBRANCH  40  41
ENDBRANCH  37  40
ENDBRANCH  36  37
ENDBRANCH  33  36
ENDBRANCH  32  33
ENDBRANCH   1  32
TORSDOF 19
ENDMDL
MODEL 6
REMARK VINA RESULT:      -6.0      2.347      4.592
REMARK  Name = 
REMARK  20 active torsions:
REMARK  status: ('A' for Active; 'I' for Inactive)
REMARK    1  A    between atoms: C_1  and  C_2
REMARK    2  A    between atoms: N_4  and  C_5
REMARK    3  A    between atoms: C_8  and  N_10
REMARK    4  A    between atoms: C_13  and  C_15
REMARK    5  A    between atoms: C_15  and  O_16
REMARK    6  A    between atoms: O_16  and  P_17
REMARK    7  A    between atoms: P_17  and  O_20
REMARK    8  A    between atoms: O_20  and  P_21
REMARK    9  A    between atoms: P_21  and  O_24
REMARK   10  A    between atoms: O_24  and  P_25
REMARK   11  A    between atoms: P_25  and  O_28
REMARK   12  A    between atoms: O_28  and  P_29
REMARK   13  A    between atoms: P_29  and  O_32
REMARK   14  A    between atoms: O_32  and  P_33
REMARK   15  A    between atoms: P_33  and  O_36
REMARK   16  A    between atoms: O_36  and  C_37
REMARK   17  A    between atoms: C_37  and  C_38
REMARK   18  A    between atoms: C_41  and  N_49
REMARK   19  A    between atoms: C_43  and  O_45
REMARK   20  A    between atoms: C_46  and  O_48
REMARK                            x       y       z     vdW  Elec       q    Type
REMARK                         _______ _______ _______ _____ _____    ______ ____
ROOT
ATOM      1  P   UNL     1       9.021   4.933  24.598  0.00  0.00    +0.224 P 
ATOM      2  O   UNL     1       9.334   6.102  25.833  0.00  0.00    -0.437 OA
ATOM      3  O   UNL     1       9.704   5.812  23.501  0.00  0.00    -0.517 OA
ENDROOT
BRANCH   1   4
ATOM      4  O   UNL     1       7.360   5.418  24.559  0.00  0.00    -0.270 OA
BRANCH   4   5
ATOM      5  P   UNL     1       6.478   4.500  25.731  0.00  0.00    +0.224 P 
ATOM      6  O   UNL     1       5.879   5.813  26.343  0.00  0.00    -0.517 OA
ATOM      7  O   UNL     1       5.605   3.867  24.604  0.00  0.00    -0.437 OA
BRANCH   5   8
ATOM      8  O   UNL     1       5.595   3.583  26.902  0.00  0.00    -0.270 OA
BRANCH   8   9
ATOM      9  P   UNL     1       6.636   3.183  28.225  0.00  0.00    +0.218 P 
ATOM     10  O   UNL     1       7.677   2.784  29.548  0.00  0.00    -0.437 OA
ATOM     11  O   UNL     1       7.192   2.010  27.347  0.00  0.00    -0.517 OA
BRANCH   9  12
ATOM     12  O   UNL     1       5.360   2.558  29.156  0.00  0.00    -0.325 OA
BRANCH  12  13
ATOM     13  C   UNL     1       3.961   2.493  28.859  0.00  0.00    +0.202 C 
BRANCH  13  16
ATOM     14  C   UNL     1       4.479  -0.800  27.494  0.00  0.00    +0.226 C 
ATOM     15  O   UNL     1       4.312   0.562  26.970  0.00  0.00    -0.349 OA
ATOM     16  C   UNL     1       3.380   1.300  27.884  0.00  0.00    +0.178 C 
ATOM     17  C   UNL     1       2.602   0.180  28.560  0.00  0.00    +0.226 C 
ATOM     18  C   UNL     1       3.704  -0.822  28.805  0.00  0.00    +0.091 C 
BRANCH  14  27
ATOM     19  C   UNL     1       1.524  -4.712  25.977  0.00  0.00    +0.051 C 
ATOM     20  C   UNL     1       2.679  -3.765  25.896  0.00  0.00    +0.030 A 
ATOM     21  C   UNL     1       3.422  -3.838  24.614  0.00  0.00    +0.257 A 
ATOM     22  O   UNL     1       3.044  -4.527  23.656  0.00  0.00    -0.267 OA
ATOM     23  N   UNL     1       4.532  -3.045  24.550  0.00  0.00    -0.275 N 
ATOM     24  H   UNL     1       5.000  -2.998  23.660  0.00  0.00    +0.173 HD
ATOM     25  C   UNL     1       4.672  -1.912  25.305  0.00  0.00    +0.331 A 
ATOM     26  O   UNL     1       5.238  -0.950  24.795  0.00  0.00    -0.246 OA
ATOM     27  N   UNL     1       4.077  -1.932  26.570  0.00  0.00    -0.274 N 
ATOM     28  C   UNL     1       3.081  -2.869  26.827  0.00  0.00    +0.101 A 
ENDBRANCH  14  27
BRANCH  17  29
ATOM     29  N   UNL     1       1.603  -0.410  27.614  0.00  0.00    +0.082 NA
ATOM     30  N   UNL     1       1.114   0.389  26.793  0.00  0.00    -0.014 NA
ATOM     31  N   UNL     1       0.646   1.009  25.953  0.00  0.00    -0.328 NA
ENDBRANCH  17  29
ENDBRANCH  13  16
ENDBRANCH  12  13
ENDBRANCH   9  12
ENDBRANCH   8   9
ENDBRANCH   5   8
ENDBRANCH   4   5
ENDBRANCH   1   4
BRANCH   1  32
ATOM     32  O   UNL     1       8.708   3.764  23.361  0.00  0.00    -0.270 OA
BRANCH  32  33
ATOM     33  P   UNL     1      10.114   2.447  23.245  0.00  0.00    +0.224 P 
ATOM     34  O   UNL     1       9.860   1.734  21.916  0.00  0.00    -0.517 OA
ATOM     35  O   UNL     1      11.382   3.283  23.367  0.00  0.00    -0.437 OA
BRANCH  33  36
ATOM     36  O   UNL     1      10.514   0.979  24.341  0.00  0.00    -0.270 OA
BRANCH  36  37
ATOM     37  P   UNL     1       9.753  -0.545  24.643  0.00  0.00    +0.218 P 
ATOM     38  O   UNL     1      10.290  -1.177  23.341  0.00  0.00    -0.517 OA
ATOM     39  O   UNL     1       8.366   0.135  24.584  0.00  0.00    -0.437 OA
BRANCH  37  40
ATOM     40  O   UNL     1       8.991  -2.068  24.946  0.00  0.00    -0.325 OA
BRANCH  40  41
ATOM     41  C   UNL     1       8.242  -2.665  23.901  0.00  0.00    +0.202 C 
BRANCH  41  42
ATOM     42  C   UNL     1       8.195  -4.189  24.024  0.00  0.00    +0.178 C 
ATOM     43  C   UNL     1       9.223  -4.789  24.990  0.00  0.00    +0.178 C 
ATOM     44  C   UNL     1       8.417  -5.204  26.224  0.00  0.00    +0.195 C 
ATOM     45  C   UNL     1       7.005  -4.670  25.947  0.00  0.00    +0.253 C 
ATOM     46  O   UNL     1       6.910  -4.641  24.503  0.00  0.00    -0.346 OA
BRANCH  45  47
ATOM     47  N   UNL     1       5.966  -5.551  26.457  0.00  0.00    -0.286 N 
ATOM     48  C   UNL     1       5.571  -5.639  27.763  0.00  0.00    +0.167 A 
ATOM     49  N   UNL     1       6.013  -4.932  28.812  0.00  0.00    -0.216 NA
ATOM     50  C   UNL     1       5.380  -5.281  29.943  0.00  0.00    +0.225 A 
ATOM     51  N   UNL     1       4.444  -6.245  30.117  0.00  0.00    -0.219 NA
ATOM     52  C   UNL     1       4.047  -6.943  29.029  0.00  0.00    +0.147 A 
ATOM     53  N   UNL     1       3.048  -7.910  29.199  0.00  0.00    -0.341 N 
ATOM     54  H   UNL     1       2.545  -8.026  28.323  0.00  0.00    +0.144 HD
ATOM     55  H   UNL     1       2.485  -7.638  29.996  0.00  0.00    +0.144 HD
ATOM     56  C   UNL     1       4.613  -6.638  27.780  0.00  0.00    +0.147 A 
ATOM     57  N   UNL     1       4.403  -7.148  26.514  0.00  0.00    -0.231 NA
ATOM     58  C   UNL     1       5.204  -6.440  25.741  0.00  0.00    +0.203 A 
ENDBRANCH  45  47
BRANCH  43  59
ATOM     59  O   UNL     1       9.783  -5.992  24.391  0.00  0.00    -0.386 OA
ATOM     60  H   UNL     1       9.848  -6.651  25.104  0.00  0.00    +0.210 HD
ENDBRANCH  43  59
BRANCH  44  61
ATOM     61  O   UNL     1       9.020  -4.761  27.439  0.00  0.00    -0.385 OA
ATOM     62  H   UNL     1       8.310  -4.397  28.011  0.00  0.00    +0.210 HD
ENDBRANCH  44  61
ENDBRANCH  41  42
ENDBRANCH  40  41
ENDBRANCH  37  40
ENDBRANCH  36  37
ENDBRANCH  33  36
ENDBRANCH  32  33
ENDBRANCH   1  32
TORSDOF 19
ENDMDL
MODEL 7
REMARK VINA RESULT:      -6.0      2.282      4.081
REMARK  Name = 
REMARK  20 active torsions:
REMARK  status: ('A' for Active; 'I' for Inactive)
REMARK    1  A    between atoms: C_1  and  C_2
REMARK    2  A    between atoms: N_4  and  C_5
REMARK    3  A    between atoms: C_8  and  N_10
REMARK    4  A    between atoms: C_13  and  C_15
REMARK    5  A    between atoms: C_15  and  O_16
REMARK    6  A    between atoms: O_16  and  P_17
REMARK    7  A    between atoms: P_17  and  O_20
REMARK    8  A    between atoms: O_20  and  P_21
REMARK    9  A    between atoms: P_21  and  O_24
REMARK   10  A    between atoms: O_24  and  P_25
REMARK   11  A    between atoms: P_25  and  O_28
REMARK   12  A    between atoms: O_28  and  P_29
REMARK   13  A    between atoms: P_29  and  O_32
REMARK   14  A    between atoms: O_32  and  P_33
REMARK   15  A    between atoms: P_33  and  O_36
REMARK   16  A    between atoms: O_36  and  C_37
REMARK   17  A    between atoms: C_37  and  C_38
REMARK   18  A    between atoms: C_41  and  N_49
REMARK   19  A    between atoms: C_43  and  O_45
REMARK   20  A    between atoms: C_46  and  O_48
REMARK                            x       y       z     vdW  Elec       q    Type
REMARK                         _______ _______ _______ _____ _____    ______ ____
ROOT
ATOM      1  P   UNL     1       5.675   3.603  27.847  0.00  0.00    +0.224 P 
ATOM      2  O   UNL     1       7.201   3.750  28.647  0.00  0.00    -0.437 OA
ATOM      3  O   UNL     1       5.414   5.142  27.918  0.00  0.00    -0.517 OA
ENDROOT
BRANCH   1   4
ATOM      4  O   UNL     1       4.972   2.983  29.302  0.00  0.00    -0.270 OA
BRANCH   4   5
ATOM      5  P   UNL     1       4.211   1.467  28.960  0.00  0.00    +0.224 P 
ATOM      6  O   UNL     1       5.526   0.929  28.298  0.00  0.00    -0.517 OA
ATOM      7  O   UNL     1       4.094   1.161  30.485  0.00  0.00    -0.437 OA
BRANCH   5   8
ATOM      8  O   UNL     1       3.450  -0.048  28.618  0.00  0.00    -0.270 OA
BRANCH   8   9
ATOM      9  P   UNL     1       2.152   0.197  27.501  0.00  0.00    +0.218 P 
ATOM     10  O   UNL     1       0.854   0.443  26.384  0.00  0.00    -0.437 OA
ATOM     11  O   UNL     1       1.781   1.483  28.317  0.00  0.00    -0.517 OA
BRANCH   9  12
ATOM     12  O   UNL     1       1.242  -1.087  28.139  0.00  0.00    -0.325 OA
BRANCH  12  13
ATOM     13  C   UNL     1       1.155  -2.448  27.703  0.00  0.00    +0.202 C 
BRANCH  13  16
ATOM     14  C   UNL     1       3.603  -4.506  26.045  0.00  0.00    +0.226 C 
ATOM     15  O   UNL     1       3.318  -3.071  26.168  0.00  0.00    -0.349 OA
ATOM     16  C   UNL     1       1.831  -2.900  26.271  0.00  0.00    +0.178 C 
ATOM     17  C   UNL     1       1.293  -4.172  25.630  0.00  0.00    +0.226 C 
ATOM     18  C   UNL     1       2.253  -5.196  26.185  0.00  0.00    +0.091 C 
BRANCH  14  27
ATOM     19  C   UNL     1       6.331  -3.727  21.768  0.00  0.00    +0.051 C 
ATOM     20  C   UNL     1       5.610  -4.541  22.797  0.00  0.00    +0.030 A 
ATOM     21  C   UNL     1       5.827  -6.002  22.660  0.00  0.00    +0.257 A 
ATOM     22  O   UNL     1       6.627  -6.491  21.851  0.00  0.00    -0.267 OA
ATOM     23  N   UNL     1       5.110  -6.771  23.533  0.00  0.00    -0.275 N 
ATOM     24  H   UNL     1       5.310  -7.757  23.531  0.00  0.00    +0.173 HD
ATOM     25  C   UNL     1       4.676  -6.300  24.743  0.00  0.00    +0.331 A 
ATOM     26  O   UNL     1       4.680  -7.076  25.694  0.00  0.00    -0.246 OA
ATOM     27  N   UNL     1       4.345  -4.943  24.798  0.00  0.00    -0.274 N 
ATOM     28  C   UNL     1       4.834  -4.093  23.811  0.00  0.00    +0.101 A 
ENDBRANCH  14  27
BRANCH  17  29
ATOM     29  N   UNL     1       1.445  -4.113  24.141  0.00  0.00    +0.082 NA
ATOM     30  N   UNL     1       1.302  -5.200  23.550  0.00  0.00    -0.014 NA
ATOM     31  N   UNL     1       1.128  -6.121  22.895  0.00  0.00    -0.328 NA
ENDBRANCH  17  29
ENDBRANCH  13  16
ENDBRANCH  12  13
ENDBRANCH   9  12
ENDBRANCH   8   9
ENDBRANCH   5   8
ENDBRANCH   4   5
ENDBRANCH   1   4
BRANCH   1  32
ATOM     32  O   UNL     1       4.147   3.455  27.047  0.00  0.00    -0.270 OA
BRANCH  32  33
ATOM     33  P   UNL     1       4.324   3.595  25.130  0.00  0.00    +0.224 P 
ATOM     34  O   UNL     1       3.883   2.227  24.606  0.00  0.00    -0.517 OA
ATOM     35  O   UNL     1       3.450   4.796  24.789  0.00  0.00    -0.437 OA
BRANCH  33  36
ATOM     36  O   UNL     1       5.830   3.896  24.055  0.00  0.00    -0.270 OA
BRANCH  36  37
ATOM     37  P   UNL     1       7.112   2.896  23.466  0.00  0.00    +0.218 P 
ATOM     38  O   UNL     1       6.230   2.241  22.382  0.00  0.00    -0.517 OA
ATOM     39  O   UNL     1       7.194   2.191  24.839  0.00  0.00    -0.437 OA
BRANCH  37  40
ATOM     40  O   UNL     1       8.396   1.896  22.878  0.00  0.00    -0.325 OA
BRANCH  40  41
ATOM     41  C   UNL     1       8.134   1.046  21.774  0.00  0.00    +0.202 C 
BRANCH  41  42
ATOM     42  C   UNL     1       8.587  -0.391  22.034  0.00  0.00    +0.178 C 
ATOM     43  C   UNL     1      10.015  -0.529  22.573  0.00  0.00    +0.178 C 
ATOM     44  C   UNL     1       9.851  -0.886  24.053  0.00  0.00    +0.195 C 
ATOM     45  C   UNL     1       8.340  -0.774  24.299  0.00  0.00    +0.253 C 
ATOM     46  O   UNL     1       7.744  -1.043  23.008  0.00  0.00    -0.346 OA
BRANCH  45  47
ATOM     47  N   UNL     1       7.855  -1.769  25.244  0.00  0.00    -0.286 N 
ATOM     48  C   UNL     1       8.182  -3.097  25.236  0.00  0.00    +0.167 A 
ATOM     49  N   UNL     1       9.020  -3.739  24.410  0.00  0.00    -0.216 NA
ATOM     50  C   UNL     1       9.107  -5.044  24.713  0.00  0.00    +0.225 A 
ATOM     51  N   UNL     1       8.437  -5.728  25.673  0.00  0.00    -0.219 NA
ATOM     52  C   UNL     1       7.590  -5.035  26.467  0.00  0.00    +0.147 A 
ATOM     53  N   UNL     1       6.930  -5.733  27.486  0.00  0.00    -0.341 N 
ATOM     54  H   UNL     1       6.707  -5.088  28.240  0.00  0.00    +0.144 HD
ATOM     55  H   UNL     1       7.505  -6.526  27.743  0.00  0.00    +0.144 HD
ATOM     56  C   UNL     1       7.445  -3.652  26.267  0.00  0.00    +0.147 A 
ATOM     57  N   UNL     1       6.690  -2.694  26.913  0.00  0.00    -0.231 NA
ATOM     58  C   UNL     1       6.997  -1.568  26.296  0.00  0.00    +0.203 A 
ENDBRANCH  45  47
BRANCH  43  59
ATOM     59  O   UNL     1      10.662  -1.650  21.908  0.00  0.00    -0.386 OA
ATOM     60  H   UNL     1      10.556  -2.419  22.494  0.00  0.00    +0.210 HD
ENDBRANCH  43  59
BRANCH  44  61
ATOM     61  O   UNL     1      10.678  -0.088  24.898  0.00  0.00    -0.385 OA
ATOM     62  H   UNL     1      11.059  -0.676  25.586  0.00  0.00    +0.210 HD
ENDBRANCH  44  61
ENDBRANCH  41  42
ENDBRANCH  40  41
ENDBRANCH  37  40
ENDBRANCH  36  37
ENDBRANCH  33  36
ENDBRANCH  32  33
ENDBRANCH   1  32
TORSDOF 19
ENDMDL
MODEL 8
REMARK VINA RESULT:      -5.9      2.147      6.289
REMARK  Name = 
REMARK  20 active torsions:
REMARK  status: ('A' for Active; 'I' for Inactive)
REMARK    1  A    between atoms: C_1  and  C_2
REMARK    2  A    between atoms: N_4  and  C_5
REMARK    3  A    between atoms: C_8  and  N_10
REMARK    4  A    between atoms: C_13  and  C_15
REMARK    5  A    between atoms: C_15  and  O_16
REMARK    6  A    between atoms: O_16  and  P_17
REMARK    7  A    between atoms: P_17  and  O_20
REMARK    8  A    between atoms: O_20  and  P_21
REMARK    9  A    between atoms: P_21  and  O_24
REMARK   10  A    between atoms: O_24  and  P_25
REMARK   11  A    between atoms: P_25  and  O_28
REMARK   12  A    between atoms: O_28  and  P_29
REMARK   13  A    between atoms: P_29  and  O_32
REMARK   14  A    between atoms: O_32  and  P_33
REMARK   15  A    between atoms: P_33  and  O_36
REMARK   16  A    between atoms: O_36  and  C_37
REMARK   17  A    between atoms: C_37  and  C_38
REMARK   18  A    between atoms: C_41  and  N_49
REMARK   19  A    between atoms: C_43  and  O_45
REMARK   20  A    between atoms: C_46  and  O_48
REMARK                            x       y       z     vdW  Elec       q    Type
REMARK                         _______ _______ _______ _____ _____    ______ ____
ROOT
ATOM      1  P   UNL     1       2.833   4.123  25.705  0.00  0.00    +0.224 P 
ATOM      2  O   UNL     1       1.344   4.524  24.922  0.00  0.00    -0.437 OA
ATOM      3  O   UNL     1       3.563   5.365  25.100  0.00  0.00    -0.517 OA
ENDROOT
BRANCH   1   4
ATOM      4  O   UNL     1       3.103   2.864  24.548  0.00  0.00    -0.270 OA
BRANCH   4   5
ATOM      5  P   UNL     1       4.277   3.399  23.396  0.00  0.00    +0.224 P 
ATOM      6  O   UNL     1       5.196   2.174  23.727  0.00  0.00    -0.517 OA
ATOM      7  O   UNL     1       3.274   3.146  22.229  0.00  0.00    -0.437 OA
BRANCH   5   8
ATOM      8  O   UNL     1       5.451   3.934  22.243  0.00  0.00    -0.270 OA
BRANCH   8   9
ATOM      9  P   UNL     1       6.938   4.284  23.055  0.00  0.00    +0.218 P 
ATOM     10  O   UNL     1       8.425   4.634  23.867  0.00  0.00    -0.437 OA
ATOM     11  O   UNL     1       6.797   5.758  22.540  0.00  0.00    -0.517 OA
BRANCH   9  12
ATOM     12  O   UNL     1       7.865   3.435  21.912  0.00  0.00    -0.325 OA
BRANCH  12  13
ATOM     13  C   UNL     1       8.742   2.319  22.097  0.00  0.00    +0.202 C 
BRANCH  13  16
ATOM     14  C   UNL     1       9.188  -1.203  22.712  0.00  0.00    +0.226 C 
ATOM     15  O   UNL     1       8.119  -0.331  22.206  0.00  0.00    -0.349 OA
ATOM     16  C   UNL     1       8.221   0.987  22.914  0.00  0.00    +0.178 C 
ATOM     17  C   UNL     1       8.965   0.634  24.195  0.00  0.00    +0.226 C 
ATOM     18  C   UNL     1       9.997  -0.332  23.666  0.00  0.00    +0.091 C 
BRANCH  14  27
ATOM     19  C   UNL     1       9.614  -5.114  26.008  0.00  0.00    +0.051 C 
ATOM     20  C   UNL     1       8.986  -4.325  24.902  0.00  0.00    +0.030 A 
ATOM     21  C   UNL     1       7.636  -4.804  24.519  0.00  0.00    +0.257 A 
ATOM     22  O   UNL     1       7.035  -5.691  25.141  0.00  0.00    -0.267 OA
ATOM     23  N   UNL     1       7.080  -4.155  23.454  0.00  0.00    -0.275 N 
ATOM     24  H   UNL     1       6.126  -4.390  23.232  0.00  0.00    +0.173 HD
ATOM     25  C   UNL     1       7.425  -2.876  23.108  0.00  0.00    +0.331 A 
ATOM     26  O   UNL     1       6.541  -2.139  22.682  0.00  0.00    -0.246 OA
ATOM     27  N   UNL     1       8.750  -2.504  23.355  0.00  0.00    -0.274 N 
ATOM     28  C   UNL     1       9.498  -3.249  24.261  0.00  0.00    +0.101 A 
ENDBRANCH  14  27
BRANCH  17  29
ATOM     29  N   UNL     1       8.060  -0.086  25.145  0.00  0.00    +0.082 NA
ATOM     30  N   UNL     1       8.584  -0.425  26.224  0.00  0.00    -0.014 NA
ATOM     31  N   UNL     1       8.933  -0.727  27.270  0.00  0.00    -0.328 NA
ENDBRANCH  17  29
ENDBRANCH  13  16
ENDBRANCH  12  13
ENDBRANCH   9  12
ENDBRANCH   8   9
ENDBRANCH   5   8
ENDBRANCH   4   5
ENDBRANCH   1   4
BRANCH   1  32
ATOM     32  O   UNL     1       4.323   3.721  26.488  0.00  0.00    -0.270 OA
BRANCH  32  33
ATOM     33  P   UNL     1       4.249   1.985  27.327  0.00  0.00    +0.224 P 
ATOM     34  O   UNL     1       5.708   1.534  27.404  0.00  0.00    -0.517 OA
ATOM     35  O   UNL     1       3.527   2.265  28.639  0.00  0.00    -0.437 OA
BRANCH  33  36
ATOM     36  O   UNL     1       3.435   0.389  26.774  0.00  0.00    -0.270 OA
BRANCH  36  37
ATOM     37  P   UNL     1       3.297  -1.195  27.455  0.00  0.00    +0.218 P 
ATOM     38  O   UNL     1       2.843  -1.831  26.124  0.00  0.00    -0.517 OA
ATOM     39  O   UNL     1       2.197  -0.688  28.414  0.00  0.00    -0.437 OA
BRANCH  37  40
ATOM     40  O   UNL     1       3.160  -2.779  28.138  0.00  0.00    -0.325 OA
BRANCH  40  41
ATOM     41  C   UNL     1       4.287  -3.324  28.803  0.00  0.00    +0.202 C 
BRANCH  41  42
ATOM     42  C   UNL     1       5.111  -4.232  27.888  0.00  0.00    +0.178 C 
ATOM     43  C   UNL     1       5.588  -5.537  28.536  0.00  0.00    +0.178 C 
ATOM     44  C   UNL     1       4.706  -6.630  27.926  0.00  0.00    +0.195 C 
ATOM     45  C   UNL     1       3.678  -5.858  27.087  0.00  0.00    +0.253 C 
ATOM     46  O   UNL     1       4.359  -4.633  26.724  0.00  0.00    -0.346 OA
BRANCH  45  47
ATOM     47  N   UNL     1       3.316  -6.561  25.866  0.00  0.00    -0.286 N 
ATOM     48  C   UNL     1       2.482  -6.082  24.892  0.00  0.00    +0.167 A 
ATOM     49  N   UNL     1       1.872  -4.891  24.837  0.00  0.00    -0.216 NA
ATOM     50  C   UNL     1       1.140  -4.764  23.718  0.00  0.00    +0.225 A 
ATOM     51  N   UNL     1       0.939  -5.680  22.740  0.00  0.00    -0.219 NA
ATOM     52  C   UNL     1       1.565  -6.874  22.854  0.00  0.00    +0.147 A 
ATOM     53  N   UNL     1       1.391  -7.805  21.823  0.00  0.00    -0.341 N 
ATOM     54  H   UNL     1       2.203  -8.417  21.788  0.00  0.00    +0.144 HD
ATOM     55  H   UNL     1       1.192  -7.293  20.972  0.00  0.00    +0.144 HD
ATOM     56  C   UNL     1       2.389  -7.107  23.967  0.00  0.00    +0.147 A 
ATOM     57  N   UNL     1       3.157  -8.191  24.344  0.00  0.00    -0.231 NA
ATOM     58  C   UNL     1       3.732  -7.807  25.468  0.00  0.00    +0.203 A 
ENDBRANCH  45  47
BRANCH  43  59
ATOM     59  O   UNL     1       6.963  -5.788  28.131  0.00  0.00    -0.386 OA
ATOM     60  H   UNL     1       6.968  -5.792  27.158  0.00  0.00    +0.210 HD
ENDBRANCH  43  59
BRANCH  44  61
ATOM     61  O   UNL     1       4.167  -7.507  28.914  0.00  0.00    -0.385 OA
ATOM     62  H   UNL     1       4.067  -8.394  28.506  0.00  0.00    +0.210 HD
ENDBRANCH  44  61
ENDBRANCH  41  42
ENDBRANCH  40  41
ENDBRANCH  37  40
ENDBRANCH  36  37
ENDBRANCH  33  36
ENDBRANCH  32  33
ENDBRANCH   1  32
TORSDOF 19
ENDMDL
MODEL 9
REMARK VINA RESULT:      -5.7      2.553      4.392
REMARK  Name = 
REMARK  20 active torsions:
REMARK  status: ('A' for Active; 'I' for Inactive)
REMARK    1  A    between atoms: C_1  and  C_2
REMARK    2  A    between atoms: N_4  and  C_5
REMARK    3  A    between atoms: C_8  and  N_10
REMARK    4  A    between atoms: C_13  and  C_15
REMARK    5  A    between atoms: C_15  and  O_16
REMARK    6  A    between atoms: O_16  and  P_17
REMARK    7  A    between atoms: P_17  and  O_20
REMARK    8  A    between atoms: O_20  and  P_21
REMARK    9  A    between atoms: P_21  and  O_24
REMARK   10  A    between atoms: O_24  and  P_25
REMARK   11  A    between atoms: P_25  and  O_28
REMARK   12  A    between atoms: O_28  and  P_29
REMARK   13  A    between atoms: P_29  and  O_32
REMARK   14  A    between atoms: O_32  and  P_33
REMARK   15  A    between atoms: P_33  and  O_36
REMARK   16  A    between atoms: O_36  and  C_37
REMARK   17  A    between atoms: C_37  and  C_38
REMARK   18  A    between atoms: C_41  and  N_49
REMARK   19  A    between atoms: C_43  and  O_45
REMARK   20  A    between atoms: C_46  and  O_48
REMARK                            x       y       z     vdW  Elec       q    Type
REMARK                         _______ _______ _______ _____ _____    ______ ____
ROOT
ATOM      1  P   UNL     1       6.857   7.079  23.091  0.00  0.00    +0.224 P 
ATOM      2  O   UNL     1       5.492   7.061  22.030  0.00  0.00    -0.437 OA
ATOM      3  O   UNL     1       7.758   6.336  22.053  0.00  0.00    -0.517 OA
ENDROOT
BRANCH   1   4
ATOM      4  O   UNL     1       6.147   5.808  24.027  0.00  0.00    -0.270 OA
BRANCH   4   5
ATOM      5  P   UNL     1       4.428   5.871  23.851  0.00  0.00    +0.224 P 
ATOM      6  O   UNL     1       4.361   4.312  23.706  0.00  0.00    -0.517 OA
ATOM      7  O   UNL     1       4.278   6.381  25.317  0.00  0.00    -0.437 OA
BRANCH   5   8
ATOM      8  O   UNL     1       2.708   5.934  23.675  0.00  0.00    -0.270 OA
BRANCH   8   9
ATOM      9  P   UNL     1       2.091   4.331  23.462  0.00  0.00    +0.218 P 
ATOM     10  O   UNL     1       1.474   2.730  23.249  0.00  0.00    -0.437 OA
ATOM     11  O   UNL     1       1.217   4.895  22.289  0.00  0.00    -0.517 OA
BRANCH   9  12
ATOM     12  O   UNL     1       1.151   4.409  24.875  0.00  0.00    -0.325 OA
BRANCH  12  13
ATOM     13  C   UNL     1       1.563   4.395  26.246  0.00  0.00    +0.202 C 
BRANCH  13  16
ATOM     14  C   UNL     1       3.873   1.635  26.098  0.00  0.00    +0.226 C 
ATOM     15  O   UNL     1       2.415   1.813  26.075  0.00  0.00    -0.349 OA
ATOM     16  C   UNL     1       2.078   2.993  26.939  0.00  0.00    +0.178 C 
ATOM     17  C   UNL     1       3.276   3.089  27.873  0.00  0.00    +0.226 C 
ATOM     18  C   UNL     1       4.407   2.805  26.914  0.00  0.00    +0.091 C 
BRANCH  14  27
ATOM     19  C   UNL     1       3.354  -3.211  27.705  0.00  0.00    +0.051 C 
ATOM     20  C   UNL     1       4.101  -1.960  27.364  0.00  0.00    +0.030 A 
ATOM     21  C   UNL     1       5.574  -2.131  27.348  0.00  0.00    +0.257 A 
ATOM     22  O   UNL     1       6.126  -3.233  27.479  0.00  0.00    -0.267 OA
ATOM     23  N   UNL     1       6.281  -0.983  27.126  0.00  0.00    -0.275 N 
ATOM     24  H   UNL     1       7.276  -1.083  27.012  0.00  0.00    +0.173 HD
ATOM     25  C   UNL     1       5.755   0.087  26.454  0.00  0.00    +0.331 A 
ATOM     26  O   UNL     1       6.502   0.725  25.718  0.00  0.00    -0.246 OA
ATOM     27  N   UNL     1       4.381   0.301  26.607  0.00  0.00    -0.274 N 
ATOM     28  C   UNL     1       3.586  -0.746  27.060  0.00  0.00    +0.101 A 
ENDBRANCH  14  27
BRANCH  17  29
ATOM     29  N   UNL     1       3.224   2.006  28.905  0.00  0.00    +0.082 NA
ATOM     30  N   UNL     1       4.301   1.777  29.488  0.00  0.00    -0.014 NA
ATOM     31  N   UNL     1       5.210   1.522  30.134  0.00  0.00    -0.328 NA
ENDBRANCH  17  29
ENDBRANCH  13  16
ENDBRANCH  12  13
ENDBRANCH   9  12
ENDBRANCH   8   9
ENDBRANCH   5   8
ENDBRANCH   4   5
ENDBRANCH   1   4
BRANCH   1  32
ATOM     32  O   UNL     1       8.223   7.097  24.153  0.00  0.00    -0.270 OA
BRANCH  32  33
ATOM     33  P   UNL     1       8.917   5.322  24.460  0.00  0.00    +0.224 P 
ATOM     34  O   UNL     1      10.364   5.388  23.968  0.00  0.00    -0.517 OA
ATOM     35  O   UNL     1       8.688   5.115  25.952  0.00  0.00    -0.437 OA
BRANCH  33  36
ATOM     36  O   UNL     1       8.399   3.664  23.756  0.00  0.00    -0.270 OA
BRANCH  36  37
ATOM     37  P   UNL     1       9.249   2.336  23.044  0.00  0.00    +0.218 P 
ATOM     38  O   UNL     1       8.011   1.838  22.268  0.00  0.00    -0.517 OA
ATOM     39  O   UNL     1       9.497   1.740  24.448  0.00  0.00    -0.437 OA
BRANCH  37  40
ATOM     40  O   UNL     1      10.100   1.009  22.332  0.00  0.00    -0.325 OA
BRANCH  40  41
ATOM     41  C   UNL     1       9.399   0.166  21.433  0.00  0.00    +0.202 C 
BRANCH  41  42
ATOM     42  C   UNL     1       9.451  -1.302  21.862  0.00  0.00    +0.178 C 
ATOM     43  C   UNL     1       9.955  -1.538  23.291  0.00  0.00    +0.178 C 
ATOM     44  C   UNL     1       8.706  -1.907  24.097  0.00  0.00    +0.195 C 
ATOM     45  C   UNL     1       7.548  -1.705  23.110  0.00  0.00    +0.253 C 
ATOM     46  O   UNL     1       8.145  -1.915  21.808  0.00  0.00    -0.346 OA
BRANCH  45  47
ATOM     47  N   UNL     1       6.486  -2.682  23.290  0.00  0.00    -0.286 N 
ATOM     48  C   UNL     1       6.498  -3.965  22.815  0.00  0.00    +0.167 A 
ATOM     49  N   UNL     1       7.473  -4.589  22.140  0.00  0.00    -0.216 NA
ATOM     50  C   UNL     1       7.138  -5.856  21.850  0.00  0.00    +0.225 A 
ATOM     51  N   UNL     1       5.974  -6.497  22.115  0.00  0.00    -0.219 NA
ATOM     52  C   UNL     1       5.016  -5.816  22.784  0.00  0.00    +0.147 A 
ATOM     53  N   UNL     1       3.829  -6.490  23.095  0.00  0.00    -0.341 N 
ATOM     54  H   UNL     1       3.418  -6.073  23.926  0.00  0.00    +0.144 HD
ATOM     55  H   UNL     1       4.041  -7.478  23.161  0.00  0.00    +0.144 HD
ATOM     56  C   UNL     1       5.269  -4.490  23.173  0.00  0.00    +0.147 A 
ATOM     57  N   UNL     1       4.515  -3.565  23.867  0.00  0.00    -0.231 NA
ATOM     58  C   UNL     1       5.298  -2.506  23.954  0.00  0.00    +0.203 A 
ENDBRANCH  45  47
BRANCH  43  59
ATOM     59  O   UNL     1      10.848  -2.687  23.290  0.00  0.00    -0.386 OA
ATOM     60  H   UNL     1      11.712  -2.365  23.599  0.00  0.00    +0.210 HD
ENDBRANCH  43  59
BRANCH  44  61
ATOM     61  O   UNL     1       8.615  -1.177  25.319  0.00  0.00    -0.385 OA
ATOM     62  H   UNL     1       9.420  -0.621  25.398  0.00  0.00    +0.210 HD
ENDBRANCH  44  61
ENDBRANCH  41  42
ENDBRANCH  40  41
ENDBRANCH  37  40
ENDBRANCH  36  37
ENDBRANCH  33  36
ENDBRANCH  32  33
ENDBRANCH   1  32
TORSDOF 19
ENDMDL
