MODEL 1
REMARK VINA RESULT:      -3.5      0.000      0.000
REMARK  Name = 
REMARK  4 active torsions:
REMARK  status: ('A' for Active; 'I' for Inactive)
REMARK    1  A    between atoms: C_1  and  C_2
REMARK    2  A    between atoms: C_2  and  O_4
REMARK    3  A    between atoms: C_2  and  C_5
REMARK    4  A    between atoms: C_5  and  O_6
REMARK                            x       y       z     vdW  Elec       q    Type
REMARK                         _______ _______ _______ _____ _____    ______ ____
ROOT
ATOM      1  C   UNL     1      12.255   6.498  24.696  0.00  0.00    +0.049 C 
ATOM      2  C   UNL     1      12.041   5.414  23.655  0.00  0.00    +0.219 C 
ENDROOT
BRANCH   2   3
ATOM      3  C   UNL     1      13.210   5.363  22.673  0.00  0.00    +0.333 C 
ATOM      4  O   UNL     1      13.135   5.595  21.476  0.00  0.00    -0.248 OA
BRANCH   3   5
ATOM      5  O   UNL     1      14.368   5.025  23.301  0.00  0.00    -0.479 OA
ATOM      6  H   UNL     1      14.996   5.772  23.159  0.00  0.00    +0.295 HD
ENDBRANCH   3   5
ENDBRANCH   2   3
BRANCH   2   7
ATOM      7  O   UNL     1      10.838   5.692  22.918  0.00  0.00    -0.381 OA
ATOM      8  H   UNL     1      10.608   6.622  23.105  0.00  0.00    +0.210 HD
ENDBRANCH   2   7
TORSDOF 3
ENDMDL
MODEL 2
REMARK VINA RESULT:      -3.3     11.668     11.942
REMARK  Name = 
REMARK  4 active torsions:
REMARK  status: ('A' for Active; 'I' for Inactive)
REMARK    1  A    between atoms: C_1  and  C_2
REMARK    2  A    between atoms: C_2  and  O_4
REMARK    3  A    between atoms: C_2  and  C_5
REMARK    4  A    between atoms: C_5  and  O_6
REMARK                            x       y       z     vdW  Elec       q    Type
REMARK                         _______ _______ _______ _____ _____    ______ ____
ROOT
ATOM      1  C   UNL     1       6.823  -4.467  25.896  0.00  0.00    +0.049 C 
ATOM      2  C   UNL     1       8.199  -4.804  26.439  0.00  0.00    +0.219 C 
ENDROOT
BRANCH   2   3
ATOM      3  C   UNL     1       9.130  -5.263  25.317  0.00  0.00    +0.333 C 
ATOM      4  O   UNL     1       8.815  -5.375  24.142  0.00  0.00    -0.248 OA
BRANCH   3   5
ATOM      5  O   UNL     1      10.375  -5.536  25.788  0.00  0.00    -0.479 OA
ATOM      6  H   UNL     1      10.829  -4.668  25.908  0.00  0.00    +0.295 HD
ENDBRANCH   3   5
ENDBRANCH   2   3
BRANCH   2   7
ATOM      7  O   UNL     1       8.086  -5.866  27.400  0.00  0.00    -0.381 OA
ATOM      8  H   UNL     1       8.932  -5.889  27.887  0.00  0.00    +0.210 HD
ENDBRANCH   2   7
TORSDOF 3
ENDMDL
MODEL 3
REMARK VINA RESULT:      -3.2     11.394     11.984
REMARK  Name = 
REMARK  4 active torsions:
REMARK  status: ('A' for Active; 'I' for Inactive)
REMARK    1  A    between atoms: C_1  and  C_2
REMARK    2  A    between atoms: C_2  and  O_4
REMARK    3  A    between atoms: C_2  and  C_5
REMARK    4  A    between atoms: C_5  and  O_6
REMARK                            x       y       z     vdW  Elec       q    Type
REMARK                         _______ _______ _______ _____ _____    ______ ____
ROOT
ATOM      1  C   UNL     1       8.491  -4.540  24.186  0.00  0.00    +0.049 C 
ATOM      2  C   UNL     1       8.890  -5.467  25.318  0.00  0.00    +0.219 C 
ENDROOT
BRANCH   2   3
ATOM      3  C   UNL     1       8.445  -4.902  26.667  0.00  0.00    +0.333 C 
ATOM      4  O   UNL     1       8.532  -3.731  27.003  0.00  0.00    -0.248 OA
BRANCH   3   5
ATOM      5  O   UNL     1       7.927  -5.875  27.463  0.00  0.00    -0.479 OA
ATOM      6  H   UNL     1       8.116  -6.735  27.018  0.00  0.00    +0.295 HD
ENDBRANCH   3   5
ENDBRANCH   2   3
BRANCH   2   7
ATOM      7  O   UNL     1      10.320  -5.613  25.335  0.00  0.00    -0.381 OA
ATOM      8  H   UNL     1      10.619  -5.504  24.412  0.00  0.00    +0.210 HD
ENDBRANCH   2   7
TORSDOF 3
ENDMDL
MODEL 4
REMARK VINA RESULT:      -3.1      6.006      6.519
REMARK  Name = 
REMARK  4 active torsions:
REMARK  status: ('A' for Active; 'I' for Inactive)
REMARK    1  A    between atoms: C_1  and  C_2
REMARK    2  A    between atoms: C_2  and  O_4
REMARK    3  A    between atoms: C_2  and  C_5
REMARK    4  A    between atoms: C_5  and  O_6
REMARK                            x       y       z     vdW  Elec       q    Type
REMARK                         _______ _______ _______ _____ _____    ______ ____
ROOT
ATOM      1  C   UNL     1       7.926   1.070  22.284  0.00  0.00    +0.049 C 
ATOM      2  C   UNL     1       9.198   0.807  21.499  0.00  0.00    +0.219 C 
ENDROOT
BRANCH   2   3
ATOM      3  C   UNL     1      10.012  -0.316  22.141  0.00  0.00    +0.333 C 
ATOM      4  O   UNL     1      10.557  -0.254  23.232  0.00  0.00    -0.248 OA
BRANCH   3   5
ATOM      5  O   UNL     1      10.056  -1.414  21.340  0.00  0.00    -0.479 OA
ATOM      6  H   UNL     1       9.446  -2.079  21.738  0.00  0.00    +0.295 HD
ENDBRANCH   3   5
ENDBRANCH   2   3
BRANCH   2   7
ATOM      7  O   UNL     1      10.001   1.999  21.478  0.00  0.00    -0.381 OA
ATOM      8  H   UNL     1      10.411   2.040  20.593  0.00  0.00    +0.210 HD
ENDBRANCH   2   7
TORSDOF 3
ENDMDL
MODEL 5
REMARK VINA RESULT:      -3.0      5.799      6.488
REMARK  Name = 
REMARK  4 active torsions:
REMARK  status: ('A' for Active; 'I' for Inactive)
REMARK    1  A    between atoms: C_1  and  C_2
REMARK    2  A    between atoms: C_2  and  O_4
REMARK    3  A    between atoms: C_2  and  C_5
REMARK    4  A    between atoms: C_5  and  O_6
REMARK                            x       y       z     vdW  Elec       q    Type
REMARK                         _______ _______ _______ _____ _____    ______ ____
ROOT
ATOM      1  C   UNL     1       8.581  -0.546  23.157  0.00  0.00    +0.049 C 
ATOM      2  C   UNL     1       9.621   0.007  22.200  0.00  0.00    +0.219 C 
ENDROOT
BRANCH   2   3
ATOM      3  C   UNL     1       9.193   1.370  21.659  0.00  0.00    +0.333 C 
ATOM      4  O   UNL     1       8.059   1.668  21.317  0.00  0.00    -0.248 OA
BRANCH   3   5
ATOM      5  O   UNL     1      10.243   2.232  21.603  0.00  0.00    -0.479 OA
ATOM      6  H   UNL     1      10.695   2.073  20.740  0.00  0.00    +0.295 HD
ENDBRANCH   3   5
ENDBRANCH   2   3
BRANCH   2   7
ATOM      7  O   UNL     1       9.778  -0.895  21.092  0.00  0.00    -0.381 OA
ATOM      8  H   UNL     1       9.406  -0.441  20.312  0.00  0.00    +0.210 HD
ENDBRANCH   2   7
TORSDOF 3
ENDMDL
MODEL 6
REMARK VINA RESULT:      -3.0      4.790      5.258
REMARK  Name = 
REMARK  4 active torsions:
REMARK  status: ('A' for Active; 'I' for Inactive)
REMARK    1  A    between atoms: C_1  and  C_2
REMARK    2  A    between atoms: C_2  and  O_4
REMARK    3  A    between atoms: C_2  and  C_5
REMARK    4  A    between atoms: C_5  and  O_6
REMARK                            x       y       z     vdW  Elec       q    Type
REMARK                         _______ _______ _______ _____ _____    ______ ____
ROOT
ATOM      1  C   UNL     1      10.829   0.581  24.472  0.00  0.00    +0.049 C 
ATOM      2  C   UNL     1       9.794   1.373  23.696  0.00  0.00    +0.219 C 
ENDROOT
BRANCH   2   3
ATOM      3  C   UNL     1       9.960   1.159  22.191  0.00  0.00    +0.333 C 
ATOM      4  O   UNL     1       9.853   0.086  21.617  0.00  0.00    -0.248 OA
BRANCH   3   5
ATOM      5  O   UNL     1      10.243   2.326  21.555  0.00  0.00    -0.479 OA
ATOM      6  H   UNL     1       9.580   2.987  21.867  0.00  0.00    +0.295 HD
ENDBRANCH   3   5
ENDBRANCH   2   3
BRANCH   2   7
ATOM      7  O   UNL     1       9.954   2.773  23.977  0.00  0.00    -0.381 OA
ATOM      8  H   UNL     1      10.526   3.133  23.272  0.00  0.00    +0.210 HD
ENDBRANCH   2   7
TORSDOF 3
ENDMDL
MODEL 7
REMARK VINA RESULT:      -2.8      4.611      5.441
REMARK  Name = 
REMARK  4 active torsions:
REMARK  status: ('A' for Active; 'I' for Inactive)
REMARK    1  A    between atoms: C_1  and  C_2
REMARK    2  A    between atoms: C_2  and  O_4
REMARK    3  A    between atoms: C_2  and  C_5
REMARK    4  A    between atoms: C_5  and  O_6
REMARK                            x       y       z     vdW  Elec       q    Type
REMARK                         _______ _______ _______ _____ _____    ______ ____
ROOT
ATOM      1  C   UNL     1       8.913   0.346  22.312  0.00  0.00    +0.049 C 
ATOM      2  C   UNL     1      10.114   1.216  22.636  0.00  0.00    +0.219 C 
ENDROOT
BRANCH   2   3
ATOM      3  C   UNL     1       9.963   1.861  24.014  0.00  0.00    +0.333 C 
ATOM      4  O   UNL     1       9.523   2.981  24.222  0.00  0.00    -0.248 OA
BRANCH   3   5
ATOM      5  O   UNL     1      10.380   1.023  25.000  0.00  0.00    -0.479 OA
ATOM      6  H   UNL     1       9.837   1.231  25.797  0.00  0.00    +0.295 HD
ENDBRANCH   3   5
ENDBRANCH   2   3
BRANCH   2   7
ATOM      7  O   UNL     1      10.226   2.260  21.654  0.00  0.00    -0.381 OA
ATOM      8  H   UNL     1      10.339   3.093  22.149  0.00  0.00    +0.210 HD
ENDBRANCH   2   7
TORSDOF 3
ENDMDL
MODEL 8
REMARK VINA RESULT:      -2.8      4.422      5.113
REMARK  Name = 
REMARK  4 active torsions:
REMARK  status: ('A' for Active; 'I' for Inactive)
REMARK    1  A    between atoms: C_1  and  C_2
REMARK    2  A    between atoms: C_2  and  O_4
REMARK    3  A    between atoms: C_2  and  C_5
REMARK    4  A    between atoms: C_5  and  O_6
REMARK                            x       y       z     vdW  Elec       q    Type
REMARK                         _______ _______ _______ _____ _____    ______ ____
ROOT
ATOM      1  C   UNL     1      10.803   0.603  24.682  0.00  0.00    +0.049 C 
ATOM      2  C   UNL     1       9.944   0.828  23.452  0.00  0.00    +0.219 C 
ENDROOT
BRANCH   2   3
ATOM      3  C   UNL     1      10.288   2.158  22.783  0.00  0.00    +0.333 C 
ATOM      4  O   UNL     1      10.827   3.105  23.335  0.00  0.00    -0.248 OA
BRANCH   3   5
ATOM      5  O   UNL     1       9.920   2.163  21.475  0.00  0.00    -0.479 OA
ATOM      6  H   UNL     1       8.933   2.185  21.458  0.00  0.00    +0.295 HD
ENDBRANCH   3   5
ENDBRANCH   2   3
BRANCH   2   7
ATOM      7  O   UNL     1       8.559   0.855  23.835  0.00  0.00    -0.381 OA
ATOM      8  H   UNL     1       8.176   0.005  23.546  0.00  0.00    +0.210 HD
ENDBRANCH   2   7
TORSDOF 3
ENDMDL
MODEL 9
REMARK VINA RESULT:      -2.8      4.146      4.919
REMARK  Name = 
REMARK  4 active torsions:
REMARK  status: ('A' for Active; 'I' for Inactive)
REMARK    1  A    between atoms: C_1  and  C_2
REMARK    2  A    between atoms: C_2  and  O_4
REMARK    3  A    between atoms: C_2  and  C_5
REMARK    4  A    between atoms: C_5  and  O_6
REMARK                            x       y       z     vdW  Elec       q    Type
REMARK                         _______ _______ _______ _____ _____    ______ ____
ROOT
ATOM      1  C   UNL     1      10.652   1.338  23.923  0.00  0.00    +0.049 C 
ATOM      2  C   UNL     1      10.418   2.589  23.098  0.00  0.00    +0.219 C 
ENDROOT
BRANCH   2   3
ATOM      3  C   UNL     1       9.195   3.354  23.601  0.00  0.00    +0.333 C 
ATOM      4  O   UNL     1       8.823   3.401  24.764  0.00  0.00    -0.248 OA
BRANCH   3   5
ATOM      5  O   UNL     1       8.558   3.991  22.584  0.00  0.00    -0.479 OA
ATOM      6  H   UNL     1       8.314   3.299  21.924  0.00  0.00    +0.295 HD
ENDBRANCH   3   5
ENDBRANCH   2   3
BRANCH   2   7
ATOM      7  O   UNL     1      10.193   2.221  21.726  0.00  0.00    -0.381 OA
ATOM      8  H   UNL     1       9.250   1.979  21.657  0.00  0.00    +0.210 HD
ENDBRANCH   2   7
TORSDOF 3
ENDMDL
