MODEL 1
REMARK VINA RESULT:      -7.3      0.000      0.000
REMARK  Name = 
REMARK  26 active torsions:
REMARK  status: ('A' for Active; 'I' for Inactive)
REMARK    1  A    between atoms: C_1  and  C_2
REMARK    2  A    between atoms: N_4  and  C_5
REMARK    3  A    between atoms: C_7  and  O_9
REMARK    4  A    between atoms: C_11  and  C_13
REMARK    5  A    between atoms: C_13  and  O_14
REMARK    6  A    between atoms: C_15  and  O_17
REMARK    7  A    between atoms: C_18  and  O_19
REMARK    8  A    between atoms: O_19  and  C_20
REMARK    9  A    between atoms: C_23  and  C_69
REMARK   10  A    between atoms: C_25  and  O_27
REMARK   11  A    between atoms: O_27  and  C_28
REMARK   12  A    between atoms: C_31  and  C_33
REMARK   13  A    between atoms: C_33  and  O_34
REMARK   14  A    between atoms: C_35  and  O_37
REMARK   15  A    between atoms: C_38  and  O_39
REMARK   16  A    between atoms: O_39  and  C_40
REMARK   17  A    between atoms: C_43  and  C_54
REMARK   18  A    between atoms: C_45  and  O_47
REMARK   19  A    between atoms: C_48  and  O_50
REMARK   20  A    between atoms: C_51  and  O_53
REMARK   21  A    between atoms: C_54  and  O_55
REMARK   22  A    between atoms: C_57  and  N_59
REMARK   23  A    between atoms: C_60  and  C_61
REMARK   24  A    between atoms: C_63  and  O_65
REMARK   25  A    between atoms: C_66  and  O_68
REMARK   26  A    between atoms: C_69  and  O_70
REMARK                            x       y       z     vdW  Elec       q    Type
REMARK                         _______ _______ _______ _____ _____    ______ ____
ROOT
ATOM      1  O   UNL     1       6.378  -1.521  24.491  0.00  0.00    -0.340 OA
ENDROOT
BRANCH   1   5
ATOM      2  C   UNL     1       7.712   2.293  23.265  0.00  0.00    +0.283 C 
ATOM      3  C   UNL     1       8.790   1.178  23.268  0.00  0.00    +0.201 C 
ATOM      4  C   UNL     1       8.129  -0.179  23.433  0.00  0.00    +0.180 C 
ATOM      5  C   UNL     1       7.057  -0.242  24.527  0.00  0.00    +0.192 C 
ATOM      6  C   UNL     1       6.136   0.995  24.464  0.00  0.00    +0.260 C 
ATOM      7  O   UNL     1       6.920   2.184  24.448  0.00  0.00    -0.331 OA
BRANCH   6   8
ATOM      8  C   UNL     1       5.188   0.953  25.667  0.00  0.00    +0.337 C 
ATOM      9  O   UNL     1       4.013   1.320  25.666  0.00  0.00    -0.248 OA
BRANCH   8  10
ATOM     10  O   UNL     1       5.771   0.454  26.788  0.00  0.00    -0.479 OA
ATOM     11  H   UNL     1       6.215  -0.407  26.631  0.00  0.00    +0.295 HD
ENDBRANCH   8  10
ENDBRANCH   6   8
BRANCH   4  12
ATOM     12  O   UNL     1       9.137  -1.177  23.644  0.00  0.00    -0.386 OA
ATOM     13  H   UNL     1       9.489  -1.068  24.546  0.00  0.00    +0.210 HD
ENDBRANCH   4  12
BRANCH   3  14
ATOM     14  O   UNL     1       9.503   1.143  22.014  0.00  0.00    -0.384 OA
ATOM     15  H   UNL     1      10.329   1.655  22.093  0.00  0.00    +0.210 HD
ENDBRANCH   3  14
BRANCH   2  16
ATOM     16  O   UNL     1       8.231   3.629  23.251  0.00  0.00    -0.341 OA
BRANCH  16  18
ATOM     17  C   UNL     1       6.904   5.553  23.916  0.00  0.00    +0.160 C 
ATOM     18  C   UNL     1       7.854   4.431  24.373  0.00  0.00    +0.177 C 
ATOM     19  C   UNL     1       9.044   5.028  25.159  0.00  0.00    +0.176 C 
ATOM     20  C   UNL     1       9.761   6.140  24.373  0.00  0.00    +0.178 C 
ATOM     21  O   UNL     1       8.833   7.107  23.868  0.00  0.00    -0.341 OA
ATOM     22  C   UNL     1       7.724   6.598  23.118  0.00  0.00    +0.270 C 
BRANCH  17  25
ATOM     23  C   UNL     1       4.679   6.297  26.910  0.00  0.00    +0.109 C 
ATOM     24  C   UNL     1       5.080   5.557  25.661  0.00  0.00    +0.210 C 
ATOM     25  N   UNL     1       6.222   6.068  25.115  0.00  0.00    -0.305 N 
ATOM     26  H   UNL     1       6.743   6.734  25.679  0.00  0.00    +0.149 HD
ATOM     27  O   UNL     1       4.461   4.607  25.203  0.00  0.00    -0.276 OA
ENDBRANCH  17  25
BRANCH  22  28
ATOM     28  O   UNL     1       8.161   6.098  21.858  0.00  0.00    -0.365 OA
ATOM     29  H   UNL     1       7.580   6.468  21.165  0.00  0.00    +0.213 HD
ENDBRANCH  22  28
BRANCH  19  30
ATOM     30  O   UNL     1       8.552   5.576  26.403  0.00  0.00    -0.387 OA
ATOM     31  H   UNL     1       7.589   5.409  26.419  0.00  0.00    +0.210 HD
ENDBRANCH  19  30
BRANCH  20  32
ATOM     32  C   UNL     1      10.757   5.635  23.318  0.00  0.00    +0.190 C 
BRANCH  32  33
ATOM     33  O   UNL     1      10.945   4.224  23.441  0.00  0.00    -0.392 OA
ATOM     34  H   UNL     1      11.340   4.060  24.318  0.00  0.00    +0.210 HD
ENDBRANCH  32  33
ENDBRANCH  20  32
ENDBRANCH  16  18
ENDBRANCH   2  16
ENDBRANCH   1   5
BRANCH   1  35
ATOM     35  C   UNL     1       6.839  -2.485  25.437  0.00  0.00    +0.274 C 
ATOM     36  C   UNL     1       5.676  -3.276  26.040  0.00  0.00    +0.160 C 
ATOM     37  C   UNL     1       6.239  -4.379  26.986  0.00  0.00    +0.177 C 
ATOM     38  C   UNL     1       7.502  -5.088  26.410  0.00  0.00    +0.176 C 
ATOM     39  C   UNL     1       8.458  -4.146  25.681  0.00  0.00    +0.178 C 
ATOM     40  O   UNL     1       7.695  -3.389  24.748  0.00  0.00    -0.341 OA
BRANCH  36  41
ATOM     41  N   UNL     1       4.655  -2.413  26.667  0.00  0.00    -0.305 N 
ATOM     42  H   UNL     1       4.881  -2.035  27.582  0.00  0.00    +0.149 HD
ATOM     43  C   UNL     1       3.346  -2.364  26.257  0.00  0.00    +0.210 C 
ATOM     44  O   UNL     1       2.941  -2.993  25.284  0.00  0.00    -0.276 OA
ATOM     45  C   UNL     1       2.447  -1.496  27.101  0.00  0.00    +0.109 C 
ENDBRANCH  36  41
BRANCH  38  46
ATOM     46  O   UNL     1       8.262  -5.786  27.412  0.00  0.00    -0.387 OA
ATOM     47  H   UNL     1       8.950  -6.322  26.975  0.00  0.00    +0.210 HD
ENDBRANCH  38  46
BRANCH  39  48
ATOM     48  C   UNL     1       9.562  -4.915  24.934  0.00  0.00    +0.190 C 
BRANCH  48  49
ATOM     49  O   UNL     1      10.507  -5.489  25.824  0.00  0.00    -0.392 OA
ATOM     50  H   UNL     1      11.194  -4.817  26.013  0.00  0.00    +0.210 HD
ENDBRANCH  48  49
ENDBRANCH  39  48
BRANCH  37  51
ATOM     51  O   UNL     1       5.142  -5.289  27.114  0.00  0.00    -0.341 OA
BRANCH  51  52
ATOM     52  C   UNL     1       4.809  -6.145  26.030  0.00  0.00    +0.283 C 
ATOM     53  C   UNL     1       3.327  -6.477  26.278  0.00  0.00    +0.201 C 
ATOM     54  C   UNL     1       2.712  -7.171  25.071  0.00  0.00    +0.179 C 
ATOM     55  C   UNL     1       3.066  -6.487  23.745  0.00  0.00    +0.185 C 
ATOM     56  C   UNL     1       4.576  -6.287  23.673  0.00  0.00    +0.260 C 
ATOM     57  O   UNL     1       4.972  -5.479  24.787  0.00  0.00    -0.332 OA
BRANCH  56  58
ATOM     58  C   UNL     1       4.981  -5.590  22.374  0.00  0.00    +0.337 C 
ATOM     59  O   UNL     1       4.963  -4.378  22.221  0.00  0.00    -0.248 OA
BRANCH  58  60
ATOM     60  O   UNL     1       5.298  -6.451  21.378  0.00  0.00    -0.479 OA
ATOM     61  H   UNL     1       5.120  -7.374  21.673  0.00  0.00    +0.295 HD
ENDBRANCH  58  60
ENDBRANCH  56  58
BRANCH  55  62
ATOM     62  O   UNL     1       2.508  -7.306  22.714  0.00  0.00    -0.386 OA
ATOM     63  H   UNL     1       2.758  -8.238  22.851  0.00  0.00    +0.210 HD
ENDBRANCH  55  62
BRANCH  54  64
ATOM     64  O   UNL     1       1.285  -7.200  25.204  0.00  0.00    -0.386 OA
ATOM     65  H   UNL     1       1.036  -8.144  25.206  0.00  0.00    +0.210 HD
ENDBRANCH  54  64
BRANCH  53  66
ATOM     66  O   UNL     1       3.174  -7.318  27.435  0.00  0.00    -0.384 OA
ATOM     67  H   UNL     1       3.719  -6.964  28.157  0.00  0.00    +0.210 HD
ENDBRANCH  53  66
ENDBRANCH  51  52
ENDBRANCH  37  51
ENDBRANCH   1  35
TORSDOF 24
ENDMDL
MODEL 2
REMARK VINA RESULT:      -7.1      2.178      4.701
REMARK  Name = 
REMARK  26 active torsions:
REMARK  status: ('A' for Active; 'I' for Inactive)
REMARK    1  A    between atoms: C_1  and  C_2
REMARK    2  A    between atoms: N_4  and  C_5
REMARK    3  A    between atoms: C_7  and  O_9
REMARK    4  A    between atoms: C_11  and  C_13
REMARK    5  A    between atoms: C_13  and  O_14
REMARK    6  A    between atoms: C_15  and  O_17
REMARK    7  A    between atoms: C_18  and  O_19
REMARK    8  A    between atoms: O_19  and  C_20
REMARK    9  A    between atoms: C_23  and  C_69
REMARK   10  A    between atoms: C_25  and  O_27
REMARK   11  A    between atoms: O_27  and  C_28
REMARK   12  A    between atoms: C_31  and  C_33
REMARK   13  A    between atoms: C_33  and  O_34
REMARK   14  A    between atoms: C_35  and  O_37
REMARK   15  A    between atoms: C_38  and  O_39
REMARK   16  A    between atoms: O_39  and  C_40
REMARK   17  A    between atoms: C_43  and  C_54
REMARK   18  A    between atoms: C_45  and  O_47
REMARK   19  A    between atoms: C_48  and  O_50
REMARK   20  A    between atoms: C_51  and  O_53
REMARK   21  A    between atoms: C_54  and  O_55
REMARK   22  A    between atoms: C_57  and  N_59
REMARK   23  A    between atoms: C_60  and  C_61
REMARK   24  A    between atoms: C_63  and  O_65
REMARK   25  A    between atoms: C_66  and  O_68
REMARK   26  A    between atoms: C_69  and  O_70
REMARK                            x       y       z     vdW  Elec       q    Type
REMARK                         _______ _______ _______ _____ _____    ______ ____
ROOT
ATOM      1  O   UNL     1       7.802  -3.317  25.798  0.00  0.00    -0.340 OA
ENDROOT
BRANCH   1   5
ATOM      2  C   UNL     1       8.229   0.873  25.493  0.00  0.00    +0.283 C 
ATOM      3  C   UNL     1       6.915   0.383  26.155  0.00  0.00    +0.201 C 
ATOM      4  C   UNL     1       7.018  -1.099  26.471  0.00  0.00    +0.180 C 
ATOM      5  C   UNL     1       7.592  -1.958  25.339  0.00  0.00    +0.192 C 
ATOM      6  C   UNL     1       8.825  -1.280  24.707  0.00  0.00    +0.260 C 
ATOM      7  O   UNL     1       8.511   0.063  24.351  0.00  0.00    -0.331 OA
BRANCH   6   8
ATOM      8  C   UNL     1       9.259  -2.104  23.491  0.00  0.00    +0.337 C 
ATOM      9  O   UNL     1       8.954  -1.871  22.321  0.00  0.00    -0.248 OA
BRANCH   8  10
ATOM     10  O   UNL     1      10.046  -3.163  23.816  0.00  0.00    -0.479 OA
ATOM     11  H   UNL     1      10.717  -2.938  24.496  0.00  0.00    +0.295 HD
ENDBRANCH   8  10
ENDBRANCH   6   8
BRANCH   4  12
ATOM     12  O   UNL     1       5.735  -1.586  26.886  0.00  0.00    -0.386 OA
ATOM     13  H   UNL     1       5.105  -0.843  26.861  0.00  0.00    +0.210 HD
ENDBRANCH   4  12
BRANCH   3  14
ATOM     14  O   UNL     1       6.682   1.060  27.408  0.00  0.00    -0.384 OA
ATOM     15  H   UNL     1       6.583   2.017  27.249  0.00  0.00    +0.210 HD
ENDBRANCH   3  14
BRANCH   2  16
ATOM     16  O   UNL     1       8.197   2.228  25.027  0.00  0.00    -0.341 OA
BRANCH  16  18
ATOM     17  C   UNL     1       9.470   4.059  24.062  0.00  0.00    +0.160 C 
ATOM     18  C   UNL     1       9.183   2.547  24.042  0.00  0.00    +0.177 C 
ATOM     19  C   UNL     1       8.822   2.093  22.608  0.00  0.00    +0.176 C 
ATOM     20  C   UNL     1       7.681   2.931  22.002  0.00  0.00    +0.178 C 
ATOM     21  O   UNL     1       7.931   4.335  22.140  0.00  0.00    -0.341 OA
ATOM     22  C   UNL     1       8.253   4.801  23.456  0.00  0.00    +0.270 C 
BRANCH  17  25
ATOM     23  C   UNL     1      12.827   5.224  22.706  0.00  0.00    +0.109 C 
ATOM     24  C   UNL     1      11.581   5.342  23.543  0.00  0.00    +0.210 C 
ATOM     25  N   UNL     1      10.750   4.274  23.366  0.00  0.00    -0.305 N 
ATOM     26  H   UNL     1      11.126   3.479  22.857  0.00  0.00    +0.149 HD
ATOM     27  O   UNL     1      11.353   6.277  24.297  0.00  0.00    -0.276 OA
ENDBRANCH  17  25
BRANCH  22  28
ATOM     28  O   UNL     1       7.106   4.742  24.299  0.00  0.00    -0.365 OA
ATOM     29  H   UNL     1       7.129   5.514  24.899  0.00  0.00    +0.213 HD
ENDBRANCH  22  28
BRANCH  19  30
ATOM     30  O   UNL     1       9.993   2.222  21.769  0.00  0.00    -0.387 OA
ATOM     31  H   UNL     1       9.783   2.907  21.104  0.00  0.00    +0.210 HD
ENDBRANCH  19  30
BRANCH  20  32
ATOM     32  C   UNL     1       6.273   2.512  22.452  0.00  0.00    +0.190 C 
BRANCH  32  33
ATOM     33  O   UNL     1       6.228   1.107  22.709  0.00  0.00    -0.392 OA
ATOM     34  H   UNL     1       5.816   0.987  23.585  0.00  0.00    +0.210 HD
ENDBRANCH  32  33
ENDBRANCH  20  32
ENDBRANCH  16  18
ENDBRANCH   2  16
ENDBRANCH   1   5
BRANCH   1  35
ATOM     35  C   UNL     1       7.028  -4.313  25.130  0.00  0.00    +0.274 C 
ATOM     36  C   UNL     1       5.550  -4.223  25.517  0.00  0.00    +0.160 C 
ATOM     37  C   UNL     1       4.736  -5.262  24.687  0.00  0.00    +0.177 C 
ATOM     38  C   UNL     1       5.192  -5.342  23.198  0.00  0.00    +0.176 C 
ATOM     39  C   UNL     1       6.703  -5.228  23.010  0.00  0.00    +0.178 C 
ATOM     40  O   UNL     1       7.147  -4.084  23.730  0.00  0.00    -0.341 OA
BRANCH  36  41
ATOM     41  N   UNL     1       5.328  -4.315  26.974  0.00  0.00    -0.305 N 
ATOM     42  H   UNL     1       5.092  -3.451  27.452  0.00  0.00    +0.149 HD
ATOM     43  C   UNL     1       5.730  -5.383  27.737  0.00  0.00    +0.210 C 
ATOM     44  O   UNL     1       6.251  -6.380  27.245  0.00  0.00    -0.276 OA
ATOM     45  C   UNL     1       5.500  -5.227  29.219  0.00  0.00    +0.109 C 
ENDBRANCH  36  41
BRANCH  38  46
ATOM     46  O   UNL     1       4.763  -6.548  22.542  0.00  0.00    -0.387 OA
ATOM     47  H   UNL     1       5.458  -6.837  21.922  0.00  0.00    +0.210 HD
ENDBRANCH  38  46
BRANCH  39  48
ATOM     48  C   UNL     1       7.087  -5.078  21.527  0.00  0.00    +0.190 C 
BRANCH  48  49
ATOM     49  O   UNL     1       5.957  -4.813  20.709  0.00  0.00    -0.392 OA
ATOM     50  H   UNL     1       5.306  -5.531  20.848  0.00  0.00    +0.210 HD
ENDBRANCH  48  49
ENDBRANCH  39  48
BRANCH  37  51
ATOM     51  O   UNL     1       3.392  -4.785  24.796  0.00  0.00    -0.341 OA
BRANCH  51  52
ATOM     52  C   UNL     1       2.420  -5.571  25.473  0.00  0.00    +0.283 C 
ATOM     53  C   UNL     1       2.620  -6.976  24.880  0.00  0.00    +0.201 C 
ATOM     54  C   UNL     1       1.849  -8.020  25.675  0.00  0.00    +0.179 C 
ATOM     55  C   UNL     1       2.025  -7.867  27.191  0.00  0.00    +0.185 C 
ATOM     56  C   UNL     1       1.742  -6.420  27.583  0.00  0.00    +0.260 C 
ATOM     57  O   UNL     1       2.658  -5.579  26.873  0.00  0.00    -0.332 OA
BRANCH  56  58
ATOM     58  C   UNL     1       1.921  -6.208  29.085  0.00  0.00    +0.337 C 
ATOM     59  O   UNL     1       2.161  -7.110  29.874  0.00  0.00    -0.248 OA
BRANCH  58  60
ATOM     60  O   UNL     1       1.721  -4.927  29.475  0.00  0.00    -0.479 OA
ATOM     61  H   UNL     1       1.417  -4.912  30.412  0.00  0.00    +0.295 HD
ENDBRANCH  58  60
ENDBRANCH  56  58
BRANCH  55  62
ATOM     62  O   UNL     1       1.168  -8.841  27.791  0.00  0.00    -0.386 OA
ATOM     63  H   UNL     1       1.162  -9.658  27.261  0.00  0.00    +0.210 HD
ENDBRANCH  55  62
BRANCH  54  64
ATOM     64  O   UNL     1       2.281  -9.333  25.296  0.00  0.00    -0.386 OA
ATOM     65  H   UNL     1       3.232  -9.253  25.089  0.00  0.00    +0.210 HD
ENDBRANCH  54  64
BRANCH  53  66
ATOM     66  O   UNL     1       2.196  -7.021  23.506  0.00  0.00    -0.384 OA
ATOM     67  H   UNL     1       2.307  -7.926  23.171  0.00  0.00    +0.210 HD
ENDBRANCH  53  66
ENDBRANCH  51  52
ENDBRANCH  37  51
ENDBRANCH   1  35
TORSDOF 24
ENDMDL
MODEL 3
REMARK VINA RESULT:      -7.0      1.323      3.302
REMARK  Name = 
REMARK  26 active torsions:
REMARK  status: ('A' for Active; 'I' for Inactive)
REMARK    1  A    between atoms: C_1  and  C_2
REMARK    2  A    between atoms: N_4  and  C_5
REMARK    3  A    between atoms: C_7  and  O_9
REMARK    4  A    between atoms: C_11  and  C_13
REMARK    5  A    between atoms: C_13  and  O_14
REMARK    6  A    between atoms: C_15  and  O_17
REMARK    7  A    between atoms: C_18  and  O_19
REMARK    8  A    between atoms: O_19  and  C_20
REMARK    9  A    between atoms: C_23  and  C_69
REMARK   10  A    between atoms: C_25  and  O_27
REMARK   11  A    between atoms: O_27  and  C_28
REMARK   12  A    between atoms: C_31  and  C_33
REMARK   13  A    between atoms: C_33  and  O_34
REMARK   14  A    between atoms: C_35  and  O_37
REMARK   15  A    between atoms: C_38  and  O_39
REMARK   16  A    between atoms: O_39  and  C_40
REMARK   17  A    between atoms: C_43  and  C_54
REMARK   18  A    between atoms: C_45  and  O_47
REMARK   19  A    between atoms: C_48  and  O_50
REMARK   20  A    between atoms: C_51  and  O_53
REMARK   21  A    between atoms: C_54  and  O_55
REMARK   22  A    between atoms: C_57  and  N_59
REMARK   23  A    between atoms: C_60  and  C_61
REMARK   24  A    between atoms: C_63  and  O_65
REMARK   25  A    between atoms: C_66  and  O_68
REMARK   26  A    between atoms: C_69  and  O_70
REMARK                            x       y       z     vdW  Elec       q    Type
REMARK                         _______ _______ _______ _____ _____    ______ ____
ROOT
ATOM      1  O   UNL     1       6.104  -1.296  24.321  0.00  0.00    -0.340 OA
ENDROOT
BRANCH   1   5
ATOM      2  C   UNL     1       7.794   2.364  25.575  0.00  0.00    +0.283 C 
ATOM      3  C   UNL     1       6.313   2.143  25.974  0.00  0.00    +0.201 C 
ATOM      4  C   UNL     1       5.924   0.695  25.732  0.00  0.00    +0.180 C 
ATOM      5  C   UNL     1       6.375   0.126  24.382  0.00  0.00    +0.192 C 
ATOM      6  C   UNL     1       7.833   0.531  24.076  0.00  0.00    +0.260 C 
ATOM      7  O   UNL     1       7.986   1.940  24.224  0.00  0.00    -0.331 OA
BRANCH   6   8
ATOM      8  C   UNL     1       8.174   0.068  22.657  0.00  0.00    +0.337 C 
ATOM      9  O   UNL     1       8.405   0.805  21.698  0.00  0.00    -0.248 OA
BRANCH   8  10
ATOM     10  O   UNL     1       8.208  -1.285  22.530  0.00  0.00    -0.479 OA
ATOM     11  H   UNL     1       7.382  -1.713  22.844  0.00  0.00    +0.295 HD
ENDBRANCH   8  10
ENDBRANCH   6   8
BRANCH   4  12
ATOM     12  O   UNL     1       4.508   0.548  25.904  0.00  0.00    -0.386 OA
ATOM     13  H   UNL     1       4.276   0.862  26.797  0.00  0.00    +0.210 HD
ENDBRANCH   4  12
BRANCH   3  14
ATOM     14  O   UNL     1       6.111   2.398  27.380  0.00  0.00    -0.384 OA
ATOM     15  H   UNL     1       6.886   2.088  27.883  0.00  0.00    +0.210 HD
ENDBRANCH   3  14
BRANCH   2  16
ATOM     16  O   UNL     1       8.234   3.728  25.632  0.00  0.00    -0.341 OA
BRANCH  16  18
ATOM     17  C   UNL     1      10.079   5.052  24.769  0.00  0.00    +0.160 C 
ATOM     18  C   UNL     1       8.831   4.217  24.429  0.00  0.00    +0.177 C 
ATOM     19  C   UNL     1       7.874   5.033  23.528  0.00  0.00    +0.176 C 
ATOM     20  C   UNL     1       7.534   6.406  24.134  0.00  0.00    +0.178 C 
ATOM     21  O   UNL     1       8.715   7.107  24.541  0.00  0.00    -0.341 OA
ATOM     22  C   UNL     1       9.621   6.394  25.392  0.00  0.00    +0.270 C 
BRANCH  17  25
ATOM     23  C   UNL     1      12.703   5.551  22.061  0.00  0.00    +0.109 C 
ATOM     24  C   UNL     1      12.174   5.596  23.470  0.00  0.00    +0.210 C 
ATOM     25  N   UNL     1      10.879   5.169  23.538  0.00  0.00    -0.305 N 
ATOM     26  H   UNL     1      10.499   4.723  22.708  0.00  0.00    +0.149 HD
ATOM     27  O   UNL     1      12.832   5.960  24.434  0.00  0.00    -0.276 OA
ENDBRANCH  17  25
BRANCH  22  28
ATOM     28  O   UNL     1       9.058   6.226  26.689  0.00  0.00    -0.365 OA
ATOM     29  H   UNL     1       8.695   5.320  26.749  0.00  0.00    +0.213 HD
ENDBRANCH  22  28
BRANCH  19  30
ATOM     30  O   UNL     1       8.503   5.232  22.241  0.00  0.00    -0.387 OA
ATOM     31  H   UNL     1       8.206   6.106  21.920  0.00  0.00    +0.210 HD
ENDBRANCH  19  30
BRANCH  20  32
ATOM     32  C   UNL     1       6.438   6.375  25.210  0.00  0.00    +0.190 C 
BRANCH  32  33
ATOM     33  O   UNL     1       5.577   5.250  25.015  0.00  0.00    -0.392 OA
ATOM     34  H   UNL     1       5.448   5.148  24.054  0.00  0.00    +0.210 HD
ENDBRANCH  32  33
ENDBRANCH  20  32
ENDBRANCH  16  18
ENDBRANCH   2  16
ENDBRANCH   1   5
BRANCH   1  35
ATOM     35  C   UNL     1       6.804  -2.093  25.275  0.00  0.00    +0.274 C 
ATOM     36  C   UNL     1       5.854  -3.028  26.026  0.00  0.00    +0.160 C 
ATOM     37  C   UNL     1       6.679  -3.945  26.980  0.00  0.00    +0.177 C 
ATOM     38  C   UNL     1       8.000  -4.463  26.333  0.00  0.00    +0.176 C 
ATOM     39  C   UNL     1       8.709  -3.424  25.467  0.00  0.00    +0.178 C 
ATOM     40  O   UNL     1       7.752  -2.882  24.565  0.00  0.00    -0.341 OA
BRANCH  36  41
ATOM     41  N   UNL     1       4.747  -2.313  26.693  0.00  0.00    -0.305 N 
ATOM     42  H   UNL     1       4.956  -1.895  27.595  0.00  0.00    +0.149 HD
ATOM     43  C   UNL     1       3.429  -2.458  26.341  0.00  0.00    +0.210 C 
ATOM     44  O   UNL     1       3.076  -3.152  25.391  0.00  0.00    -0.276 OA
ATOM     45  C   UNL     1       2.451  -1.718  27.219  0.00  0.00    +0.109 C 
ENDBRANCH  36  41
BRANCH  38  46
ATOM     46  O   UNL     1       8.950  -4.943  27.300  0.00  0.00    -0.387 OA
ATOM     47  H   UNL     1       9.365  -5.757  26.961  0.00  0.00    +0.210 HD
ENDBRANCH  38  46
BRANCH  39  48
ATOM     48  C   UNL     1       9.871  -4.041  24.668  0.00  0.00    +0.190 C 
BRANCH  48  49
ATOM     49  O   UNL     1       9.954  -5.447  24.848  0.00  0.00    -0.392 OA
ATOM     50  H   UNL     1       9.843  -5.873  23.973  0.00  0.00    +0.210 HD
ENDBRANCH  48  49
ENDBRANCH  39  48
BRANCH  37  51
ATOM     51  O   UNL     1       5.778  -5.020  27.259  0.00  0.00    -0.341 OA
BRANCH  51  52
ATOM     52  C   UNL     1       5.482  -5.970  26.244  0.00  0.00    +0.283 C 
ATOM     53  C   UNL     1       4.203  -6.655  26.758  0.00  0.00    +0.201 C 
ATOM     54  C   UNL     1       3.576  -7.524  25.677  0.00  0.00    +0.179 C 
ATOM     55  C   UNL     1       3.498  -6.821  24.316  0.00  0.00    +0.185 C 
ATOM     56  C   UNL     1       4.869  -6.250  23.969  0.00  0.00    +0.260 C 
ATOM     57  O   UNL     1       5.243  -5.330  25.001  0.00  0.00    -0.332 OA
BRANCH  56  58
ATOM     58  C   UNL     1       4.842  -5.521  22.627  0.00  0.00    +0.337 C 
ATOM     59  O   UNL     1       4.651  -4.320  22.511  0.00  0.00    -0.248 OA
BRANCH  58  60
ATOM     60  O   UNL     1       4.983  -6.348  21.563  0.00  0.00    -0.479 OA
ATOM     61  H   UNL     1       4.199  -6.941  21.502  0.00  0.00    +0.295 HD
ENDBRANCH  58  60
ENDBRANCH  56  58
BRANCH  55  62
ATOM     62  O   UNL     1       2.989  -7.790  23.396  0.00  0.00    -0.386 OA
ATOM     63  H   UNL     1       3.693  -8.082  22.790  0.00  0.00    +0.210 HD
ENDBRANCH  55  62
BRANCH  54  64
ATOM     64  O   UNL     1       2.251  -7.905  26.070  0.00  0.00    -0.386 OA
ATOM     65  H   UNL     1       2.242  -7.874  27.046  0.00  0.00    +0.210 HD
ENDBRANCH  54  64
BRANCH  53  66
ATOM     66  O   UNL     1       4.480  -7.466  27.914  0.00  0.00    -0.384 OA
ATOM     67  H   UNL     1       5.284  -7.134  28.347  0.00  0.00    +0.210 HD
ENDBRANCH  53  66
ENDBRANCH  51  52
ENDBRANCH  37  51
ENDBRANCH   1  35
TORSDOF 24
ENDMDL
MODEL 4
REMARK VINA RESULT:      -6.9      2.023     10.169
REMARK  Name = 
REMARK  26 active torsions:
REMARK  status: ('A' for Active; 'I' for Inactive)
REMARK    1  A    between atoms: C_1  and  C_2
REMARK    2  A    between atoms: N_4  and  C_5
REMARK    3  A    between atoms: C_7  and  O_9
REMARK    4  A    between atoms: C_11  and  C_13
REMARK    5  A    between atoms: C_13  and  O_14
REMARK    6  A    between atoms: C_15  and  O_17
REMARK    7  A    between atoms: C_18  and  O_19
REMARK    8  A    between atoms: O_19  and  C_20
REMARK    9  A    between atoms: C_23  and  C_69
REMARK   10  A    between atoms: C_25  and  O_27
REMARK   11  A    between atoms: O_27  and  C_28
REMARK   12  A    between atoms: C_31  and  C_33
REMARK   13  A    between atoms: C_33  and  O_34
REMARK   14  A    between atoms: C_35  and  O_37
REMARK   15  A    between atoms: C_38  and  O_39
REMARK   16  A    between atoms: O_39  and  C_40
REMARK   17  A    between atoms: C_43  and  C_54
REMARK   18  A    between atoms: C_45  and  O_47
REMARK   19  A    between atoms: C_48  and  O_50
REMARK   20  A    between atoms: C_51  and  O_53
REMARK   21  A    between atoms: C_54  and  O_55
REMARK   22  A    between atoms: C_57  and  N_59
REMARK   23  A    between atoms: C_60  and  C_61
REMARK   24  A    between atoms: C_63  and  O_65
REMARK   25  A    between atoms: C_66  and  O_68
REMARK   26  A    between atoms: C_69  and  O_70
REMARK                            x       y       z     vdW  Elec       q    Type
REMARK                         _______ _______ _______ _____ _____    ______ ____
ROOT
ATOM      1  O   UNL     1       7.353  -1.967  26.394  0.00  0.00    -0.340 OA
ENDROOT
BRANCH   1   5
ATOM      2  C   UNL     1       4.068  -3.979  24.665  0.00  0.00    +0.283 C 
ATOM      3  C   UNL     1       3.751  -3.159  25.942  0.00  0.00    +0.201 C 
ATOM      4  C   UNL     1       4.927  -2.260  26.284  0.00  0.00    +0.180 C 
ATOM      5  C   UNL     1       6.297  -2.943  26.215  0.00  0.00    +0.192 C 
ATOM      6  C   UNL     1       6.414  -3.814  24.946  0.00  0.00    +0.260 C 
ATOM      7  O   UNL     1       5.293  -4.689  24.854  0.00  0.00    -0.331 OA
BRANCH   6   8
ATOM      8  C   UNL     1       7.735  -4.586  25.010  0.00  0.00    +0.337 C 
ATOM      9  O   UNL     1       8.075  -5.351  25.913  0.00  0.00    -0.248 OA
BRANCH   8  10
ATOM     10  O   UNL     1       8.543  -4.352  23.943  0.00  0.00    -0.479 OA
ATOM     11  H   UNL     1       9.480  -4.217  24.202  0.00  0.00    +0.295 HD
ENDBRANCH   8  10
ENDBRANCH   6   8
BRANCH   4  12
ATOM     12  O   UNL     1       4.713  -1.666  27.571  0.00  0.00    -0.386 OA
ATOM     13  H   UNL     1       4.343  -2.346  28.162  0.00  0.00    +0.210 HD
ENDBRANCH   4  12
BRANCH   3  14
ATOM     14  O   UNL     1       2.614  -2.294  25.734  0.00  0.00    -0.384 OA
ATOM     15  H   UNL     1       2.812  -1.659  25.022  0.00  0.00    +0.210 HD
ENDBRANCH   3  14
BRANCH   2  16
ATOM     16  O   UNL     1       3.083  -4.963  24.324  0.00  0.00    -0.341 OA
BRANCH  16  18
ATOM     17  C   UNL     1       3.638  -6.697  25.932  0.00  0.00    +0.160 C 
ATOM     18  C   UNL     1       2.571  -5.708  25.430  0.00  0.00    +0.177 C 
ATOM     19  C   UNL     1       1.248  -6.455  25.139  0.00  0.00    +0.176 C 
ATOM     20  C   UNL     1       1.453  -7.652  24.193  0.00  0.00    +0.178 C 
ATOM     21  O   UNL     1       2.528  -8.490  24.631  0.00  0.00    -0.341 OA
ATOM     22  C   UNL     1       3.777  -7.841  24.896  0.00  0.00    +0.270 C 
BRANCH  17  25
ATOM     23  C   UNL     1       3.010  -7.174  29.653  0.00  0.00    +0.109 C 
ATOM     24  C   UNL     1       3.628  -6.513  28.449  0.00  0.00    +0.210 C 
ATOM     25  N   UNL     1       3.246  -7.119  27.287  0.00  0.00    -0.305 N 
ATOM     26  H   UNL     1       2.489  -7.794  27.349  0.00  0.00    +0.149 HD
ATOM     27  O   UNL     1       4.371  -5.544  28.511  0.00  0.00    -0.276 OA
ENDBRANCH  17  25
BRANCH  22  28
ATOM     28  O   UNL     1       4.378  -7.402  23.681  0.00  0.00    -0.365 OA
ATOM     29  H   UNL     1       5.235  -6.984  23.899  0.00  0.00    +0.213 HD
ENDBRANCH  22  28
BRANCH  19  30
ATOM     30  O   UNL     1       0.699  -6.935  26.388  0.00  0.00    -0.387 OA
ATOM     31  H   UNL     1       0.868  -7.897  26.413  0.00  0.00    +0.210 HD
ENDBRANCH  19  30
BRANCH  20  32
ATOM     32  C   UNL     1       1.531  -7.282  22.704  0.00  0.00    +0.190 C 
BRANCH  32  33
ATOM     33  O   UNL     1       1.580  -8.460  21.896  0.00  0.00    -0.392 OA
ATOM     34  H   UNL     1       2.159  -9.099  22.352  0.00  0.00    +0.210 HD
ENDBRANCH  32  33
ENDBRANCH  20  32
ENDBRANCH  16  18
ENDBRANCH   2  16
ENDBRANCH   1   5
BRANCH   1  35
ATOM     35  C   UNL     1       7.627  -1.150  25.256  0.00  0.00    +0.274 C 
ATOM     36  C   UNL     1       7.584   0.338  25.615  0.00  0.00    +0.160 C 
ATOM     37  C   UNL     1       7.988   1.181  24.367  0.00  0.00    +0.177 C 
ATOM     38  C   UNL     1       9.181   0.562  23.576  0.00  0.00    +0.176 C 
ATOM     39  C   UNL     1       9.135  -0.962  23.487  0.00  0.00    +0.178 C 
ATOM     40  O   UNL     1       8.938  -1.469  24.801  0.00  0.00    -0.341 OA
BRANCH  36  41
ATOM     41  N   UNL     1       6.302   0.747  26.224  0.00  0.00    -0.305 N 
ATOM     42  H   UNL     1       5.488   0.736  25.617  0.00  0.00    +0.149 HD
ATOM     43  C   UNL     1       6.210   1.428  27.412  0.00  0.00    +0.210 C 
ATOM     44  O   UNL     1       7.196   1.692  28.094  0.00  0.00    -0.276 OA
ATOM     45  C   UNL     1       4.812   1.842  27.801  0.00  0.00    +0.109 C 
ENDBRANCH  36  41
BRANCH  38  46
ATOM     46  O   UNL     1       9.291   1.072  22.235  0.00  0.00    -0.387 OA
ATOM     47  H   UNL     1       9.304   0.323  21.610  0.00  0.00    +0.210 HD
ENDBRANCH  38  46
BRANCH  39  48
ATOM     48  C   UNL     1      10.437  -1.542  22.906  0.00  0.00    +0.190 C 
BRANCH  48  49
ATOM     49  O   UNL     1      10.441  -1.526  21.487  0.00  0.00    -0.392 OA
ATOM     50  H   UNL     1      10.433  -0.592  21.193  0.00  0.00    +0.210 HD
ENDBRANCH  48  49
ENDBRANCH  39  48
BRANCH  37  51
ATOM     51  O   UNL     1       8.337   2.448  24.931  0.00  0.00    -0.341 OA
BRANCH  51  52
ATOM     52  C   UNL     1       7.520   3.581  24.673  0.00  0.00    +0.283 C 
ATOM     53  C   UNL     1       8.319   4.367  23.618  0.00  0.00    +0.201 C 
ATOM     54  C   UNL     1       7.478   5.483  23.014  0.00  0.00    +0.179 C 
ATOM     55  C   UNL     1       6.066   5.025  22.627  0.00  0.00    +0.185 C 
ATOM     56  C   UNL     1       5.430   4.309  23.814  0.00  0.00    +0.260 C 
ATOM     57  O   UNL     1       6.257   3.190  24.156  0.00  0.00    -0.332 OA
BRANCH  56  58
ATOM     58  C   UNL     1       4.025   3.814  23.475  0.00  0.00    +0.337 C 
ATOM     59  O   UNL     1       3.150   4.526  23.008  0.00  0.00    -0.248 OA
BRANCH  58  60
ATOM     60  O   UNL     1       3.817   2.517  23.806  0.00  0.00    -0.479 OA
ATOM     61  H   UNL     1       4.613   2.165  24.268  0.00  0.00    +0.295 HD
ENDBRANCH  58  60
ENDBRANCH  56  58
BRANCH  55  62
ATOM     62  O   UNL     1       5.378   6.194  22.178  0.00  0.00    -0.386 OA
ATOM     63  H   UNL     1       5.569   6.358  21.237  0.00  0.00    +0.210 HD
ENDBRANCH  55  62
BRANCH  54  64
ATOM     64  O   UNL     1       8.127   5.999  21.845  0.00  0.00    -0.386 OA
ATOM     65  H   UNL     1       7.906   6.950  21.814  0.00  0.00    +0.210 HD
ENDBRANCH  54  64
BRANCH  53  66
ATOM     66  O   UNL     1       9.512   4.932  24.191  0.00  0.00    -0.384 OA
ATOM     67  H   UNL     1      10.090   4.211  24.490  0.00  0.00    +0.210 HD
ENDBRANCH  53  66
ENDBRANCH  51  52
ENDBRANCH  37  51
ENDBRANCH   1  35
TORSDOF 24
ENDMDL
MODEL 5
REMARK VINA RESULT:      -6.9      2.313     10.648
REMARK  Name = 
REMARK  26 active torsions:
REMARK  status: ('A' for Active; 'I' for Inactive)
REMARK    1  A    between atoms: C_1  and  C_2
REMARK    2  A    between atoms: N_4  and  C_5
REMARK    3  A    between atoms: C_7  and  O_9
REMARK    4  A    between atoms: C_11  and  C_13
REMARK    5  A    between atoms: C_13  and  O_14
REMARK    6  A    between atoms: C_15  and  O_17
REMARK    7  A    between atoms: C_18  and  O_19
REMARK    8  A    between atoms: O_19  and  C_20
REMARK    9  A    between atoms: C_23  and  C_69
REMARK   10  A    between atoms: C_25  and  O_27
REMARK   11  A    between atoms: O_27  and  C_28
REMARK   12  A    between atoms: C_31  and  C_33
REMARK   13  A    between atoms: C_33  and  O_34
REMARK   14  A    between atoms: C_35  and  O_37
REMARK   15  A    between atoms: C_38  and  O_39
REMARK   16  A    between atoms: O_39  and  C_40
REMARK   17  A    between atoms: C_43  and  C_54
REMARK   18  A    between atoms: C_45  and  O_47
REMARK   19  A    between atoms: C_48  and  O_50
REMARK   20  A    between atoms: C_51  and  O_53
REMARK   21  A    between atoms: C_54  and  O_55
REMARK   22  A    between atoms: C_57  and  N_59
REMARK   23  A    between atoms: C_60  and  C_61
REMARK   24  A    between atoms: C_63  and  O_65
REMARK   25  A    between atoms: C_66  and  O_68
REMARK   26  A    between atoms: C_69  and  O_70
REMARK                            x       y       z     vdW  Elec       q    Type
REMARK                         _______ _______ _______ _____ _____    ______ ____
ROOT
ATOM      1  O   UNL     1       7.854  -3.085  25.125  0.00  0.00    -0.340 OA
ENDROOT
BRANCH   1   5
ATOM      2  C   UNL     1       4.913  -6.048  24.496  0.00  0.00    +0.283 C 
ATOM      3  C   UNL     1       4.607  -4.662  23.872  0.00  0.00    +0.201 C 
ATOM      4  C   UNL     1       5.852  -3.793  23.910  0.00  0.00    +0.180 C 
ATOM      5  C   UNL     1       6.603  -3.806  25.246  0.00  0.00    +0.192 C 
ATOM      6  C   UNL     1       6.724  -5.245  25.793  0.00  0.00    +0.260 C 
ATOM      7  O   UNL     1       5.442  -5.866  25.810  0.00  0.00    -0.331 OA
BRANCH   6   8
ATOM      8  C   UNL     1       7.344  -5.178  27.192  0.00  0.00    +0.337 C 
ATOM      9  O   UNL     1       6.723  -5.238  28.255  0.00  0.00    -0.248 OA
BRANCH   8  10
ATOM     10  O   UNL     1       8.695  -5.042  27.173  0.00  0.00    -0.479 OA
ATOM     11  H   UNL     1       9.106  -5.238  28.042  0.00  0.00    +0.295 HD
ENDBRANCH   8  10
ENDBRANCH   6   8
BRANCH   4  12
ATOM     12  O   UNL     1       5.509  -2.455  23.527  0.00  0.00    -0.386 OA
ATOM     13  H   UNL     1       4.542  -2.409  23.415  0.00  0.00    +0.210 HD
ENDBRANCH   4  12
BRANCH   3  14
ATOM     14  O   UNL     1       4.232  -4.790  22.485  0.00  0.00    -0.384 OA
ATOM     15  H   UNL     1       3.699  -5.597  22.363  0.00  0.00    +0.210 HD
ENDBRANCH   3  14
BRANCH   2  16
ATOM     16  O   UNL     1       3.774  -6.907  24.639  0.00  0.00    -0.341 OA
BRANCH  16  18
ATOM     17  C   UNL     1       2.239  -7.231  26.494  0.00  0.00    +0.160 C 
ATOM     18  C   UNL     1       2.665  -6.323  25.326  0.00  0.00    +0.177 C 
ATOM     19  C   UNL     1       1.448  -6.011  24.423  0.00  0.00    +0.176 C 
ATOM     20  C   UNL     1       0.724  -7.289  23.961  0.00  0.00    +0.178 C 
ATOM     21  O   UNL     1       0.443  -8.161  25.062  0.00  0.00    -0.341 OA
ATOM     22  C   UNL     1       1.547  -8.490  25.914  0.00  0.00    +0.270 C 
BRANCH  17  25
ATOM     23  C   UNL     1       0.767  -4.910  29.124  0.00  0.00    +0.109 C 
ATOM     24  C   UNL     1       1.881  -5.640  28.421  0.00  0.00    +0.210 C 
ATOM     25  N   UNL     1       1.412  -6.420  27.403  0.00  0.00    -0.305 N 
ATOM     26  H   UNL     1       0.441  -6.287  27.133  0.00  0.00    +0.149 HD
ATOM     27  O   UNL     1       3.061  -5.534  28.721  0.00  0.00    -0.276 OA
ENDBRANCH  17  25
BRANCH  22  28
ATOM     28  O   UNL     1       2.461  -9.348  25.237  0.00  0.00    -0.365 OA
ATOM     29  H   UNL     1       3.271  -8.836  25.041  0.00  0.00    +0.213 HD
ENDBRANCH  22  28
BRANCH  19  30
ATOM     30  O   UNL     1       0.517  -5.188  25.163  0.00  0.00    -0.387 OA
ATOM     31  H   UNL     1       1.052  -4.659  25.788  0.00  0.00    +0.210 HD
ENDBRANCH  19  30
BRANCH  20  32
ATOM     32  C   UNL     1       1.383  -7.999  22.768  0.00  0.00    +0.190 C 
BRANCH  32  33
ATOM     33  O   UNL     1       2.379  -7.163  22.175  0.00  0.00    -0.392 OA
ATOM     34  H   UNL     1       2.211  -6.252  22.481  0.00  0.00    +0.210 HD
ENDBRANCH  32  33
ENDBRANCH  20  32
ENDBRANCH  16  18
ENDBRANCH   2  16
ENDBRANCH   1   5
BRANCH   1  35
ATOM     35  C   UNL     1       7.863  -1.778  25.698  0.00  0.00    +0.274 C 
ATOM     36  C   UNL     1       8.073  -0.702  24.630  0.00  0.00    +0.160 C 
ATOM     37  C   UNL     1       7.973   0.707  25.290  0.00  0.00    +0.177 C 
ATOM     38  C   UNL     1       6.825   0.805  26.341  0.00  0.00    +0.176 C 
ATOM     39  C   UNL     1       6.660  -0.452  27.192  0.00  0.00    +0.178 C 
ATOM     40  O   UNL     1       6.597  -1.568  26.312  0.00  0.00    -0.341 OA
BRANCH  36  41
ATOM     41  N   UNL     1       9.304  -0.906  23.839  0.00  0.00    -0.305 N 
ATOM     42  H   UNL     1      10.130  -0.405  24.149  0.00  0.00    +0.149 HD
ATOM     43  C   UNL     1       9.313  -1.443  22.576  0.00  0.00    +0.210 C 
ATOM     44  O   UNL     1       8.294  -1.858  22.032  0.00  0.00    -0.276 OA
ATOM     45  C   UNL     1      10.664  -1.466  21.905  0.00  0.00    +0.109 C 
ENDBRANCH  36  41
BRANCH  38  46
ATOM     46  O   UNL     1       6.978   1.920  27.238  0.00  0.00    -0.387 OA
ATOM     47  H   UNL     1       7.553   1.654  27.980  0.00  0.00    +0.210 HD
ENDBRANCH  38  46
BRANCH  39  48
ATOM     48  C   UNL     1       5.380  -0.402  28.046  0.00  0.00    +0.190 C 
BRANCH  48  49
ATOM     49  O   UNL     1       5.529   0.441  29.179  0.00  0.00    -0.392 OA
ATOM     50  H   UNL     1       4.947   1.219  29.058  0.00  0.00    +0.210 HD
ENDBRANCH  48  49
ENDBRANCH  39  48
BRANCH  37  51
ATOM     51  O   UNL     1       7.738   1.572  24.177  0.00  0.00    -0.341 OA
BRANCH  51  52
ATOM     52  C   UNL     1       8.375   2.842  24.126  0.00  0.00    +0.283 C 
ATOM     53  C   UNL     1       7.872   3.441  22.801  0.00  0.00    +0.201 C 
ATOM     54  C   UNL     1       8.234   4.916  22.696  0.00  0.00    +0.179 C 
ATOM     55  C   UNL     1       7.932   5.698  23.980  0.00  0.00    +0.185 C 
ATOM     56  C   UNL     1       8.548   4.967  25.168  0.00  0.00    +0.260 C 
ATOM     57  O   UNL     1       7.983   3.652  25.223  0.00  0.00    -0.332 OA
BRANCH  56  58
ATOM     58  C   UNL     1       8.259   5.697  26.478  0.00  0.00    +0.337 C 
ATOM     59  O   UNL     1       8.691   6.808  26.745  0.00  0.00    -0.248 OA
BRANCH  58  60
ATOM     60  O   UNL     1       7.531   4.963  27.353  0.00  0.00    -0.479 OA
ATOM     61  H   UNL     1       7.186   4.159  26.900  0.00  0.00    +0.295 HD
ENDBRANCH  58  60
ENDBRANCH  56  58
BRANCH  55  62
ATOM     62  O   UNL     1       8.417   7.025  23.761  0.00  0.00    -0.386 OA
ATOM     63  H   UNL     1       9.358   7.085  24.005  0.00  0.00    +0.210 HD
ENDBRANCH  55  62
BRANCH  54  64
ATOM     64  O   UNL     1       7.510   5.517  21.614  0.00  0.00    -0.386 OA
ATOM     65  H   UNL     1       6.569   5.309  21.774  0.00  0.00    +0.210 HD
ENDBRANCH  54  64
BRANCH  53  66
ATOM     66  O   UNL     1       8.425   2.738  21.674  0.00  0.00    -0.384 OA
ATOM     67  H   UNL     1       7.905   1.933  21.518  0.00  0.00    +0.210 HD
ENDBRANCH  53  66
ENDBRANCH  51  52
ENDBRANCH  37  51
ENDBRANCH   1  35
TORSDOF 24
ENDMDL
MODEL 6
REMARK VINA RESULT:      -6.7      1.368      2.347
REMARK  Name = 
REMARK  26 active torsions:
REMARK  status: ('A' for Active; 'I' for Inactive)
REMARK    1  A    between atoms: C_1  and  C_2
REMARK    2  A    between atoms: N_4  and  C_5
REMARK    3  A    between atoms: C_7  and  O_9
REMARK    4  A    between atoms: C_11  and  C_13
REMARK    5  A    between atoms: C_13  and  O_14
REMARK    6  A    between atoms: C_15  and  O_17
REMARK    7  A    between atoms: C_18  and  O_19
REMARK    8  A    between atoms: O_19  and  C_20
REMARK    9  A    between atoms: C_23  and  C_69
REMARK   10  A    between atoms: C_25  and  O_27
REMARK   11  A    between atoms: O_27  and  C_28
REMARK   12  A    between atoms: C_31  and  C_33
REMARK   13  A    between atoms: C_33  and  O_34
REMARK   14  A    between atoms: C_35  and  O_37
REMARK   15  A    between atoms: C_38  and  O_39
REMARK   16  A    between atoms: O_39  and  C_40
REMARK   17  A    between atoms: C_43  and  C_54
REMARK   18  A    between atoms: C_45  and  O_47
REMARK   19  A    between atoms: C_48  and  O_50
REMARK   20  A    between atoms: C_51  and  O_53
REMARK   21  A    between atoms: C_54  and  O_55
REMARK   22  A    between atoms: C_57  and  N_59
REMARK   23  A    between atoms: C_60  and  C_61
REMARK   24  A    between atoms: C_63  and  O_65
REMARK   25  A    between atoms: C_66  and  O_68
REMARK   26  A    between atoms: C_69  and  O_70
REMARK                            x       y       z     vdW  Elec       q    Type
REMARK                         _______ _______ _______ _____ _____    ______ ____
ROOT
ATOM      1  O   UNL     1       6.158  -1.134  24.256  0.00  0.00    -0.340 OA
ENDROOT
BRANCH   1   5
ATOM      2  C   UNL     1       7.822   2.532  25.528  0.00  0.00    +0.283 C 
ATOM      3  C   UNL     1       6.328   2.319  25.884  0.00  0.00    +0.201 C 
ATOM      4  C   UNL     1       5.942   0.870  25.643  0.00  0.00    +0.180 C 
ATOM      5  C   UNL     1       6.432   0.288  24.313  0.00  0.00    +0.192 C 
ATOM      6  C   UNL     1       7.900   0.686  24.048  0.00  0.00    +0.260 C 
ATOM      7  O   UNL     1       8.054   2.095  24.188  0.00  0.00    -0.331 OA
BRANCH   6   8
ATOM      8  C   UNL     1       8.284   0.207  22.644  0.00  0.00    +0.337 C 
ATOM      9  O   UNL     1       8.143   0.852  21.604  0.00  0.00    -0.248 OA
BRANCH   8  10
ATOM     10  O   UNL     1       8.819  -1.042  22.632  0.00  0.00    -0.479 OA
ATOM     11  H   UNL     1       9.292  -1.257  23.465  0.00  0.00    +0.295 HD
ENDBRANCH   8  10
ENDBRANCH   6   8
BRANCH   4  12
ATOM     12  O   UNL     1       4.521   0.730  25.772  0.00  0.00    -0.386 OA
ATOM     13  H   UNL     1       4.120   1.616  25.707  0.00  0.00    +0.210 HD
ENDBRANCH   4  12
BRANCH   3  14
ATOM     14  O   UNL     1       6.084   2.588  27.280  0.00  0.00    -0.384 OA
ATOM     15  H   UNL     1       5.197   2.267  27.525  0.00  0.00    +0.210 HD
ENDBRANCH   3  14
BRANCH   2  16
ATOM     16  O   UNL     1       8.265   3.895  25.587  0.00  0.00    -0.341 OA
BRANCH  16  18
ATOM     17  C   UNL     1       7.282   4.815  23.564  0.00  0.00    +0.160 C 
ATOM     18  C   UNL     1       7.322   4.853  25.103  0.00  0.00    +0.177 C 
ATOM     19  C   UNL     1       7.573   6.299  25.593  0.00  0.00    +0.176 C 
ATOM     20  C   UNL     1       8.819   6.925  24.943  0.00  0.00    +0.178 C 
ATOM     21  O   UNL     1       8.802   6.772  23.519  0.00  0.00    -0.341 OA
ATOM     22  C   UNL     1       8.589   5.446  23.021  0.00  0.00    +0.270 C 
BRANCH  17  25
ATOM     23  C   UNL     1       3.766   5.842  22.542  0.00  0.00    +0.109 C 
ATOM     24  C   UNL     1       4.841   4.861  22.925  0.00  0.00    +0.210 C 
ATOM     25  N   UNL     1       6.039   5.479  23.139  0.00  0.00    -0.305 N 
ATOM     26  H   UNL     1       6.028   6.494  23.190  0.00  0.00    +0.149 HD
ATOM     27  O   UNL     1       4.655   3.657  23.041  0.00  0.00    -0.276 OA
ENDBRANCH  17  25
BRANCH  22  28
ATOM     28  O   UNL     1       9.730   4.630  23.273  0.00  0.00    -0.365 OA
ATOM     29  H   UNL     1       9.503   4.001  23.986  0.00  0.00    +0.213 HD
ENDBRANCH  22  28
BRANCH  19  30
ATOM     30  O   UNL     1       6.419   7.108  25.269  0.00  0.00    -0.387 OA
ATOM     31  H   UNL     1       5.909   6.608  24.601  0.00  0.00    +0.210 HD
ENDBRANCH  19  30
BRANCH  20  32
ATOM     32  C   UNL     1      10.151   6.513  25.588  0.00  0.00    +0.190 C 
BRANCH  32  33
ATOM     33  O   UNL     1      11.235   6.724  24.681  0.00  0.00    -0.392 OA
ATOM     34  H   UNL     1      11.922   6.065  24.893  0.00  0.00    +0.210 HD
ENDBRANCH  32  33
ENDBRANCH  20  32
ENDBRANCH  16  18
ENDBRANCH   2  16
ENDBRANCH   1   5
BRANCH   1  35
ATOM     35  C   UNL     1       6.872  -1.931  25.200  0.00  0.00    +0.274 C 
ATOM     36  C   UNL     1       5.929  -2.851  25.980  0.00  0.00    +0.160 C 
ATOM     37  C   UNL     1       6.766  -3.770  26.920  0.00  0.00    +0.177 C 
ATOM     38  C   UNL     1       8.066  -4.307  26.246  0.00  0.00    +0.176 C 
ATOM     39  C   UNL     1       8.766  -3.282  25.357  0.00  0.00    +0.178 C 
ATOM     40  O   UNL     1       7.794  -2.736  24.473  0.00  0.00    -0.341 OA
BRANCH  36  41
ATOM     41  N   UNL     1       4.846  -2.119  26.666  0.00  0.00    -0.305 N 
ATOM     42  H   UNL     1       5.085  -1.680  27.550  0.00  0.00    +0.149 HD
ATOM     43  C   UNL     1       3.516  -2.271  26.363  0.00  0.00    +0.210 C 
ATOM     44  O   UNL     1       3.131  -2.988  25.443  0.00  0.00    -0.276 OA
ATOM     45  C   UNL     1       2.569  -1.509  27.256  0.00  0.00    +0.109 C 
ENDBRANCH  36  41
BRANCH  38  46
ATOM     46  O   UNL     1       9.033  -4.790  27.196  0.00  0.00    -0.387 OA
ATOM     47  H   UNL     1       8.926  -5.755  27.295  0.00  0.00    +0.210 HD
ENDBRANCH  38  46
BRANCH  39  48
ATOM     48  C   UNL     1       9.903  -3.918  24.536  0.00  0.00    +0.190 C 
BRANCH  48  49
ATOM     49  O   UNL     1      10.149  -5.262  24.919  0.00  0.00    -0.392 OA
ATOM     50  H   UNL     1      11.030  -5.519  24.579  0.00  0.00    +0.210 HD
ENDBRANCH  48  49
ENDBRANCH  39  48
BRANCH  37  51
ATOM     51  O   UNL     1       5.860  -4.833  27.228  0.00  0.00    -0.341 OA
BRANCH  51  52
ATOM     52  C   UNL     1       5.582  -5.825  26.249  0.00  0.00    +0.283 C 
ATOM     53  C   UNL     1       4.346  -6.547  26.813  0.00  0.00    +0.201 C 
ATOM     54  C   UNL     1       3.731  -7.474  25.773  0.00  0.00    +0.179 C 
ATOM     55  C   UNL     1       3.592  -6.816  24.395  0.00  0.00    +0.185 C 
ATOM     56  C   UNL     1       4.929  -6.198  23.998  0.00  0.00    +0.260 C 
ATOM     57  O   UNL     1       5.287  -5.232  24.994  0.00  0.00    -0.332 OA
BRANCH  56  58
ATOM     58  C   UNL     1       4.839  -5.511  22.637  0.00  0.00    +0.337 C 
ATOM     59  O   UNL     1       4.484  -4.353  22.483  0.00  0.00    -0.248 OA
BRANCH  58  60
ATOM     60  O   UNL     1       5.127  -6.333  21.600  0.00  0.00    -0.479 OA
ATOM     61  H   UNL     1       6.011  -6.745  21.742  0.00  0.00    +0.295 HD
ENDBRANCH  58  60
ENDBRANCH  56  58
BRANCH  55  62
ATOM     62  O   UNL     1       3.104  -7.833  23.516  0.00  0.00    -0.386 OA
ATOM     63  H   UNL     1       3.584  -8.667  23.666  0.00  0.00    +0.210 HD
ENDBRANCH  55  62
BRANCH  54  64
ATOM     64  O   UNL     1       2.434  -7.899  26.210  0.00  0.00    -0.386 OA
ATOM     65  H   UNL     1       2.164  -8.609  25.595  0.00  0.00    +0.210 HD
ENDBRANCH  54  64
BRANCH  53  66
ATOM     66  O   UNL     1       4.685  -7.311  27.985  0.00  0.00    -0.384 OA
ATOM     67  H   UNL     1       4.216  -8.161  27.954  0.00  0.00    +0.210 HD
ENDBRANCH  53  66
ENDBRANCH  51  52
ENDBRANCH  37  51
ENDBRANCH   1  35
TORSDOF 24
ENDMDL
MODEL 7
REMARK VINA RESULT:      -6.6      2.492      9.679
REMARK  Name = 
REMARK  26 active torsions:
REMARK  status: ('A' for Active; 'I' for Inactive)
REMARK    1  A    between atoms: C_1  and  C_2
REMARK    2  A    between atoms: N_4  and  C_5
REMARK    3  A    between atoms: C_7  and  O_9
REMARK    4  A    between atoms: C_11  and  C_13
REMARK    5  A    between atoms: C_13  and  O_14
REMARK    6  A    between atoms: C_15  and  O_17
REMARK    7  A    between atoms: C_18  and  O_19
REMARK    8  A    between atoms: O_19  and  C_20
REMARK    9  A    between atoms: C_23  and  C_69
REMARK   10  A    between atoms: C_25  and  O_27
REMARK   11  A    between atoms: O_27  and  C_28
REMARK   12  A    between atoms: C_31  and  C_33
REMARK   13  A    between atoms: C_33  and  O_34
REMARK   14  A    between atoms: C_35  and  O_37
REMARK   15  A    between atoms: C_38  and  O_39
REMARK   16  A    between atoms: O_39  and  C_40
REMARK   17  A    between atoms: C_43  and  C_54
REMARK   18  A    between atoms: C_45  and  O_47
REMARK   19  A    between atoms: C_48  and  O_50
REMARK   20  A    between atoms: C_51  and  O_53
REMARK   21  A    between atoms: C_54  and  O_55
REMARK   22  A    between atoms: C_57  and  N_59
REMARK   23  A    between atoms: C_60  and  C_61
REMARK   24  A    between atoms: C_63  and  O_65
REMARK   25  A    between atoms: C_66  and  O_68
REMARK   26  A    between atoms: C_69  and  O_70
REMARK                            x       y       z     vdW  Elec       q    Type
REMARK                         _______ _______ _______ _____ _____    ______ ____
ROOT
ATOM      1  O   UNL     1       4.366   0.306  27.648  0.00  0.00    -0.340 OA
ENDROOT
BRANCH   1   5
ATOM      2  C   UNL     1       3.105  -3.440  26.162  0.00  0.00    +0.283 C 
ATOM      3  C   UNL     1       4.424  -2.892  25.557  0.00  0.00    +0.201 C 
ATOM      4  C   UNL     1       4.915  -1.710  26.376  0.00  0.00    +0.180 C 
ATOM      5  C   UNL     1       3.833  -0.685  26.735  0.00  0.00    +0.192 C 
ATOM      6  C   UNL     1       2.545  -1.391  27.209  0.00  0.00    +0.260 C 
ATOM      7  O   UNL     1       2.155  -2.377  26.258  0.00  0.00    -0.331 OA
BRANCH   6   8
ATOM      8  C   UNL     1       1.458  -0.329  27.406  0.00  0.00    +0.337 C 
ATOM      9  O   UNL     1       0.615  -0.325  28.303  0.00  0.00    -0.248 OA
BRANCH   8  10
ATOM     10  O   UNL     1       1.498   0.657  26.472  0.00  0.00    -0.479 OA
ATOM     11  H   UNL     1       2.382   0.744  26.054  0.00  0.00    +0.295 HD
ENDBRANCH   8  10
ENDBRANCH   6   8
BRANCH   4  12
ATOM     12  O   UNL     1       6.011  -1.084  25.695  0.00  0.00    -0.386 OA
ATOM     13  H   UNL     1       5.972  -0.126  25.874  0.00  0.00    +0.210 HD
ENDBRANCH   4  12
BRANCH   3  14
ATOM     14  O   UNL     1       5.467  -3.888  25.599  0.00  0.00    -0.384 OA
ATOM     15  H   UNL     1       6.216  -3.555  26.126  0.00  0.00    +0.210 HD
ENDBRANCH   3  14
BRANCH   2  16
ATOM     16  O   UNL     1       2.475  -4.472  25.392  0.00  0.00    -0.341 OA
BRANCH  16  18
ATOM     17  C   UNL     1       3.220  -5.364  23.258  0.00  0.00    +0.160 C 
ATOM     18  C   UNL     1       3.375  -5.405  24.789  0.00  0.00    +0.177 C 
ATOM     19  C   UNL     1       3.226  -6.857  25.301  0.00  0.00    +0.176 C 
ATOM     20  C   UNL     1       1.924  -7.516  24.809  0.00  0.00    +0.178 C 
ATOM     21  O   UNL     1       1.759  -7.360  23.395  0.00  0.00    -0.341 OA
ATOM     22  C   UNL     1       1.872  -6.028  22.881  0.00  0.00    +0.270 C 
BRANCH  17  25
ATOM     23  C   UNL     1       6.625  -6.309  21.851  0.00  0.00    +0.109 C 
ATOM     24  C   UNL     1       5.592  -5.358  22.398  0.00  0.00    +0.210 C 
ATOM     25  N   UNL     1       4.417  -5.994  22.677  0.00  0.00    -0.305 N 
ATOM     26  H   UNL     1       4.429  -7.009  22.657  0.00  0.00    +0.149 HD
ATOM     27  O   UNL     1       5.793  -4.165  22.579  0.00  0.00    -0.276 OA
ENDBRANCH  17  25
BRANCH  22  28
ATOM     28  O   UNL     1       0.751  -5.243  23.278  0.00  0.00    -0.365 OA
ATOM     29  H   UNL     1       1.013  -4.302  23.253  0.00  0.00    +0.213 HD
ENDBRANCH  22  28
BRANCH  19  30
ATOM     30  O   UNL     1       4.351  -7.634  24.830  0.00  0.00    -0.387 OA
ATOM     31  H   UNL     1       4.657  -8.167  25.590  0.00  0.00    +0.210 HD
ENDBRANCH  19  30
BRANCH  20  32
ATOM     32  C   UNL     1       0.674  -7.139  25.619  0.00  0.00    +0.190 C 
BRANCH  32  33
ATOM     33  O   UNL     1       1.042  -6.654  26.912  0.00  0.00    -0.392 OA
ATOM     34  H   UNL     1       1.964  -6.343  26.852  0.00  0.00    +0.210 HD
ENDBRANCH  32  33
ENDBRANCH  20  32
ENDBRANCH  16  18
ENDBRANCH   2  16
ENDBRANCH   1   5
BRANCH   1  35
ATOM     35  C   UNL     1       4.797   1.524  27.043  0.00  0.00    +0.274 C 
ATOM     36  C   UNL     1       6.298   1.499  26.744  0.00  0.00    +0.160 C 
ATOM     37  C   UNL     1       6.696   2.806  25.994  0.00  0.00    +0.177 C 
ATOM     38  C   UNL     1       5.651   3.233  24.918  0.00  0.00    +0.176 C 
ATOM     39  C   UNL     1       4.202   3.007  25.344  0.00  0.00    +0.178 C 
ATOM     40  O   UNL     1       4.091   1.669  25.816  0.00  0.00    -0.341 OA
BRANCH  36  41
ATOM     41  N   UNL     1       7.120   1.219  27.939  0.00  0.00    -0.305 N 
ATOM     42  H   UNL     1       7.517   0.287  28.007  0.00  0.00    +0.149 HD
ATOM     43  C   UNL     1       7.103   1.996  29.070  0.00  0.00    +0.210 C 
ATOM     44  O   UNL     1       6.444   3.029  29.146  0.00  0.00    -0.276 OA
ATOM     45  C   UNL     1       7.937   1.473  30.213  0.00  0.00    +0.109 C 
ENDBRANCH  36  41
BRANCH  38  46
ATOM     46  O   UNL     1       5.779   4.611  24.526  0.00  0.00    -0.387 OA
ATOM     47  H   UNL     1       5.200   5.157  25.090  0.00  0.00    +0.210 HD
ENDBRANCH  38  46
BRANCH  39  48
ATOM     48  C   UNL     1       3.222   3.220  24.176  0.00  0.00    +0.190 C 
BRANCH  48  49
ATOM     49  O   UNL     1       3.743   2.733  22.949  0.00  0.00    -0.392 OA
ATOM     50  H   UNL     1       3.657   1.758  22.947  0.00  0.00    +0.210 HD
ENDBRANCH  48  49
ENDBRANCH  39  48
BRANCH  37  51
ATOM     51  O   UNL     1       7.952   2.470  25.398  0.00  0.00    -0.341 OA
BRANCH  51  52
ATOM     52  C   UNL     1       7.981   1.681  24.217  0.00  0.00    +0.283 C 
ATOM     53  C   UNL     1       8.955   2.443  23.301  0.00  0.00    +0.201 C 
ATOM     54  C   UNL     1       9.326   1.610  22.083  0.00  0.00    +0.179 C 
ATOM     55  C   UNL     1       9.684   0.161  22.436  0.00  0.00    +0.185 C 
ATOM     56  C   UNL     1       8.579  -0.428  23.308  0.00  0.00    +0.260 C 
ATOM     57  O   UNL     1       8.466   0.375  24.488  0.00  0.00    -0.332 OA
BRANCH  56  58
ATOM     58  C   UNL     1       8.896  -1.869  23.705  0.00  0.00    +0.337 C 
ATOM     59  O   UNL     1      10.011  -2.361  23.639  0.00  0.00    -0.248 OA
BRANCH  58  60
ATOM     60  O   UNL     1       7.802  -2.577  24.076  0.00  0.00    -0.479 OA
ATOM     61  H   UNL     1       7.170  -1.984  24.544  0.00  0.00    +0.295 HD
ENDBRANCH  58  60
ENDBRANCH  56  58
BRANCH  55  62
ATOM     62  O   UNL     1       9.904  -0.509  21.193  0.00  0.00    -0.386 OA
ATOM     63  H   UNL     1       9.552   0.022  20.456  0.00  0.00    +0.210 HD
ENDBRANCH  55  62
BRANCH  54  64
ATOM     64  O   UNL     1      10.444   2.205  21.412  0.00  0.00    -0.386 OA
ATOM     65  H   UNL     1      10.721   2.958  21.969  0.00  0.00    +0.210 HD
ENDBRANCH  54  64
BRANCH  53  66
ATOM     66  O   UNL     1       8.384   3.689  22.864  0.00  0.00    -0.384 OA
ATOM     67  H   UNL     1       8.960   4.081  22.188  0.00  0.00    +0.210 HD
ENDBRANCH  53  66
ENDBRANCH  51  52
ENDBRANCH  37  51
ENDBRANCH   1  35
TORSDOF 24
ENDMDL
MODEL 8
REMARK VINA RESULT:      -6.6      2.266      9.621
REMARK  Name = 
REMARK  26 active torsions:
REMARK  status: ('A' for Active; 'I' for Inactive)
REMARK    1  A    between atoms: C_1  and  C_2
REMARK    2  A    between atoms: N_4  and  C_5
REMARK    3  A    between atoms: C_7  and  O_9
REMARK    4  A    between atoms: C_11  and  C_13
REMARK    5  A    between atoms: C_13  and  O_14
REMARK    6  A    between atoms: C_15  and  O_17
REMARK    7  A    between atoms: C_18  and  O_19
REMARK    8  A    between atoms: O_19  and  C_20
REMARK    9  A    between atoms: C_23  and  C_69
REMARK   10  A    between atoms: C_25  and  O_27
REMARK   11  A    between atoms: O_27  and  C_28
REMARK   12  A    between atoms: C_31  and  C_33
REMARK   13  A    between atoms: C_33  and  O_34
REMARK   14  A    between atoms: C_35  and  O_37
REMARK   15  A    between atoms: C_38  and  O_39
REMARK   16  A    between atoms: O_39  and  C_40
REMARK   17  A    between atoms: C_43  and  C_54
REMARK   18  A    between atoms: C_45  and  O_47
REMARK   19  A    between atoms: C_48  and  O_50
REMARK   20  A    between atoms: C_51  and  O_53
REMARK   21  A    between atoms: C_54  and  O_55
REMARK   22  A    between atoms: C_57  and  N_59
REMARK   23  A    between atoms: C_60  and  C_61
REMARK   24  A    between atoms: C_63  and  O_65
REMARK   25  A    between atoms: C_66  and  O_68
REMARK   26  A    between atoms: C_69  and  O_70
REMARK                            x       y       z     vdW  Elec       q    Type
REMARK                         _______ _______ _______ _____ _____    ______ ____
ROOT
ATOM      1  O   UNL     1      10.113   1.224  24.858  0.00  0.00    -0.340 OA
ENDROOT
BRANCH   1   5
ATOM      2  C   UNL     1       8.959  -2.648  23.632  0.00  0.00    +0.283 C 
ATOM      3  C   UNL     1       9.033  -1.586  22.505  0.00  0.00    +0.201 C 
ATOM      4  C   UNL     1       9.736  -0.340  23.015  0.00  0.00    +0.180 C 
ATOM      5  C   UNL     1       9.272   0.138  24.395  0.00  0.00    +0.192 C 
ATOM      6  C   UNL     1       9.136  -1.051  25.371  0.00  0.00    +0.260 C 
ATOM      7  O   UNL     1       8.337  -2.072  24.782  0.00  0.00    -0.331 OA
BRANCH   6   8
ATOM      8  C   UNL     1       8.528  -0.535  26.678  0.00  0.00    +0.337 C 
ATOM      9  O   UNL     1       7.343  -0.250  26.854  0.00  0.00    -0.248 OA
BRANCH   8  10
ATOM     10  O   UNL     1       9.439  -0.410  27.679  0.00  0.00    -0.479 OA
ATOM     11  H   UNL     1      10.163   0.212  27.453  0.00  0.00    +0.295 HD
ENDBRANCH   8  10
ENDBRANCH   6   8
BRANCH   4  12
ATOM     12  O   UNL     1       9.615   0.706  22.042  0.00  0.00    -0.386 OA
ATOM     13  H   UNL     1       9.730   1.560  22.497  0.00  0.00    +0.210 HD
ENDBRANCH   4  12
BRANCH   3  14
ATOM     14  O   UNL     1       9.804  -2.070  21.386  0.00  0.00    -0.384 OA
ATOM     15  H   UNL     1       9.893  -3.039  21.444  0.00  0.00    +0.210 HD
ENDBRANCH   3  14
BRANCH   2  16
ATOM     16  O   UNL     1       8.195  -3.817  23.307  0.00  0.00    -0.341 OA
BRANCH  16  18
ATOM     17  C   UNL     1       6.635  -5.473  24.159  0.00  0.00    +0.160 C 
ATOM     18  C   UNL     1       6.994  -3.979  24.065  0.00  0.00    +0.177 C 
ATOM     19  C   UNL     1       5.787  -3.174  23.528  0.00  0.00    +0.176 C 
ATOM     20  C   UNL     1       5.247  -3.749  22.206  0.00  0.00    +0.178 C 
ATOM     21  O   UNL     1       5.030  -5.161  22.297  0.00  0.00    -0.341 OA
ATOM     22  C   UNL     1       6.129  -5.948  22.774  0.00  0.00    +0.270 C 
BRANCH  17  25
ATOM     23  C   UNL     1       4.779  -5.928  27.448  0.00  0.00    +0.109 C 
ATOM     24  C   UNL     1       6.001  -5.873  26.569  0.00  0.00    +0.210 C 
ATOM     25  N   UNL     1       5.677  -5.627  25.266  0.00  0.00    -0.305 N 
ATOM     26  H   UNL     1       4.719  -5.344  25.077  0.00  0.00    +0.149 HD
ATOM     27  O   UNL     1       7.143  -6.020  26.980  0.00  0.00    -0.276 OA
ENDBRANCH  17  25
BRANCH  22  28
ATOM     28  O   UNL     1       7.170  -5.990  21.802  0.00  0.00    -0.365 OA
ATOM     29  H   UNL     1       8.024  -5.872  22.264  0.00  0.00    +0.213 HD
ENDBRANCH  22  28
BRANCH  19  30
ATOM     30  O   UNL     1       4.732  -3.202  24.516  0.00  0.00    -0.387 OA
ATOM     31  H   UNL     1       5.110  -3.625  25.313  0.00  0.00    +0.210 HD
ENDBRANCH  19  30
BRANCH  20  32
ATOM     32  C   UNL     1       6.038  -3.328  20.958  0.00  0.00    +0.190 C 
BRANCH  32  33
ATOM     33  O   UNL     1       5.676  -4.140  19.838  0.00  0.00    -0.392 OA
ATOM     34  H   UNL     1       5.277  -4.957  20.191  0.00  0.00    +0.210 HD
ENDBRANCH  32  33
ENDBRANCH  20  32
ENDBRANCH  16  18
ENDBRANCH   2  16
ENDBRANCH   1   5
BRANCH   1  35
ATOM     35  C   UNL     1       9.890   2.482  24.224  0.00  0.00    +0.274 C 
ATOM     36  C   UNL     1       8.850   3.312  24.981  0.00  0.00    +0.160 C 
ATOM     37  C   UNL     1       8.718   4.712  24.308  0.00  0.00    +0.177 C 
ATOM     38  C   UNL     1      10.092   5.311  23.878  0.00  0.00    +0.176 C 
ATOM     39  C   UNL     1      11.063   4.279  23.311  0.00  0.00    +0.178 C 
ATOM     40  O   UNL     1      11.125   3.191  24.225  0.00  0.00    -0.341 OA
BRANCH  36  41
ATOM     41  N   UNL     1       7.564   2.606  25.153  0.00  0.00    -0.305 N 
ATOM     42  H   UNL     1       7.390   2.197  26.066  0.00  0.00    +0.149 HD
ATOM     43  C   UNL     1       6.774   2.202  24.106  0.00  0.00    +0.210 C 
ATOM     44  O   UNL     1       7.052   2.458  22.938  0.00  0.00    -0.276 OA
ATOM     45  C   UNL     1       5.556   1.405  24.499  0.00  0.00    +0.109 C 
ENDBRANCH  36  41
BRANCH  38  46
ATOM     46  O   UNL     1       9.966   6.367  22.909  0.00  0.00    -0.387 OA
ATOM     47  H   UNL     1       9.126   6.257  22.426  0.00  0.00    +0.210 HD
ENDBRANCH  38  46
BRANCH  39  48
ATOM     48  C   UNL     1      12.474   4.864  23.119  0.00  0.00    +0.190 C 
BRANCH  48  49
ATOM     49  O   UNL     1      12.785   5.837  24.105  0.00  0.00    -0.392 OA
ATOM     50  H   UNL     1      13.006   5.368  24.935  0.00  0.00    +0.210 HD
ENDBRANCH  48  49
ENDBRANCH  39  48
BRANCH  37  51
ATOM     51  O   UNL     1       8.097   5.504  25.324  0.00  0.00    -0.341 OA
BRANCH  51  52
ATOM     52  C   UNL     1       6.730   5.869  25.194  0.00  0.00    +0.283 C 
ATOM     53  C   UNL     1       6.531   5.974  23.672  0.00  0.00    +0.201 C 
ATOM     54  C   UNL     1       5.055   6.093  23.320  0.00  0.00    +0.179 C 
ATOM     55  C   UNL     1       4.177   5.087  24.075  0.00  0.00    +0.185 C 
ATOM     56  C   UNL     1       4.493   5.167  25.565  0.00  0.00    +0.260 C 
ATOM     57  O   UNL     1       5.883   4.870  25.743  0.00  0.00    -0.332 OA
BRANCH  56  58
ATOM     58  C   UNL     1       3.657   4.169  26.363  0.00  0.00    +0.337 C 
ATOM     59  O   UNL     1       2.435   4.156  26.365  0.00  0.00    -0.248 OA
BRANCH  58  60
ATOM     60  O   UNL     1       4.400   3.335  27.129  0.00  0.00    -0.479 OA
ATOM     61  H   UNL     1       3.883   2.520  27.324  0.00  0.00    +0.295 HD
ENDBRANCH  58  60
ENDBRANCH  56  58
BRANCH  55  62
ATOM     62  O   UNL     1       2.826   5.392  23.720  0.00  0.00    -0.386 OA
ATOM     63  H   UNL     1       2.266   5.418  24.516  0.00  0.00    +0.210 HD
ENDBRANCH  55  62
BRANCH  54  64
ATOM     64  O   UNL     1       4.874   5.891  21.913  0.00  0.00    -0.386 OA
ATOM     65  H   UNL     1       5.297   5.034  21.709  0.00  0.00    +0.210 HD
ENDBRANCH  54  64
BRANCH  53  66
ATOM     66  O   UNL     1       7.237   7.107  23.136  0.00  0.00    -0.384 OA
ATOM     67  H   UNL     1       7.589   7.636  23.871  0.00  0.00    +0.210 HD
ENDBRANCH  53  66
ENDBRANCH  51  52
ENDBRANCH  37  51
ENDBRANCH   1  35
TORSDOF 24
ENDMDL
MODEL 9
REMARK VINA RESULT:      -6.3      1.873      4.020
REMARK  Name = 
REMARK  26 active torsions:
REMARK  status: ('A' for Active; 'I' for Inactive)
REMARK    1  A    between atoms: C_1  and  C_2
REMARK    2  A    between atoms: N_4  and  C_5
REMARK    3  A    between atoms: C_7  and  O_9
REMARK    4  A    between atoms: C_11  and  C_13
REMARK    5  A    between atoms: C_13  and  O_14
REMARK    6  A    between atoms: C_15  and  O_17
REMARK    7  A    between atoms: C_18  and  O_19
REMARK    8  A    between atoms: O_19  and  C_20
REMARK    9  A    between atoms: C_23  and  C_69
REMARK   10  A    between atoms: C_25  and  O_27
REMARK   11  A    between atoms: O_27  and  C_28
REMARK   12  A    between atoms: C_31  and  C_33
REMARK   13  A    between atoms: C_33  and  O_34
REMARK   14  A    between atoms: C_35  and  O_37
REMARK   15  A    between atoms: C_38  and  O_39
REMARK   16  A    between atoms: O_39  and  C_40
REMARK   17  A    between atoms: C_43  and  C_54
REMARK   18  A    between atoms: C_45  and  O_47
REMARK   19  A    between atoms: C_48  and  O_50
REMARK   20  A    between atoms: C_51  and  O_53
REMARK   21  A    between atoms: C_54  and  O_55
REMARK   22  A    between atoms: C_57  and  N_59
REMARK   23  A    between atoms: C_60  and  C_61
REMARK   24  A    between atoms: C_63  and  O_65
REMARK   25  A    between atoms: C_66  and  O_68
REMARK   26  A    between atoms: C_69  and  O_70
REMARK                            x       y       z     vdW  Elec       q    Type
REMARK                         _______ _______ _______ _____ _____    ______ ____
ROOT
ATOM      1  O   UNL     1       7.746  -3.328  25.840  0.00  0.00    -0.340 OA
ENDROOT
BRANCH   1   5
ATOM      2  C   UNL     1       8.636   0.754  25.230  0.00  0.00    +0.283 C 
ATOM      3  C   UNL     1       7.177   0.447  25.658  0.00  0.00    +0.201 C 
ATOM      4  C   UNL     1       7.071  -0.994  26.128  0.00  0.00    +0.180 C 
ATOM      5  C   UNL     1       7.763  -2.017  25.221  0.00  0.00    +0.192 C 
ATOM      6  C   UNL     1       9.156  -1.513  24.788  0.00  0.00    +0.260 C 
ATOM      7  O   UNL     1       9.049  -0.198  24.249  0.00  0.00    -0.331 OA
BRANCH   6   8
ATOM      8  C   UNL     1       9.731  -2.501  23.768  0.00  0.00    +0.337 C 
ATOM      9  O   UNL     1       9.889  -2.280  22.567  0.00  0.00    -0.248 OA
BRANCH   8  10
ATOM     10  O   UNL     1      10.071  -3.697  24.316  0.00  0.00    -0.479 OA
ATOM     11  H   UNL     1      10.123  -3.661  25.295  0.00  0.00    +0.295 HD
ENDBRANCH   8  10
ENDBRANCH   6   8
BRANCH   4  12
ATOM     12  O   UNL     1       5.690  -1.329  26.321  0.00  0.00    -0.386 OA
ATOM     13  H   UNL     1       5.322  -1.608  25.463  0.00  0.00    +0.210 HD
ENDBRANCH   4  12
BRANCH   3  14
ATOM     14  O   UNL     1       6.776   1.277  26.768  0.00  0.00    -0.384 OA
ATOM     15  H   UNL     1       6.975   2.210  26.567  0.00  0.00    +0.210 HD
ENDBRANCH   3  14
BRANCH   2  16
ATOM     16  O   UNL     1       8.828   2.046  24.639  0.00  0.00    -0.341 OA
BRANCH  16  18
ATOM     17  C   UNL     1       6.843   3.056  23.668  0.00  0.00    +0.160 C 
ATOM     18  C   UNL     1       7.777   2.983  24.889  0.00  0.00    +0.177 C 
ATOM     19  C   UNL     1       8.263   4.400  25.273  0.00  0.00    +0.176 C 
ATOM     20  C   UNL     1       8.889   5.143  24.078  0.00  0.00    +0.178 C 
ATOM     21  O   UNL     1       8.040   5.094  22.926  0.00  0.00    -0.341 OA
ATOM     22  C   UNL     1       7.581   3.798  22.525  0.00  0.00    +0.270 C 
BRANCH  17  25
ATOM     23  C   UNL     1       3.393   3.953  24.993  0.00  0.00    +0.109 C 
ATOM     24  C   UNL     1       4.492   3.008  24.585  0.00  0.00    +0.210 C 
ATOM     25  N   UNL     1       5.584   3.677  24.112  0.00  0.00    -0.305 N 
ATOM     26  H   UNL     1       5.601   4.683  24.251  0.00  0.00    +0.149 HD
ATOM     27  O   UNL     1       4.414   1.791  24.679  0.00  0.00    -0.276 OA
ENDBRANCH  17  25
BRANCH  22  28
ATOM     28  O   UNL     1       8.655   3.033  21.987  0.00  0.00    -0.365 OA
ATOM     29  H   UNL     1       9.428   3.135  22.576  0.00  0.00    +0.213 HD
ENDBRANCH  22  28
BRANCH  19  30
ATOM     30  O   UNL     1       7.136   5.164  25.759  0.00  0.00    -0.387 OA
ATOM     31  H   UNL     1       7.118   5.992  25.241  0.00  0.00    +0.210 HD
ENDBRANCH  19  30
BRANCH  20  32
ATOM     32  C   UNL     1      10.348   4.761  23.783  0.00  0.00    +0.190 C 
BRANCH  32  33
ATOM     33  O   UNL     1      10.973   5.758  22.972  0.00  0.00    -0.392 OA
ATOM     34  H   UNL     1      10.519   5.755  22.109  0.00  0.00    +0.210 HD
ENDBRANCH  32  33
ENDBRANCH  20  32
ENDBRANCH  16  18
ENDBRANCH   2  16
ENDBRANCH   1   5
BRANCH   1  35
ATOM     35  C   UNL     1       6.973  -4.315  25.158  0.00  0.00    +0.274 C 
ATOM     36  C   UNL     1       5.494  -4.231  25.545  0.00  0.00    +0.160 C 
ATOM     37  C   UNL     1       4.681  -5.258  24.700  0.00  0.00    +0.177 C 
ATOM     38  C   UNL     1       5.138  -5.317  23.211  0.00  0.00    +0.176 C 
ATOM     39  C   UNL     1       6.649  -5.201  23.025  0.00  0.00    +0.178 C 
ATOM     40  O   UNL     1       7.092  -4.067  23.762  0.00  0.00    -0.341 OA
BRANCH  36  41
ATOM     41  N   UNL     1       5.271  -4.343  27.001  0.00  0.00    -0.305 N 
ATOM     42  H   UNL     1       5.006  -3.491  27.485  0.00  0.00    +0.149 HD
ATOM     43  C   UNL     1       5.707  -5.403  27.756  0.00  0.00    +0.210 C 
ATOM     44  O   UNL     1       6.262  -6.378  27.257  0.00  0.00    -0.276 OA
ATOM     45  C   UNL     1       5.468  -5.268  29.239  0.00  0.00    +0.109 C 
ENDBRANCH  36  41
BRANCH  38  46
ATOM     46  O   UNL     1       4.709  -6.514  22.538  0.00  0.00    -0.387 OA
ATOM     47  H   UNL     1       4.713  -7.255  23.173  0.00  0.00    +0.210 HD
ENDBRANCH  38  46
BRANCH  39  48
ATOM     48  C   UNL     1       7.034  -5.030  21.545  0.00  0.00    +0.190 C 
BRANCH  48  49
ATOM     49  O   UNL     1       5.909  -4.725  20.734  0.00  0.00    -0.392 OA
ATOM     50  H   UNL     1       6.229  -4.279  19.924  0.00  0.00    +0.210 HD
ENDBRANCH  48  49
ENDBRANCH  39  48
BRANCH  37  51
ATOM     51  O   UNL     1       3.337  -4.783  24.816  0.00  0.00    -0.341 OA
BRANCH  51  52
ATOM     52  C   UNL     1       2.355  -5.597  25.443  0.00  0.00    +0.283 C 
ATOM     53  C   UNL     1       2.389  -6.897  24.619  0.00  0.00    +0.201 C 
ATOM     54  C   UNL     1       1.593  -7.999  25.304  0.00  0.00    +0.179 C 
ATOM     55  C   UNL     1       1.894  -8.110  26.803  0.00  0.00    +0.185 C 
ATOM     56  C   UNL     1       1.766  -6.731  27.442  0.00  0.00    +0.260 C 
ATOM     57  O   UNL     1       2.695  -5.853  26.797  0.00  0.00    -0.332 OA
BRANCH  56  58
ATOM     58  C   UNL     1       2.075  -6.783  28.938  0.00  0.00    +0.337 C 
ATOM     59  O   UNL     1       1.712  -5.932  29.735  0.00  0.00    -0.248 OA
BRANCH  58  60
ATOM     60  O   UNL     1       2.854  -7.833  29.290  0.00  0.00    -0.479 OA
ATOM     61  H   UNL     1       2.756  -8.005  30.255  0.00  0.00    +0.295 HD
ENDBRANCH  58  60
ENDBRANCH  56  58
BRANCH  55  62
ATOM     62  O   UNL     1       1.004  -9.105  27.315  0.00  0.00    -0.386 OA
ATOM     63  H   UNL     1       1.499  -9.910  27.553  0.00  0.00    +0.210 HD
ENDBRANCH  55  62
BRANCH  54  64
ATOM     64  O   UNL     1       1.881  -9.259  24.686  0.00  0.00    -0.386 OA
ATOM     65  H   UNL     1       2.852  -9.363  24.728  0.00  0.00    +0.210 HD
ENDBRANCH  54  64
BRANCH  53  66
ATOM     66  O   UNL     1       1.861  -6.684  23.298  0.00  0.00    -0.384 OA
ATOM     67  H   UNL     1       0.950  -6.355  23.371  0.00  0.00    +0.210 HD
ENDBRANCH  53  66
ENDBRANCH  51  52
ENDBRANCH  37  51
ENDBRANCH   1  35
TORSDOF 24
ENDMDL
