MODEL 1
REMARK VINA RESULT:      -3.6      0.000      0.000
REMARK  Name = 
REMARK  2 active torsions:
REMARK  status: ('A' for Active; 'I' for Inactive)
REMARK    1  A    between atoms: O_1  and  C_2
REMARK    2  A    between atoms: C_8  and  O_10
REMARK                            x       y       z     vdW  Elec       q    Type
REMARK                         _______ _______ _______ _____ _____    ______ ____
ROOT
ATOM      1  C   UNL     1       9.724   0.653  21.660  0.00  0.00    +0.154 C 
ATOM      2  C   UNL     1       9.313  -0.833  21.625  0.00  0.00    +0.154 C 
ATOM      3  C   UNL     1       8.129  -1.199  22.539  0.00  0.00    +0.115 C 
ATOM      4  S   UNL     1       8.510  -0.930  24.299  0.00  0.00    -0.090 S 
ATOM      5  S   UNL     1       8.869   1.086  24.284  0.00  0.00    -0.090 S 
ATOM      6  C   UNL     1      10.191   1.164  23.035  0.00  0.00    +0.115 C 
ENDROOT
BRANCH   1   7
ATOM      7  O   UNL     1       8.654   1.451  21.135  0.00  0.00    -0.388 OA
ATOM      8  H   UNL     1       8.116   1.763  21.884  0.00  0.00    +0.210 HD
ENDBRANCH   1   7
BRANCH   2   9
ATOM      9  O   UNL     1      10.462  -1.646  21.896  0.00  0.00    -0.388 OA
ATOM     10  H   UNL     1      10.745  -2.055  21.058  0.00  0.00    +0.210 HD
ENDBRANCH   2   9
TORSDOF 2
ENDMDL
MODEL 2
REMARK VINA RESULT:      -3.6      2.237      3.068
REMARK  Name = 
REMARK  2 active torsions:
REMARK  status: ('A' for Active; 'I' for Inactive)
REMARK    1  A    between atoms: O_1  and  C_2
REMARK    2  A    between atoms: C_8  and  O_10
REMARK                            x       y       z     vdW  Elec       q    Type
REMARK                         _______ _______ _______ _____ _____    ______ ____
ROOT
ATOM      1  C   UNL     1       9.308   2.120  22.692  0.00  0.00    +0.154 C 
ATOM      2  C   UNL     1       9.989   1.985  24.068  0.00  0.00    +0.154 C 
ATOM      3  C   UNL     1      10.880   0.740  24.231  0.00  0.00    +0.115 C 
ATOM      4  S   UNL     1       9.930  -0.807  24.101  0.00  0.00    -0.090 S 
ATOM      5  S   UNL     1       9.209  -0.627  22.193  0.00  0.00    -0.090 S 
ATOM      6  C   UNL     1       8.349   0.971  22.328  0.00  0.00    +0.115 C 
ENDROOT
BRANCH   1   7
ATOM      7  O   UNL     1      10.312   2.311  21.685  0.00  0.00    -0.388 OA
ATOM      8  H   UNL     1      10.038   3.059  21.126  0.00  0.00    +0.210 HD
ENDBRANCH   1   7
BRANCH   2   9
ATOM      9  O   UNL     1       8.993   2.061  25.097  0.00  0.00    -0.388 OA
ATOM     10  H   UNL     1       8.133   1.832  24.700  0.00  0.00    +0.210 HD
ENDBRANCH   2   9
TORSDOF 2
ENDMDL
MODEL 3
REMARK VINA RESULT:      -3.6      0.016      2.743
REMARK  Name = 
REMARK  2 active torsions:
REMARK  status: ('A' for Active; 'I' for Inactive)
REMARK    1  A    between atoms: O_1  and  C_2
REMARK    2  A    between atoms: C_8  and  O_10
REMARK                            x       y       z     vdW  Elec       q    Type
REMARK                         _______ _______ _______ _____ _____    ______ ____
ROOT
ATOM      1  C   UNL     1       9.306  -0.816  21.619  0.00  0.00    +0.154 C 
ATOM      2  C   UNL     1       9.719   0.669  21.659  0.00  0.00    +0.154 C 
ATOM      3  C   UNL     1      10.193   1.173  23.034  0.00  0.00    +0.115 C 
ATOM      4  S   UNL     1       8.878   1.090  24.289  0.00  0.00    -0.090 S 
ATOM      5  S   UNL     1       8.516  -0.926  24.297  0.00  0.00    -0.090 S 
ATOM      6  C   UNL     1       8.127  -1.186  22.538  0.00  0.00    +0.115 C 
ENDROOT
BRANCH   1   7
ATOM      7  O   UNL     1      10.456  -1.633  21.881  0.00  0.00    -0.388 OA
ATOM      8  H   UNL     1      11.191  -1.045  22.130  0.00  0.00    +0.210 HD
ENDBRANCH   1   7
BRANCH   2   9
ATOM      9  O   UNL     1       8.647   1.470  21.143  0.00  0.00    -0.388 OA
ATOM     10  H   UNL     1       8.794   1.587  20.187  0.00  0.00    +0.210 HD
ENDBRANCH   2   9
TORSDOF 2
ENDMDL
MODEL 4
REMARK VINA RESULT:      -3.6      2.231      2.870
REMARK  Name = 
REMARK  2 active torsions:
REMARK  status: ('A' for Active; 'I' for Inactive)
REMARK    1  A    between atoms: O_1  and  C_2
REMARK    2  A    between atoms: C_8  and  O_10
REMARK                            x       y       z     vdW  Elec       q    Type
REMARK                         _______ _______ _______ _____ _____    ______ ____
ROOT
ATOM      1  C   UNL     1       9.986   1.963  24.075  0.00  0.00    +0.154 C 
ATOM      2  C   UNL     1       9.299   2.105  22.702  0.00  0.00    +0.154 C 
ATOM      3  C   UNL     1       8.335   0.961  22.338  0.00  0.00    +0.115 C 
ATOM      4  S   UNL     1       9.189  -0.640  22.195  0.00  0.00    -0.090 S 
ATOM      5  S   UNL     1       9.917  -0.830  24.100  0.00  0.00    -0.090 S 
ATOM      6  C   UNL     1      10.873   0.713  24.230  0.00  0.00    +0.115 C 
ENDROOT
BRANCH   1   7
ATOM      7  O   UNL     1       8.994   2.039  25.108  0.00  0.00    -0.388 OA
ATOM      8  H   UNL     1       9.411   1.767  25.945  0.00  0.00    +0.210 HD
ENDBRANCH   1   7
BRANCH   2   9
ATOM      9  O   UNL     1      10.299   2.295  21.692  0.00  0.00    -0.388 OA
ATOM     10  H   UNL     1       9.969   1.901  20.864  0.00  0.00    +0.210 HD
ENDBRANCH   2   9
TORSDOF 2
ENDMDL
MODEL 5
REMARK VINA RESULT:      -3.5      1.879      2.381
REMARK  Name = 
REMARK  2 active torsions:
REMARK  status: ('A' for Active; 'I' for Inactive)
REMARK    1  A    between atoms: O_1  and  C_2
REMARK    2  A    between atoms: C_8  and  O_10
REMARK                            x       y       z     vdW  Elec       q    Type
REMARK                         _______ _______ _______ _____ _____    ______ ____
ROOT
ATOM      1  C   UNL     1       7.788   1.632  22.608  0.00  0.00    +0.154 C 
ATOM      2  C   UNL     1       8.794   1.224  21.514  0.00  0.00    +0.154 C 
ATOM      3  C   UNL     1       9.299  -0.227  21.606  0.00  0.00    +0.115 C 
ATOM      4  S   UNL     1      10.229  -0.537  23.140  0.00  0.00    -0.090 S 
ATOM      5  S   UNL     1       8.773  -0.144  24.526  0.00  0.00    -0.090 S 
ATOM      6  C   UNL     1       8.328   1.554  24.048  0.00  0.00    +0.115 C 
ENDROOT
BRANCH   1   7
ATOM      7  O   UNL     1       6.586   0.864  22.453  0.00  0.00    -0.388 OA
ATOM      8  H   UNL     1       6.836  -0.075  22.388  0.00  0.00    +0.210 HD
ENDBRANCH   1   7
BRANCH   2   9
ATOM      9  O   UNL     1       9.879   2.162  21.499  0.00  0.00    -0.388 OA
ATOM     10  H   UNL     1      10.584   1.796  20.935  0.00  0.00    +0.210 HD
ENDBRANCH   2   9
TORSDOF 2
ENDMDL
MODEL 6
REMARK VINA RESULT:      -3.5      1.880      2.636
REMARK  Name = 
REMARK  2 active torsions:
REMARK  status: ('A' for Active; 'I' for Inactive)
REMARK    1  A    between atoms: O_1  and  C_2
REMARK    2  A    between atoms: C_8  and  O_10
REMARK                            x       y       z     vdW  Elec       q    Type
REMARK                         _______ _______ _______ _____ _____    ______ ____
ROOT
ATOM      1  C   UNL     1       8.793   1.228  21.512  0.00  0.00    +0.154 C 
ATOM      2  C   UNL     1       7.788   1.633  22.608  0.00  0.00    +0.154 C 
ATOM      3  C   UNL     1       8.330   1.550  24.047  0.00  0.00    +0.115 C 
ATOM      4  S   UNL     1       8.773  -0.152  24.519  0.00  0.00    -0.090 S 
ATOM      5  S   UNL     1      10.227  -0.541  23.130  0.00  0.00    -0.090 S 
ATOM      6  C   UNL     1       9.297  -0.225  21.598  0.00  0.00    +0.115 C 
ENDROOT
BRANCH   1   7
ATOM      7  O   UNL     1       9.880   2.164  21.500  0.00  0.00    -0.388 OA
ATOM      8  H   UNL     1       9.617   2.936  22.032  0.00  0.00    +0.210 HD
ENDBRANCH   1   7
BRANCH   2   9
ATOM      9  O   UNL     1       6.585   0.867  22.451  0.00  0.00    -0.388 OA
ATOM     10  H   UNL     1       5.953   1.403  21.939  0.00  0.00    +0.210 HD
ENDBRANCH   2   9
TORSDOF 2
ENDMDL
MODEL 7
REMARK VINA RESULT:      -3.3      6.057      6.778
REMARK  Name = 
REMARK  2 active torsions:
REMARK  status: ('A' for Active; 'I' for Inactive)
REMARK    1  A    between atoms: O_1  and  C_2
REMARK    2  A    between atoms: C_8  and  O_10
REMARK                            x       y       z     vdW  Elec       q    Type
REMARK                         _______ _______ _______ _____ _____    ______ ____
ROOT
ATOM      1  C   UNL     1       5.623  -5.698  22.090  0.00  0.00    +0.154 C 
ATOM      2  C   UNL     1       4.671  -5.934  23.279  0.00  0.00    +0.154 C 
ATOM      3  C   UNL     1       4.887  -4.993  24.479  0.00  0.00    +0.115 C 
ATOM      4  S   UNL     1       6.530  -5.207  25.234  0.00  0.00    -0.090 S 
ATOM      5  S   UNL     1       7.722  -4.706  23.645  0.00  0.00    -0.090 S 
ATOM      6  C   UNL     1       7.117  -5.895  22.407  0.00  0.00    +0.115 C 
ENDROOT
BRANCH   1   7
ATOM      7  O   UNL     1       5.368  -4.401  21.532  0.00  0.00    -0.388 OA
ATOM      8  H   UNL     1       6.099  -4.186  20.926  0.00  0.00    +0.210 HD
ENDBRANCH   1   7
BRANCH   2   9
ATOM      9  O   UNL     1       4.736  -7.312  23.669  0.00  0.00    -0.388 OA
ATOM     10  H   UNL     1       4.607  -7.856  22.871  0.00  0.00    +0.210 HD
ENDBRANCH   2   9
TORSDOF 2
ENDMDL
MODEL 8
REMARK VINA RESULT:      -3.3      2.177      3.144
REMARK  Name = 
REMARK  2 active torsions:
REMARK  status: ('A' for Active; 'I' for Inactive)
REMARK    1  A    between atoms: O_1  and  C_2
REMARK    2  A    between atoms: C_8  and  O_10
REMARK                            x       y       z     vdW  Elec       q    Type
REMARK                         _______ _______ _______ _____ _____    ______ ____
ROOT
ATOM      1  C   UNL     1       9.078  -2.166  23.947  0.00  0.00    +0.154 C 
ATOM      2  C   UNL     1       8.507  -1.888  22.543  0.00  0.00    +0.154 C 
ATOM      3  C   UNL     1       9.405  -1.025  21.637  0.00  0.00    +0.115 C 
ATOM      4  S   UNL     1       9.652   0.649  22.308  0.00  0.00    -0.090 S 
ATOM      5  S   UNL     1      10.568   0.193  24.082  0.00  0.00    -0.090 S 
ATOM      6  C   UNL     1       9.319  -0.913  24.809  0.00  0.00    +0.115 C 
ENDROOT
BRANCH   1   7
ATOM      7  O   UNL     1      10.267  -2.960  23.825  0.00  0.00    -0.388 OA
ATOM      8  H   UNL     1      10.144  -3.570  23.076  0.00  0.00    +0.210 HD
ENDBRANCH   1   7
BRANCH   2   9
ATOM      9  O   UNL     1       7.192  -1.330  22.671  0.00  0.00    -0.388 OA
ATOM     10  H   UNL     1       6.550  -2.061  22.622  0.00  0.00    +0.210 HD
ENDBRANCH   2   9
TORSDOF 2
ENDMDL
MODEL 9
REMARK VINA RESULT:      -3.2      2.704      3.413
REMARK  Name = 
REMARK  2 active torsions:
REMARK  status: ('A' for Active; 'I' for Inactive)
REMARK    1  A    between atoms: O_1  and  C_2
REMARK    2  A    between atoms: C_8  and  O_10
REMARK                            x       y       z     vdW  Elec       q    Type
REMARK                         _______ _______ _______ _____ _____    ______ ____
ROOT
ATOM      1  C   UNL     1       9.371  -1.115  24.289  0.00  0.00    +0.154 C 
ATOM      2  C   UNL     1       9.476   0.322  24.837  0.00  0.00    +0.154 C 
ATOM      3  C   UNL     1       8.926   1.414  23.901  0.00  0.00    +0.115 C 
ATOM      4  S   UNL     1       9.854   1.513  22.338  0.00  0.00    -0.090 S 
ATOM      5  S   UNL     1       9.515  -0.368  21.601  0.00  0.00    -0.090 S 
ATOM      6  C   UNL     1      10.147  -1.369  22.983  0.00  0.00    +0.115 C 
ENDROOT
BRANCH   1   7
ATOM      7  O   UNL     1       7.988  -1.471  24.160  0.00  0.00    -0.388 OA
ATOM      8  H   UNL     1       7.802  -2.187  24.792  0.00  0.00    +0.210 HD
ENDBRANCH   1   7
BRANCH   2   9
ATOM      9  O   UNL     1      10.835   0.584  25.215  0.00  0.00    -0.388 OA
ATOM     10  H   UNL     1      11.061   1.483  24.917  0.00  0.00    +0.210 HD
ENDBRANCH   2   9
TORSDOF 2
ENDMDL
