MODEL 1
REMARK VINA RESULT:      -6.8      0.000      0.000
REMARK  Name = 
REMARK  16 active torsions:
REMARK  status: ('A' for Active; 'I' for Inactive)
REMARK    1  A    between atoms: O_1  and  C_2
REMARK    2  A    between atoms: C_2  and  C_3
REMARK    3  A    between atoms: C_6  and  O_8
REMARK    4  A    between atoms: O_8  and  C_9
REMARK    5  A    between atoms: C_11  and  O_13
REMARK    6  A    between atoms: C_14  and  O_16
REMARK    7  A    between atoms: C_17  and  O_19
REMARK    8  A    between atoms: O_19  and  C_20
REMARK    9  A    between atoms: C_22  and  O_24
REMARK   10  A    between atoms: C_32  and  C_34
REMARK   11  A    between atoms: C_34  and  O_35
REMARK   12  A    between atoms: C_37  and  C_39
REMARK   13  A    between atoms: C_39  and  O_40
REMARK   14  A    between atoms: C_41  and  O_43
REMARK   15  A    between atoms: C_44  and  O_46
REMARK   16  A    between atoms: C_47  and  O_49
REMARK                            x       y       z     vdW  Elec       q    Type
REMARK                         _______ _______ _______ _____ _____    ______ ____
ROOT
ATOM      1  C   UNL     1       8.759   1.102  23.849  0.00  0.00    +0.183 C 
ATOM      2  C   UNL     1       8.786   0.066  22.696  0.00  0.00    +0.178 C 
ATOM      3  O   UNL     1       7.684  -0.854  22.728  0.00  0.00    -0.341 OA
ATOM      4  C   UNL     1       7.514  -1.568  23.969  0.00  0.00    +0.282 C 
ATOM      5  C   UNL     1       7.200  -0.537  25.072  0.00  0.00    +0.201 C 
ATOM      6  C   UNL     1       8.335   0.491  25.207  0.00  0.00    +0.179 C 
ENDROOT
BRANCH   6   7
ATOM      7  O   UNL     1       9.468   0.004  25.918  0.00  0.00    -0.386 OA
ATOM      8  H   UNL     1       9.464  -0.966  25.914  0.00  0.00    +0.210 HD
ENDBRANCH   6   7
BRANCH   5   9
ATOM      9  O   UNL     1       5.967   0.150  24.766  0.00  0.00    -0.384 OA
ATOM     10  H   UNL     1       5.251  -0.313  25.240  0.00  0.00    +0.210 HD
ENDBRANCH   5   9
BRANCH   2  11
ATOM     11  C   UNL     1      10.171  -0.572  22.488  0.00  0.00    +0.190 C 
BRANCH  11  12
ATOM     12  O   UNL     1      10.074  -1.605  21.505  0.00  0.00    -0.392 OA
ATOM     13  H   UNL     1       9.514  -1.237  20.794  0.00  0.00    +0.210 HD
ENDBRANCH  11  12
ENDBRANCH   2  11
BRANCH   4  14
ATOM     14  O   UNL     1       8.659  -2.369  24.143  0.00  0.00    -0.340 OA
BRANCH  14  15
ATOM     15  C   UNL     1       8.564  -3.801  24.092  0.00  0.00    +0.183 C 
ATOM     16  C   UNL     1       7.062  -4.085  24.283  0.00  0.00    +0.174 C 
ATOM     17  O   UNL     1       6.604  -4.048  25.637  0.00  0.00    -0.382 OA
ATOM     18  C   UNL     1       7.396  -4.719  26.630  0.00  0.00    +0.061 C 
ATOM     19  O   UNL     1       7.262  -6.023  26.463  0.00  0.00    -0.831 OA
ATOM     20  C   UNL     1       8.900  -4.338  26.539  0.00  0.00    +0.209 C 
ATOM     21  F   UNL     1       9.079  -3.040  26.931  0.00  0.00    -0.241 F 
ATOM     22  C   UNL     1       9.448  -4.498  25.119  0.00  0.00    +0.181 C 
BRANCH  22  23
ATOM     23  O   UNL     1       9.565  -5.887  24.761  0.00  0.00    -0.386 OA
ATOM     24  H   UNL     1       9.403  -6.364  25.619  0.00  0.00    +0.210 HD
ENDBRANCH  22  23
BRANCH  16  25
ATOM     25  C   UNL     1       6.522  -5.287  23.489  0.00  0.00    +0.190 C 
BRANCH  25  26
ATOM     26  O   UNL     1       7.534  -5.687  22.556  0.00  0.00    -0.392 OA
ATOM     27  H   UNL     1       7.915  -4.830  22.269  0.00  0.00    +0.210 HD
ENDBRANCH  25  26
ENDBRANCH  16  25
ENDBRANCH  14  15
ENDBRANCH   4  14
BRANCH   1  28
ATOM     28  O   UNL     1       7.811   2.169  23.593  0.00  0.00    -0.340 OA
BRANCH  28  33
ATOM     29  C   UNL     1       5.539   4.235  24.298  0.00  0.00    +0.178 C 
ATOM     30  C   UNL     1       6.254   5.533  23.869  0.00  0.00    +0.177 C 
ATOM     31  C   UNL     1       7.681   5.314  23.339  0.00  0.00    +0.179 C 
ATOM     32  C   UNL     1       8.470   4.415  24.293  0.00  0.00    +0.201 C 
ATOM     33  C   UNL     1       7.697   3.130  24.643  0.00  0.00    +0.282 C 
ATOM     34  O   UNL     1       6.357   3.340  25.063  0.00  0.00    -0.341 OA
BRANCH  30  35
ATOM     35  O   UNL     1       6.301   6.419  25.006  0.00  0.00    -0.386 OA
ATOM     36  H   UNL     1       6.038   7.312  24.695  0.00  0.00    +0.210 HD
ENDBRANCH  30  35
BRANCH  31  37
ATOM     37  O   UNL     1       7.733   4.843  21.995  0.00  0.00    -0.386 OA
ATOM     38  H   UNL     1       7.201   5.435  21.422  0.00  0.00    +0.210 HD
ENDBRANCH  31  37
BRANCH  32  39
ATOM     39  O   UNL     1       8.731   5.166  25.500  0.00  0.00    -0.384 OA
ATOM     40  H   UNL     1       7.873   5.297  25.948  0.00  0.00    +0.210 HD
ENDBRANCH  32  39
BRANCH  29  41
ATOM     41  C   UNL     1       4.836   3.512  23.142  0.00  0.00    +0.190 C 
BRANCH  41  42
ATOM     42  O   UNL     1       4.658   2.128  23.407  0.00  0.00    -0.392 OA
ATOM     43  H   UNL     1       5.031   1.980  24.297  0.00  0.00    +0.210 HD
ENDBRANCH  41  42
ENDBRANCH  29  41
ENDBRANCH  28  33
ENDBRANCH   1  28
TORSDOF 16
ENDMDL
MODEL 2
REMARK VINA RESULT:      -6.7      2.836      8.187
REMARK  Name = 
REMARK  16 active torsions:
REMARK  status: ('A' for Active; 'I' for Inactive)
REMARK    1  A    between atoms: O_1  and  C_2
REMARK    2  A    between atoms: C_2  and  C_3
REMARK    3  A    between atoms: C_6  and  O_8
REMARK    4  A    between atoms: O_8  and  C_9
REMARK    5  A    between atoms: C_11  and  O_13
REMARK    6  A    between atoms: C_14  and  O_16
REMARK    7  A    between atoms: C_17  and  O_19
REMARK    8  A    between atoms: O_19  and  C_20
REMARK    9  A    between atoms: C_22  and  O_24
REMARK   10  A    between atoms: C_32  and  C_34
REMARK   11  A    between atoms: C_34  and  O_35
REMARK   12  A    between atoms: C_37  and  C_39
REMARK   13  A    between atoms: C_39  and  O_40
REMARK   14  A    between atoms: C_41  and  O_43
REMARK   15  A    between atoms: C_44  and  O_46
REMARK   16  A    between atoms: C_47  and  O_49
REMARK                            x       y       z     vdW  Elec       q    Type
REMARK                         _______ _______ _______ _____ _____    ______ ____
ROOT
ATOM      1  C   UNL     1       6.365  -4.540  24.604  0.00  0.00    +0.183 C 
ATOM      2  C   UNL     1       5.931  -3.138  25.099  0.00  0.00    +0.178 C 
ATOM      3  O   UNL     1       5.586  -2.237  24.035  0.00  0.00    -0.341 OA
ATOM      4  C   UNL     1       6.597  -2.063  23.023  0.00  0.00    +0.282 C 
ATOM      5  C   UNL     1       6.818  -3.424  22.333  0.00  0.00    +0.201 C 
ATOM      6  C   UNL     1       7.265  -4.490  23.346  0.00  0.00    +0.179 C 
ENDROOT
BRANCH   6   7
ATOM      7  O   UNL     1       8.639  -4.398  23.710  0.00  0.00    -0.386 OA
ATOM      8  H   UNL     1       8.713  -4.240  24.664  0.00  0.00    +0.210 HD
ENDBRANCH   6   7
BRANCH   5   9
ATOM      9  O   UNL     1       5.599  -3.855  21.692  0.00  0.00    -0.384 OA
ATOM     10  H   UNL     1       4.958  -3.122  21.764  0.00  0.00    +0.210 HD
ENDBRANCH   5   9
BRANCH   2  11
ATOM     11  C   UNL     1       6.868  -2.557  26.174  0.00  0.00    +0.190 C 
BRANCH  11  12
ATOM     12  O   UNL     1       8.039  -3.371  26.272  0.00  0.00    -0.392 OA
ATOM     13  H   UNL     1       8.458  -3.335  25.391  0.00  0.00    +0.210 HD
ENDBRANCH  11  12
ENDBRANCH   2  11
BRANCH   4  14
ATOM     14  O   UNL     1       7.709  -1.469  23.651  0.00  0.00    -0.340 OA
BRANCH  14  15
ATOM     15  C   UNL     1       7.865  -0.042  23.666  0.00  0.00    +0.183 C 
ATOM     16  C   UNL     1       8.827   0.243  22.498  0.00  0.00    +0.174 C 
ATOM     17  O   UNL     1      10.213   0.034  22.786  0.00  0.00    -0.382 OA
ATOM     18  C   UNL     1      10.723   0.550  24.025  0.00  0.00    +0.061 C 
ATOM     19  O   UNL     1      10.787   1.867  23.938  0.00  0.00    -0.831 OA
ATOM     20  C   UNL     1       9.834   0.155  25.238  0.00  0.00    +0.209 C 
ATOM     21  F   UNL     1       9.941  -1.187  25.479  0.00  0.00    -0.241 F 
ATOM     22  C   UNL     1       8.360   0.493  25.004  0.00  0.00    +0.181 C 
BRANCH  22  23
ATOM     23  O   UNL     1       8.141   1.915  25.043  0.00  0.00    -0.386 OA
ATOM     24  H   UNL     1       8.746   2.264  24.333  0.00  0.00    +0.210 HD
ENDBRANCH  22  23
BRANCH  16  25
ATOM     25  C   UNL     1       8.554   1.552  21.736  0.00  0.00    +0.190 C 
BRANCH  25  26
ATOM     26  O   UNL     1       9.818   2.119  21.372  0.00  0.00    -0.392 OA
ATOM     27  H   UNL     1      10.271   2.214  22.237  0.00  0.00    +0.210 HD
ENDBRANCH  25  26
ENDBRANCH  16  25
ENDBRANCH  14  15
ENDBRANCH   4  14
BRANCH   1  28
ATOM     28  O   UNL     1       5.227  -5.357  24.233  0.00  0.00    -0.340 OA
BRANCH  28  33
ATOM     29  C   UNL     1       2.841  -7.406  24.432  0.00  0.00    +0.178 C 
ATOM     30  C   UNL     1       2.283  -6.992  25.810  0.00  0.00    +0.177 C 
ATOM     31  C   UNL     1       3.071  -5.857  26.486  0.00  0.00    +0.179 C 
ATOM     32  C   UNL     1       4.571  -6.154  26.448  0.00  0.00    +0.201 C 
ATOM     33  C   UNL     1       5.047  -6.528  25.031  0.00  0.00    +0.282 C 
ATOM     34  O   UNL     1       4.268  -7.526  24.388  0.00  0.00    -0.341 OA
BRANCH  30  35
ATOM     35  O   UNL     1       2.293  -8.152  26.667  0.00  0.00    -0.386 OA
ATOM     36  H   UNL     1       3.013  -8.742  26.356  0.00  0.00    +0.210 HD
ENDBRANCH  30  35
BRANCH  31  37
ATOM     37  O   UNL     1       2.770  -4.561  25.977  0.00  0.00    -0.386 OA
ATOM     38  H   UNL     1       1.804  -4.488  25.822  0.00  0.00    +0.210 HD
ENDBRANCH  31  37
BRANCH  32  39
ATOM     39  O   UNL     1       4.831  -7.253  27.350  0.00  0.00    -0.384 OA
ATOM     40  H   UNL     1       4.328  -8.022  27.018  0.00  0.00    +0.210 HD
ENDBRANCH  32  39
BRANCH  29  41
ATOM     41  C   UNL     1       2.309  -6.551  23.274  0.00  0.00    +0.190 C 
BRANCH  41  42
ATOM     42  O   UNL     1       3.336  -6.183  22.366  0.00  0.00    -0.392 OA
ATOM     43  H   UNL     1       4.174  -6.430  22.802  0.00  0.00    +0.210 HD
ENDBRANCH  41  42
ENDBRANCH  29  41
ENDBRANCH  28  33
ENDBRANCH   1  28
TORSDOF 16
ENDMDL
MODEL 3
REMARK VINA RESULT:      -6.6      2.893      4.199
REMARK  Name = 
REMARK  16 active torsions:
REMARK  status: ('A' for Active; 'I' for Inactive)
REMARK    1  A    between atoms: O_1  and  C_2
REMARK    2  A    between atoms: C_2  and  C_3
REMARK    3  A    between atoms: C_6  and  O_8
REMARK    4  A    between atoms: O_8  and  C_9
REMARK    5  A    between atoms: C_11  and  O_13
REMARK    6  A    between atoms: C_14  and  O_16
REMARK    7  A    between atoms: C_17  and  O_19
REMARK    8  A    between atoms: O_19  and  C_20
REMARK    9  A    between atoms: C_22  and  O_24
REMARK   10  A    between atoms: C_32  and  C_34
REMARK   11  A    between atoms: C_34  and  O_35
REMARK   12  A    between atoms: C_37  and  C_39
REMARK   13  A    between atoms: C_39  and  O_40
REMARK   14  A    between atoms: C_41  and  O_43
REMARK   15  A    between atoms: C_44  and  O_46
REMARK   16  A    between atoms: C_47  and  O_49
REMARK                            x       y       z     vdW  Elec       q    Type
REMARK                         _______ _______ _______ _____ _____    ______ ____
ROOT
ATOM      1  C   UNL     1       7.750  -2.341  23.236  0.00  0.00    +0.183 C 
ATOM      2  C   UNL     1       6.828  -3.118  22.262  0.00  0.00    +0.178 C 
ATOM      3  O   UNL     1       5.429  -2.911  22.512  0.00  0.00    -0.341 OA
ATOM      4  C   UNL     1       4.996  -3.190  23.858  0.00  0.00    +0.282 C 
ATOM      5  C   UNL     1       5.716  -2.205  24.802  0.00  0.00    +0.201 C 
ATOM      6  C   UNL     1       7.242  -2.356  24.698  0.00  0.00    +0.179 C 
ENDROOT
BRANCH   6   7
ATOM      7  O   UNL     1       7.757  -3.481  25.401  0.00  0.00    -0.386 OA
ATOM      8  H   UNL     1       7.074  -3.838  25.991  0.00  0.00    +0.210 HD
ENDBRANCH   6   7
BRANCH   5   9
ATOM      9  O   UNL     1       5.346  -0.849  24.473  0.00  0.00    -0.384 OA
ATOM     10  H   UNL     1       4.522  -0.891  23.951  0.00  0.00    +0.210 HD
ENDBRANCH   5   9
BRANCH   2  11
ATOM     11  C   UNL     1       7.251  -4.585  22.067  0.00  0.00    +0.190 C 
BRANCH  11  12
ATOM     12  O   UNL     1       6.300  -5.246  21.231  0.00  0.00    -0.392 OA
ATOM     13  H   UNL     1       6.205  -4.679  20.442  0.00  0.00    +0.210 HD
ENDBRANCH  11  12
ENDBRANCH   2  11
BRANCH   4  14
ATOM     14  O   UNL     1       5.203  -4.565  24.081  0.00  0.00    -0.340 OA
BRANCH  14  15
ATOM     15  C   UNL     1       4.126  -5.501  23.921  0.00  0.00    +0.183 C 
ATOM     16  C   UNL     1       2.950  -4.853  24.676  0.00  0.00    +0.174 C 
ATOM     17  O   UNL     1       2.967  -5.030  26.096  0.00  0.00    -0.382 OA
ATOM     18  C   UNL     1       3.257  -6.342  26.602  0.00  0.00    +0.061 C 
ATOM     19  O   UNL     1       2.218  -7.123  26.368  0.00  0.00    -0.831 OA
ATOM     20  C   UNL     1       4.526  -6.958  25.948  0.00  0.00    +0.209 C 
ATOM     21  F   UNL     1       5.642  -6.289  26.369  0.00  0.00    -0.241 F 
ATOM     22  C   UNL     1       4.469  -6.900  24.420  0.00  0.00    +0.181 C 
BRANCH  22  23
ATOM     23  O   UNL     1       3.498  -7.826  23.900  0.00  0.00    -0.386 OA
ATOM     24  H   UNL     1       3.167  -7.380  23.075  0.00  0.00    +0.210 HD
ENDBRANCH  22  23
BRANCH  16  25
ATOM     25  C   UNL     1       1.565  -5.091  24.049  0.00  0.00    +0.190 C 
BRANCH  25  26
ATOM     26  O   UNL     1       1.766  -5.559  22.709  0.00  0.00    -0.392 OA
ATOM     27  H   UNL     1       1.095  -5.054  22.200  0.00  0.00    +0.210 HD
ENDBRANCH  25  26
ENDBRANCH  16  25
ENDBRANCH  14  15
ENDBRANCH   4  14
BRANCH   1  28
ATOM     28  O   UNL     1       7.855  -0.941  22.877  0.00  0.00    -0.340 OA
BRANCH  28  33
ATOM     29  C   UNL     1       7.717   2.108  23.661  0.00  0.00    +0.178 C 
ATOM     30  C   UNL     1       8.970   2.606  22.910  0.00  0.00    +0.177 C 
ATOM     31  C   UNL     1       9.732   1.497  22.165  0.00  0.00    +0.179 C 
ATOM     32  C   UNL     1       9.953   0.294  23.084  0.00  0.00    +0.201 C 
ATOM     33  C   UNL     1       8.647  -0.154  23.768  0.00  0.00    +0.282 C 
ATOM     34  O   UNL     1       7.915   0.891  24.391  0.00  0.00    -0.341 OA
BRANCH  30  35
ATOM     35  O   UNL     1       9.852   3.228  23.867  0.00  0.00    -0.386 OA
ATOM     36  H   UNL     1      10.724   3.343  23.431  0.00  0.00    +0.210 HD
ENDBRANCH  30  35
BRANCH  31  37
ATOM     37  O   UNL     1       9.141   1.121  20.925  0.00  0.00    -0.386 OA
ATOM     38  H   UNL     1       9.846   0.958  20.263  0.00  0.00    +0.210 HD
ENDBRANCH  31  37
BRANCH  32  39
ATOM     39  O   UNL     1      10.919   0.673  24.090  0.00  0.00    -0.384 OA
ATOM     40  H   UNL     1      10.769   0.096  24.864  0.00  0.00    +0.210 HD
ENDBRANCH  32  39
BRANCH  29  41
ATOM     41  C   UNL     1       6.461   2.044  22.782  0.00  0.00    +0.190 C 
BRANCH  41  42
ATOM     42  O   UNL     1       5.282   1.849  23.549  0.00  0.00    -0.392 OA
ATOM     43  H   UNL     1       5.162   2.671  24.062  0.00  0.00    +0.210 HD
ENDBRANCH  41  42
ENDBRANCH  29  41
ENDBRANCH  28  33
ENDBRANCH   1  28
TORSDOF 16
ENDMDL
MODEL 4
REMARK VINA RESULT:      -6.6      2.865      4.544
REMARK  Name = 
REMARK  16 active torsions:
REMARK  status: ('A' for Active; 'I' for Inactive)
REMARK    1  A    between atoms: O_1  and  C_2
REMARK    2  A    between atoms: C_2  and  C_3
REMARK    3  A    between atoms: C_6  and  O_8
REMARK    4  A    between atoms: O_8  and  C_9
REMARK    5  A    between atoms: C_11  and  O_13
REMARK    6  A    between atoms: C_14  and  O_16
REMARK    7  A    between atoms: C_17  and  O_19
REMARK    8  A    between atoms: O_19  and  C_20
REMARK    9  A    between atoms: C_22  and  O_24
REMARK   10  A    between atoms: C_32  and  C_34
REMARK   11  A    between atoms: C_34  and  O_35
REMARK   12  A    between atoms: C_37  and  C_39
REMARK   13  A    between atoms: C_39  and  O_40
REMARK   14  A    between atoms: C_41  and  O_43
REMARK   15  A    between atoms: C_44  and  O_46
REMARK   16  A    between atoms: C_47  and  O_49
REMARK                            x       y       z     vdW  Elec       q    Type
REMARK                         _______ _______ _______ _____ _____    ______ ____
ROOT
ATOM      1  C   UNL     1       7.704  -1.969  24.115  0.00  0.00    +0.183 C 
ATOM      2  C   UNL     1       6.998  -2.678  22.932  0.00  0.00    +0.178 C 
ATOM      3  O   UNL     1       5.566  -2.591  22.985  0.00  0.00    -0.341 OA
ATOM      4  C   UNL     1       4.966  -3.058  24.210  0.00  0.00    +0.282 C 
ATOM      5  C   UNL     1       5.460  -2.152  25.356  0.00  0.00    +0.201 C 
ATOM      6  C   UNL     1       6.992  -2.193  25.471  0.00  0.00    +0.179 C 
ENDROOT
BRANCH   6   7
ATOM      7  O   UNL     1       7.489  -3.361  26.116  0.00  0.00    -0.386 OA
ATOM      8  H   UNL     1       8.283  -3.139  26.627  0.00  0.00    +0.210 HD
ENDBRANCH   6   7
BRANCH   5   9
ATOM      9  O   UNL     1       5.035  -0.792  25.127  0.00  0.00    -0.384 OA
ATOM     10  H   UNL     1       4.567  -0.494  25.930  0.00  0.00    +0.210 HD
ENDBRANCH   5   9
BRANCH   2  11
ATOM     11  C   UNL     1       7.562  -4.081  22.642  0.00  0.00    +0.190 C 
BRANCH  11  12
ATOM     12  O   UNL     1       8.235  -4.571  23.803  0.00  0.00    -0.392 OA
ATOM     13  H   UNL     1       7.936  -4.001  24.539  0.00  0.00    +0.210 HD
ENDBRANCH  11  12
ENDBRANCH   2  11
BRANCH   4  14
ATOM     14  O   UNL     1       5.248  -4.434  24.308  0.00  0.00    -0.340 OA
BRANCH  14  15
ATOM     15  C   UNL     1       4.223  -5.409  24.063  0.00  0.00    +0.183 C 
ATOM     16  C   UNL     1       2.985  -4.843  24.782  0.00  0.00    +0.174 C 
ATOM     17  O   UNL     1       2.943  -5.073  26.194  0.00  0.00    -0.382 OA
ATOM     18  C   UNL     1       3.268  -6.389  26.666  0.00  0.00    +0.061 C 
ATOM     19  O   UNL     1       2.277  -7.206  26.353  0.00  0.00    -0.831 OA
ATOM     20  C   UNL     1       4.593  -6.924  26.052  0.00  0.00    +0.209 C 
ATOM     21  F   UNL     1       5.656  -6.224  26.551  0.00  0.00    -0.241 F 
ATOM     22  C   UNL     1       4.605  -6.810  24.526  0.00  0.00    +0.181 C 
BRANCH  22  23
ATOM     23  O   UNL     1       3.703  -7.757  23.927  0.00  0.00    -0.386 OA
ATOM     24  H   UNL     1       3.461  -8.359  24.681  0.00  0.00    +0.210 HD
ENDBRANCH  22  23
BRANCH  16  25
ATOM     25  C   UNL     1       1.644  -5.116  24.080  0.00  0.00    +0.190 C 
BRANCH  25  26
ATOM     26  O   UNL     1       1.929  -5.540  22.740  0.00  0.00    -0.392 OA
ATOM     27  H   UNL     1       1.678  -4.755  22.207  0.00  0.00    +0.210 HD
ENDBRANCH  25  26
ENDBRANCH  16  25
ENDBRANCH  14  15
ENDBRANCH   4  14
BRANCH   1  28
ATOM     28  O   UNL     1       7.748  -0.532  23.934  0.00  0.00    -0.340 OA
BRANCH  28  33
ATOM     29  C   UNL     1      10.571   0.738  23.344  0.00  0.00    +0.178 C 
ATOM     30  C   UNL     1      10.125   2.185  23.045  0.00  0.00    +0.177 C 
ATOM     31  C   UNL     1       8.604   2.398  23.123  0.00  0.00    +0.179 C 
ATOM     32  C   UNL     1       7.874   1.311  22.333  0.00  0.00    +0.201 C 
ATOM     33  C   UNL     1       8.358  -0.101  22.716  0.00  0.00    +0.282 C 
ATOM     34  O   UNL     1       9.768  -0.266  22.710  0.00  0.00    -0.341 OA
BRANCH  30  35
ATOM     35  O   UNL     1      10.586   2.534  21.724  0.00  0.00    -0.386 OA
ATOM     36  H   UNL     1      10.714   3.507  21.705  0.00  0.00    +0.210 HD
ENDBRANCH  30  35
BRANCH  31  37
ATOM     37  O   UNL     1       8.105   2.521  24.451  0.00  0.00    -0.386 OA
ATOM     38  H   UNL     1       8.438   1.776  24.995  0.00  0.00    +0.210 HD
ENDBRANCH  31  37
BRANCH  32  39
ATOM     39  O   UNL     1       8.118   1.539  20.927  0.00  0.00    -0.384 OA
ATOM     40  H   UNL     1       8.548   0.736  20.576  0.00  0.00    +0.210 HD
ENDBRANCH  32  39
BRANCH  29  41
ATOM     41  C   UNL     1      10.760   0.451  24.839  0.00  0.00    +0.190 C 
BRANCH  41  42
ATOM     42  O   UNL     1       9.560   0.639  25.575  0.00  0.00    -0.392 OA
ATOM     43  H   UNL     1       9.205   1.501  25.285  0.00  0.00    +0.210 HD
ENDBRANCH  41  42
ENDBRANCH  29  41
ENDBRANCH  28  33
ENDBRANCH   1  28
TORSDOF 16
ENDMDL
MODEL 5
REMARK VINA RESULT:      -6.6      2.637      4.879
REMARK  Name = 
REMARK  16 active torsions:
REMARK  status: ('A' for Active; 'I' for Inactive)
REMARK    1  A    between atoms: O_1  and  C_2
REMARK    2  A    between atoms: C_2  and  C_3
REMARK    3  A    between atoms: C_6  and  O_8
REMARK    4  A    between atoms: O_8  and  C_9
REMARK    5  A    between atoms: C_11  and  O_13
REMARK    6  A    between atoms: C_14  and  O_16
REMARK    7  A    between atoms: C_17  and  O_19
REMARK    8  A    between atoms: O_19  and  C_20
REMARK    9  A    between atoms: C_22  and  O_24
REMARK   10  A    between atoms: C_32  and  C_34
REMARK   11  A    between atoms: C_34  and  O_35
REMARK   12  A    between atoms: C_37  and  C_39
REMARK   13  A    between atoms: C_39  and  O_40
REMARK   14  A    between atoms: C_41  and  O_43
REMARK   15  A    between atoms: C_44  and  O_46
REMARK   16  A    between atoms: C_47  and  O_49
REMARK                            x       y       z     vdW  Elec       q    Type
REMARK                         _______ _______ _______ _____ _____    ______ ____
ROOT
ATOM      1  C   UNL     1       7.629  -2.305  25.214  0.00  0.00    +0.183 C 
ATOM      2  C   UNL     1       8.182  -3.741  25.389  0.00  0.00    +0.178 C 
ATOM      3  O   UNL     1       7.946  -4.588  24.254  0.00  0.00    -0.341 OA
ATOM      4  C   UNL     1       6.570  -4.686  23.835  0.00  0.00    +0.282 C 
ATOM      5  C   UNL     1       6.110  -3.283  23.385  0.00  0.00    +0.201 C 
ATOM      6  C   UNL     1       6.241  -2.266  24.530  0.00  0.00    +0.179 C 
ENDROOT
BRANCH   6   7
ATOM      7  O   UNL     1       5.199  -2.351  25.496  0.00  0.00    -0.386 OA
ATOM      8  H   UNL     1       5.406  -3.047  26.139  0.00  0.00    +0.210 HD
ENDBRANCH   6   7
BRANCH   5   9
ATOM      9  O   UNL     1       6.902  -2.843  22.261  0.00  0.00    -0.384 OA
ATOM     10  H   UNL     1       7.049  -3.619  21.688  0.00  0.00    +0.210 HD
ENDBRANCH   5   9
BRANCH   2  11
ATOM     11  C   UNL     1       7.837  -4.361  26.755  0.00  0.00    +0.190 C 
BRANCH  11  12
ATOM     12  O   UNL     1       8.188  -5.746  26.750  0.00  0.00    -0.392 OA
ATOM     13  H   UNL     1       8.699  -5.884  25.929  0.00  0.00    +0.210 HD
ENDBRANCH  11  12
ENDBRANCH   2  11
BRANCH   4  14
ATOM     14  O   UNL     1       5.860  -5.290  24.890  0.00  0.00    -0.340 OA
BRANCH  14  15
ATOM     15  C   UNL     1       4.720  -6.120  24.622  0.00  0.00    +0.183 C 
ATOM     16  C   UNL     1       3.580  -5.120  24.354  0.00  0.00    +0.174 C 
ATOM     17  O   UNL     1       2.970  -4.565  25.524  0.00  0.00    -0.382 OA
ATOM     18  C   UNL     1       2.641  -5.463  26.595  0.00  0.00    +0.061 C 
ATOM     19  O   UNL     1       1.608  -6.199  26.224  0.00  0.00    -0.831 OA
ATOM     20  C   UNL     1       3.829  -6.391  26.972  0.00  0.00    +0.209 C 
ATOM     21  F   UNL     1       4.820  -5.663  27.570  0.00  0.00    -0.241 F 
ATOM     22  C   UNL     1       4.414  -7.100  25.749  0.00  0.00    +0.181 C 
BRANCH  22  23
ATOM     23  O   UNL     1       3.514  -8.108  25.253  0.00  0.00    -0.386 OA
ATOM     24  H   UNL     1       2.664  -7.922  25.737  0.00  0.00    +0.210 HD
ENDBRANCH  22  23
BRANCH  16  25
ATOM     25  C   UNL     1       2.563  -5.563  23.289  0.00  0.00    +0.190 C 
BRANCH  25  26
ATOM     26  O   UNL     1       3.103  -6.708  22.617  0.00  0.00    -0.392 OA
ATOM     27  H   UNL     1       3.886  -6.932  23.165  0.00  0.00    +0.210 HD
ENDBRANCH  25  26
ENDBRANCH  16  25
ENDBRANCH  14  15
ENDBRANCH   4  14
BRANCH   1  28
ATOM     28  O   UNL     1       8.493  -1.492  24.381  0.00  0.00    -0.340 OA
BRANCH  28  33
ATOM     29  C   UNL     1       9.256   0.528  22.086  0.00  0.00    +0.178 C 
ATOM     30  C   UNL     1       9.921   1.625  22.943  0.00  0.00    +0.177 C 
ATOM     31  C   UNL     1       9.919   1.325  24.452  0.00  0.00    +0.179 C 
ATOM     32  C   UNL     1       8.523   0.894  24.906  0.00  0.00    +0.201 C 
ATOM     33  C   UNL     1       7.949  -0.224  24.015  0.00  0.00    +0.282 C 
ATOM     34  O   UNL     1       8.022   0.033  22.620  0.00  0.00    -0.341 OA
BRANCH  30  35
ATOM     35  O   UNL     1       9.227   2.866  22.705  0.00  0.00    -0.386 OA
ATOM     36  H   UNL     1       9.659   3.303  21.940  0.00  0.00    +0.210 HD
ENDBRANCH  30  35
BRANCH  31  37
ATOM     37  O   UNL     1      10.923   0.400  24.859  0.00  0.00    -0.386 OA
ATOM     38  H   UNL     1      11.208   0.610  25.774  0.00  0.00    +0.210 HD
ENDBRANCH  31  37
BRANCH  32  39
ATOM     39  O   UNL     1       7.658   2.051  24.848  0.00  0.00    -0.384 OA
ATOM     40  H   UNL     1       8.035   2.658  24.182  0.00  0.00    +0.210 HD
ENDBRANCH  32  39
BRANCH  29  41
ATOM     41  C   UNL     1      10.207  -0.615  21.706  0.00  0.00    +0.190 C 
BRANCH  41  42
ATOM     42  O   UNL     1       9.520  -1.844  21.527  0.00  0.00    -0.392 OA
ATOM     43  H   UNL     1      10.190  -2.475  21.200  0.00  0.00    +0.210 HD
ENDBRANCH  41  42
ENDBRANCH  29  41
ENDBRANCH  28  33
ENDBRANCH   1  28
TORSDOF 16
ENDMDL
MODEL 6
REMARK VINA RESULT:      -6.5      1.004      1.672
REMARK  Name = 
REMARK  16 active torsions:
REMARK  status: ('A' for Active; 'I' for Inactive)
REMARK    1  A    between atoms: O_1  and  C_2
REMARK    2  A    between atoms: C_2  and  C_3
REMARK    3  A    between atoms: C_6  and  O_8
REMARK    4  A    between atoms: O_8  and  C_9
REMARK    5  A    between atoms: C_11  and  O_13
REMARK    6  A    between atoms: C_14  and  O_16
REMARK    7  A    between atoms: C_17  and  O_19
REMARK    8  A    between atoms: O_19  and  C_20
REMARK    9  A    between atoms: C_22  and  O_24
REMARK   10  A    between atoms: C_32  and  C_34
REMARK   11  A    between atoms: C_34  and  O_35
REMARK   12  A    between atoms: C_37  and  C_39
REMARK   13  A    between atoms: C_39  and  O_40
REMARK   14  A    between atoms: C_41  and  O_43
REMARK   15  A    between atoms: C_44  and  O_46
REMARK   16  A    between atoms: C_47  and  O_49
REMARK                            x       y       z     vdW  Elec       q    Type
REMARK                         _______ _______ _______ _____ _____    ______ ____
ROOT
ATOM      1  C   UNL     1       8.462   1.131  23.780  0.00  0.00    +0.183 C 
ATOM      2  C   UNL     1       8.707   0.096  22.654  0.00  0.00    +0.178 C 
ATOM      3  O   UNL     1       7.665  -0.886  22.543  0.00  0.00    -0.341 OA
ATOM      4  C   UNL     1       7.364  -1.605  23.755  0.00  0.00    +0.282 C 
ATOM      5  C   UNL     1       6.841  -0.589  24.792  0.00  0.00    +0.201 C 
ATOM      6  C   UNL     1       7.888   0.502  25.072  0.00  0.00    +0.179 C 
ENDROOT
BRANCH   6   7
ATOM      7  O   UNL     1       8.936   0.083  25.940  0.00  0.00    -0.386 OA
ATOM      8  H   UNL     1       9.185  -0.831  25.733  0.00  0.00    +0.210 HD
ENDBRANCH   6   7
BRANCH   5   9
ATOM      9  O   UNL     1       5.627   0.026  24.310  0.00  0.00    -0.384 OA
ATOM     10  H   UNL     1       5.464  -0.320  23.412  0.00  0.00    +0.210 HD
ENDBRANCH   5   9
BRANCH   2  11
ATOM     11  C   UNL     1      10.141  -0.464  22.648  0.00  0.00    +0.190 C 
BRANCH  11  12
ATOM     12  O   UNL     1      10.224  -1.547  21.720  0.00  0.00    -0.392 OA
ATOM     13  H   UNL     1      10.028  -1.158  20.845  0.00  0.00    +0.210 HD
ENDBRANCH  11  12
ENDBRANCH   2  11
BRANCH   4  14
ATOM     14  O   UNL     1       8.517  -2.339  24.096  0.00  0.00    -0.340 OA
BRANCH  14  15
ATOM     15  C   UNL     1       8.502  -3.774  24.071  0.00  0.00    +0.183 C 
ATOM     16  C   UNL     1       7.021  -4.139  24.283  0.00  0.00    +0.174 C 
ATOM     17  O   UNL     1       6.573  -4.103  25.641  0.00  0.00    -0.382 OA
ATOM     18  C   UNL     1       7.410  -4.709  26.637  0.00  0.00    +0.061 C 
ATOM     19  O   UNL     1       7.349  -6.022  26.496  0.00  0.00    -0.831 OA
ATOM     20  C   UNL     1       8.890  -4.245  26.525  0.00  0.00    +0.209 C 
ATOM     21  F   UNL     1       8.998  -2.933  26.892  0.00  0.00    -0.241 F 
ATOM     22  C   UNL     1       9.433  -4.401  25.102  0.00  0.00    +0.181 C 
BRANCH  22  23
ATOM     23  O   UNL     1       9.626  -5.788  24.769  0.00  0.00    -0.386 OA
ATOM     24  H   UNL     1       8.915  -5.967  24.095  0.00  0.00    +0.210 HD
ENDBRANCH  22  23
BRANCH  16  25
ATOM     25  C   UNL     1       6.543  -5.385  23.516  0.00  0.00    +0.190 C 
BRANCH  25  26
ATOM     26  O   UNL     1       5.373  -5.883  24.177  0.00  0.00    -0.392 OA
ATOM     27  H   UNL     1       4.655  -5.339  23.787  0.00  0.00    +0.210 HD
ENDBRANCH  25  26
ENDBRANCH  16  25
ENDBRANCH  14  15
ENDBRANCH   4  14
BRANCH   1  28
ATOM     28  O   UNL     1       7.502   2.142  23.383  0.00  0.00    -0.340 OA
BRANCH  28  33
ATOM     29  C   UNL     1       7.444   4.682  25.246  0.00  0.00    +0.178 C 
ATOM     30  C   UNL     1       6.444   5.544  24.447  0.00  0.00    +0.177 C 
ATOM     31  C   UNL     1       5.942   4.878  23.154  0.00  0.00    +0.179 C 
ATOM     32  C   UNL     1       7.119   4.323  22.350  0.00  0.00    +0.201 C 
ATOM     33  C   UNL     1       8.047   3.451  23.218  0.00  0.00    +0.282 C 
ATOM     34  O   UNL     1       8.446   4.048  24.443  0.00  0.00    -0.341 OA
BRANCH  30  35
ATOM     35  O   UNL     1       7.086   6.793  24.119  0.00  0.00    -0.386 OA
ATOM     36  H   UNL     1       7.644   6.637  23.326  0.00  0.00    +0.210 HD
ENDBRANCH  30  35
BRANCH  31  37
ATOM     37  O   UNL     1       4.928   3.900  23.363  0.00  0.00    -0.386 OA
ATOM     38  H   UNL     1       5.083   3.447  24.219  0.00  0.00    +0.210 HD
ENDBRANCH  31  37
BRANCH  32  39
ATOM     39  O   UNL     1       7.864   5.442  21.819  0.00  0.00    -0.384 OA
ATOM     40  H   UNL     1       7.485   6.252  22.212  0.00  0.00    +0.210 HD
ENDBRANCH  32  39
BRANCH  29  41
ATOM     41  C   UNL     1       6.769   3.687  26.200  0.00  0.00    +0.190 C 
BRANCH  41  42
ATOM     42  O   UNL     1       7.631   3.291  27.256  0.00  0.00    -0.392 OA
ATOM     43  H   UNL     1       8.458   2.999  26.826  0.00  0.00    +0.210 HD
ENDBRANCH  41  42
ENDBRANCH  29  41
ENDBRANCH  28  33
ENDBRANCH   1  28
TORSDOF 16
ENDMDL
MODEL 7
REMARK VINA RESULT:      -6.4      1.999      8.113
REMARK  Name = 
REMARK  16 active torsions:
REMARK  status: ('A' for Active; 'I' for Inactive)
REMARK    1  A    between atoms: O_1  and  C_2
REMARK    2  A    between atoms: C_2  and  C_3
REMARK    3  A    between atoms: C_6  and  O_8
REMARK    4  A    between atoms: O_8  and  C_9
REMARK    5  A    between atoms: C_11  and  O_13
REMARK    6  A    between atoms: C_14  and  O_16
REMARK    7  A    between atoms: C_17  and  O_19
REMARK    8  A    between atoms: O_19  and  C_20
REMARK    9  A    between atoms: C_22  and  O_24
REMARK   10  A    between atoms: C_32  and  C_34
REMARK   11  A    between atoms: C_34  and  O_35
REMARK   12  A    between atoms: C_37  and  C_39
REMARK   13  A    between atoms: C_39  and  O_40
REMARK   14  A    between atoms: C_41  and  O_43
REMARK   15  A    between atoms: C_44  and  O_46
REMARK   16  A    between atoms: C_47  and  O_49
REMARK                            x       y       z     vdW  Elec       q    Type
REMARK                         _______ _______ _______ _____ _____    ______ ____
ROOT
ATOM      1  C   UNL     1       8.732  -0.694  24.536  0.00  0.00    +0.183 C 
ATOM      2  C   UNL     1       7.436   0.101  24.238  0.00  0.00    +0.178 C 
ATOM      3  O   UNL     1       7.428   0.717  22.941  0.00  0.00    -0.341 OA
ATOM      4  C   UNL     1       8.554   1.572  22.659  0.00  0.00    +0.282 C 
ATOM      5  C   UNL     1       9.827   0.702  22.676  0.00  0.00    +0.201 C 
ATOM      6  C   UNL     1      10.012   0.020  24.041  0.00  0.00    +0.179 C 
ENDROOT
BRANCH   6   7
ATOM      7  O   UNL     1      10.531   0.883  25.048  0.00  0.00    -0.386 OA
ATOM      8  H   UNL     1      10.074   1.739  25.012  0.00  0.00    +0.210 HD
ENDBRANCH   6   7
BRANCH   5   9
ATOM      9  O   UNL     1       9.748  -0.307  21.646  0.00  0.00    -0.384 OA
ATOM     10  H   UNL     1      10.269  -1.074  21.949  0.00  0.00    +0.210 HD
ENDBRANCH   5   9
BRANCH   2  11
ATOM     11  C   UNL     1       7.003   1.011  25.401  0.00  0.00    +0.190 C 
BRANCH  11  12
ATOM     12  O   UNL     1       8.130   1.284  26.235  0.00  0.00    -0.392 OA
ATOM     13  H   UNL     1       8.746   1.802  25.681  0.00  0.00    +0.210 HD
ENDBRANCH  11  12
ENDBRANCH   2  11
BRANCH   4  14
ATOM     14  O   UNL     1       8.494   2.645  23.569  0.00  0.00    -0.340 OA
BRANCH  14  15
ATOM     15  C   UNL     1       8.483   4.002  23.099  0.00  0.00    +0.183 C 
ATOM     16  C   UNL     1       8.613   4.845  24.380  0.00  0.00    +0.174 C 
ATOM     17  O   UNL     1       7.398   5.031  25.113  0.00  0.00    -0.382 OA
ATOM     18  C   UNL     1       6.218   5.379  24.373  0.00  0.00    +0.061 C 
ATOM     19  O   UNL     1       6.335   6.629  23.959  0.00  0.00    -0.831 OA
ATOM     20  C   UNL     1       5.995   4.448  23.148  0.00  0.00    +0.209 C 
ATOM     21  F   UNL     1       5.648   3.195  23.570  0.00  0.00    -0.241 F 
ATOM     22  C   UNL     1       7.247   4.340  22.274  0.00  0.00    +0.181 C 
BRANCH  22  23
ATOM     23  O   UNL     1       7.489   5.566  21.560  0.00  0.00    -0.386 OA
ATOM     24  H   UNL     1       6.633   6.064  21.653  0.00  0.00    +0.210 HD
ENDBRANCH  22  23
BRANCH  16  25
ATOM     25  C   UNL     1       9.436   6.136  24.228  0.00  0.00    +0.190 C 
BRANCH  25  26
ATOM     26  O   UNL     1      10.138   6.064  22.980  0.00  0.00    -0.392 OA
ATOM     27  H   UNL     1      11.043   6.356  23.223  0.00  0.00    +0.210 HD
ENDBRANCH  25  26
ENDBRANCH  16  25
ENDBRANCH  14  15
ENDBRANCH   4  14
BRANCH   1  28
ATOM     28  O   UNL     1       8.733  -1.988  23.881  0.00  0.00    -0.340 OA
BRANCH  28  33
ATOM     29  C   UNL     1       7.863  -5.015  23.822  0.00  0.00    +0.178 C 
ATOM     30  C   UNL     1       6.913  -5.015  25.038  0.00  0.00    +0.177 C 
ATOM     31  C   UNL     1       6.805  -3.653  25.746  0.00  0.00    +0.179 C 
ATOM     32  C   UNL     1       8.198  -3.076  26.002  0.00  0.00    +0.201 C 
ATOM     33  C   UNL     1       9.067  -3.086  24.729  0.00  0.00    +0.282 C 
ATOM     34  O   UNL     1       9.101  -4.330  24.045  0.00  0.00    -0.341 OA
BRANCH  30  35
ATOM     35  O   UNL     1       7.384  -6.002  25.978  0.00  0.00    -0.386 OA
ATOM     36  H   UNL     1       8.347  -5.858  26.099  0.00  0.00    +0.210 HD
ENDBRANCH  30  35
BRANCH  31  37
ATOM     37  O   UNL     1       5.954  -2.723  25.083  0.00  0.00    -0.386 OA
ATOM     38  H   UNL     1       5.018  -2.932  25.291  0.00  0.00    +0.210 HD
ENDBRANCH  31  37
BRANCH  32  39
ATOM     39  O   UNL     1       8.832  -3.876  27.026  0.00  0.00    -0.384 OA
ATOM     40  H   UNL     1       8.416  -4.759  26.999  0.00  0.00    +0.210 HD
ENDBRANCH  32  39
BRANCH  29  41
ATOM     41  C   UNL     1       7.191  -4.562  22.519  0.00  0.00    +0.190 C 
BRANCH  41  42
ATOM     42  O   UNL     1       5.775  -4.554  22.624  0.00  0.00    -0.392 OA
ATOM     43  H   UNL     1       5.463  -3.932  21.938  0.00  0.00    +0.210 HD
ENDBRANCH  41  42
ENDBRANCH  29  41
ENDBRANCH  28  33
ENDBRANCH   1  28
TORSDOF 16
ENDMDL
MODEL 8
REMARK VINA RESULT:      -6.4      2.326      8.082
REMARK  Name = 
REMARK  16 active torsions:
REMARK  status: ('A' for Active; 'I' for Inactive)
REMARK    1  A    between atoms: O_1  and  C_2
REMARK    2  A    between atoms: C_2  and  C_3
REMARK    3  A    between atoms: C_6  and  O_8
REMARK    4  A    between atoms: O_8  and  C_9
REMARK    5  A    between atoms: C_11  and  O_13
REMARK    6  A    between atoms: C_14  and  O_16
REMARK    7  A    between atoms: C_17  and  O_19
REMARK    8  A    between atoms: O_19  and  C_20
REMARK    9  A    between atoms: C_22  and  O_24
REMARK   10  A    between atoms: C_32  and  C_34
REMARK   11  A    between atoms: C_34  and  O_35
REMARK   12  A    between atoms: C_37  and  C_39
REMARK   13  A    between atoms: C_39  and  O_40
REMARK   14  A    between atoms: C_41  and  O_43
REMARK   15  A    between atoms: C_44  and  O_46
REMARK   16  A    between atoms: C_47  and  O_49
REMARK                            x       y       z     vdW  Elec       q    Type
REMARK                         _______ _______ _______ _____ _____    ______ ____
ROOT
ATOM      1  C   UNL     1       7.456  -2.993  25.267  0.00  0.00    +0.183 C 
ATOM      2  C   UNL     1       7.070  -1.655  25.946  0.00  0.00    +0.178 C 
ATOM      3  O   UNL     1       6.235  -0.819  25.129  0.00  0.00    -0.341 OA
ATOM      4  C   UNL     1       6.755  -0.524  23.817  0.00  0.00    +0.282 C 
ATOM      5  C   UNL     1       6.867  -1.852  23.040  0.00  0.00    +0.201 C 
ATOM      6  C   UNL     1       7.796  -2.839  23.765  0.00  0.00    +0.179 C 
ENDROOT
BRANCH   6   7
ATOM      7  O   UNL     1       9.181  -2.562  23.585  0.00  0.00    -0.386 OA
ATOM      8  H   UNL     1       9.387  -2.531  22.638  0.00  0.00    +0.210 HD
ENDBRANCH   6   7
BRANCH   5   9
ATOM      9  O   UNL     1       5.560  -2.447  22.892  0.00  0.00    -0.384 OA
ATOM     10  H   UNL     1       4.908  -1.804  23.231  0.00  0.00    +0.210 HD
ENDBRANCH   5   9
BRANCH   2  11
ATOM     11  C   UNL     1       8.264  -0.945  26.608  0.00  0.00    +0.190 C 
BRANCH  11  12
ATOM     12  O   UNL     1       7.957   0.440  26.781  0.00  0.00    -0.392 OA
ATOM     13  H   UNL     1       7.029   0.541  26.489  0.00  0.00    +0.210 HD
ENDBRANCH  11  12
ENDBRANCH   2  11
BRANCH   4  14
ATOM     14  O   UNL     1       7.938   0.217  24.001  0.00  0.00    -0.340 OA
BRANCH  14  15
ATOM     15  C   UNL     1       8.235   1.340  23.157  0.00  0.00    +0.183 C 
ATOM     16  C   UNL     1       9.414   2.038  23.860  0.00  0.00    +0.174 C 
ATOM     17  O   UNL     1       9.054   2.886  24.955  0.00  0.00    -0.382 OA
ATOM     18  C   UNL     1       7.948   3.782  24.770  0.00  0.00    +0.061 C 
ATOM     19  O   UNL     1       8.321   4.749  23.951  0.00  0.00    -0.831 OA
ATOM     20  C   UNL     1       6.698   3.064  24.187  0.00  0.00    +0.209 C 
ATOM     21  F   UNL     1       6.166   2.219  25.121  0.00  0.00    -0.241 F 
ATOM     22  C   UNL     1       7.036   2.255  22.932  0.00  0.00    +0.181 C 
BRANCH  22  23
ATOM     23  O   UNL     1       7.317   3.119  21.817  0.00  0.00    -0.386 OA
ATOM     24  H   UNL     1       8.000   3.748  22.174  0.00  0.00    +0.210 HD
ENDBRANCH  22  23
BRANCH  16  25
ATOM     25  C   UNL     1      10.452   2.670  22.916  0.00  0.00    +0.190 C 
BRANCH  25  26
ATOM     26  O   UNL     1      10.102   2.307  21.574  0.00  0.00    -0.392 OA
ATOM     27  H   UNL     1      10.509   3.024  21.042  0.00  0.00    +0.210 HD
ENDBRANCH  25  26
ENDBRANCH  16  25
ENDBRANCH  14  15
ENDBRANCH   4  14
BRANCH   1  28
ATOM     28  O   UNL     1       6.375  -3.957  25.322  0.00  0.00    -0.340 OA
BRANCH  28  33
ATOM     29  C   UNL     1       4.621  -6.405  26.248  0.00  0.00    +0.178 C 
ATOM     30  C   UNL     1       4.790  -6.258  27.775  0.00  0.00    +0.177 C 
ATOM     31  C   UNL     1       5.697  -5.087  28.192  0.00  0.00    +0.179 C 
ATOM     32  C   UNL     1       6.997  -5.108  27.386  0.00  0.00    +0.201 C 
ATOM     33  C   UNL     1       6.733  -5.225  25.872  0.00  0.00    +0.282 C 
ATOM     34  O   UNL     1       5.838  -6.265  25.506  0.00  0.00    -0.341 OA
BRANCH  30  35
ATOM     35  O   UNL     1       5.340  -7.489  28.288  0.00  0.00    -0.386 OA
ATOM     36  H   UNL     1       4.715  -8.210  28.058  0.00  0.00    +0.210 HD
ENDBRANCH  30  35
BRANCH  31  37
ATOM     37  O   UNL     1       5.057  -3.815  28.143  0.00  0.00    -0.386 OA
ATOM     38  H   UNL     1       5.564  -3.218  27.552  0.00  0.00    +0.210 HD
ENDBRANCH  31  37
BRANCH  32  39
ATOM     39  O   UNL     1       7.779  -6.239  27.829  0.00  0.00    -0.384 OA
ATOM     40  H   UNL     1       8.703  -6.071  27.563  0.00  0.00    +0.210 HD
ENDBRANCH  32  39
BRANCH  29  41
ATOM     41  C   UNL     1       3.500  -5.531  25.669  0.00  0.00    +0.190 C 
BRANCH  41  42
ATOM     42  O   UNL     1       2.649  -5.015  26.682  0.00  0.00    -0.392 OA
ATOM     43  H   UNL     1       3.240  -4.588  27.331  0.00  0.00    +0.210 HD
ENDBRANCH  41  42
ENDBRANCH  29  41
ENDBRANCH  28  33
ENDBRANCH   1  28
TORSDOF 16
ENDMDL
MODEL 9
REMARK VINA RESULT:      -6.3      2.418      7.900
REMARK  Name = 
REMARK  16 active torsions:
REMARK  status: ('A' for Active; 'I' for Inactive)
REMARK    1  A    between atoms: O_1  and  C_2
REMARK    2  A    between atoms: C_2  and  C_3
REMARK    3  A    between atoms: C_6  and  O_8
REMARK    4  A    between atoms: O_8  and  C_9
REMARK    5  A    between atoms: C_11  and  O_13
REMARK    6  A    between atoms: C_14  and  O_16
REMARK    7  A    between atoms: C_17  and  O_19
REMARK    8  A    between atoms: O_19  and  C_20
REMARK    9  A    between atoms: C_22  and  O_24
REMARK   10  A    between atoms: C_32  and  C_34
REMARK   11  A    between atoms: C_34  and  O_35
REMARK   12  A    between atoms: C_37  and  C_39
REMARK   13  A    between atoms: C_39  and  O_40
REMARK   14  A    between atoms: C_41  and  O_43
REMARK   15  A    between atoms: C_44  and  O_46
REMARK   16  A    between atoms: C_47  and  O_49
REMARK                            x       y       z     vdW  Elec       q    Type
REMARK                         _______ _______ _______ _____ _____    ______ ____
ROOT
ATOM      1  C   UNL     1       6.487  -3.588  24.489  0.00  0.00    +0.183 C 
ATOM      2  C   UNL     1       7.831  -3.261  25.188  0.00  0.00    +0.178 C 
ATOM      3  O   UNL     1       7.734  -2.194  26.143  0.00  0.00    -0.341 OA
ATOM      4  C   UNL     1       7.180  -0.963  25.637  0.00  0.00    +0.282 C 
ATOM      5  C   UNL     1       5.726  -1.239  25.203  0.00  0.00    +0.201 C 
ATOM      6  C   UNL     1       5.670  -2.327  24.119  0.00  0.00    +0.179 C 
ENDROOT
BRANCH   6   7
ATOM      7  O   UNL     1       6.020  -1.861  22.819  0.00  0.00    -0.386 OA
ATOM      8  H   UNL     1       5.576  -2.403  22.148  0.00  0.00    +0.210 HD
ENDBRANCH   6   7
BRANCH   5   9
ATOM      9  O   UNL     1       4.944  -1.659  26.342  0.00  0.00    -0.384 OA
ATOM     10  H   UNL     1       4.010  -1.461  26.142  0.00  0.00    +0.210 HD
ENDBRANCH   5   9
BRANCH   2  11
ATOM     11  C   UNL     1       9.015  -3.162  24.208  0.00  0.00    +0.190 C 
BRANCH  11  12
ATOM     12  O   UNL     1       8.524  -2.875  22.898  0.00  0.00    -0.392 OA
ATOM     13  H   UNL     1       8.782  -3.640  22.348  0.00  0.00    +0.210 HD
ENDBRANCH  11  12
ENDBRANCH   2  11
BRANCH   4  14
ATOM     14  O   UNL     1       8.067  -0.487  24.652  0.00  0.00    -0.340 OA
BRANCH  14  15
ATOM     15  C   UNL     1       8.076   0.902  24.287  0.00  0.00    +0.183 C 
ATOM     16  C   UNL     1       7.867   0.891  22.761  0.00  0.00    +0.174 C 
ATOM     17  O   UNL     1       9.041   0.623  21.988  0.00  0.00    -0.382 OA
ATOM     18  C   UNL     1      10.249   1.311  22.348  0.00  0.00    +0.061 C 
ATOM     19  O   UNL     1      10.130   2.581  22.002  0.00  0.00    -0.831 OA
ATOM     20  C   UNL     1      10.550   1.217  23.871  0.00  0.00    +0.209 C 
ATOM     21  F   UNL     1      10.899  -0.063  24.200  0.00  0.00    -0.241 F 
ATOM     22  C   UNL     1       9.344   1.628  24.720  0.00  0.00    +0.181 C 
BRANCH  22  23
ATOM     23  O   UNL     1       9.114   3.046  24.642  0.00  0.00    -0.386 OA
ATOM     24  H   UNL     1       8.332   3.189  25.242  0.00  0.00    +0.210 HD
ENDBRANCH  22  23
BRANCH  16  25
ATOM     25  C   UNL     1       7.029   2.058  22.211  0.00  0.00    +0.190 C 
BRANCH  25  26
ATOM     26  O   UNL     1       5.667   1.842  22.604  0.00  0.00    -0.392 OA
ATOM     27  H   UNL     1       5.758   1.473  23.509  0.00  0.00    +0.210 HD
ENDBRANCH  25  26
ENDBRANCH  16  25
ENDBRANCH  14  15
ENDBRANCH   4  14
BRANCH   1  28
ATOM     28  O   UNL     1       5.616  -4.378  25.338  0.00  0.00    -0.340 OA
BRANCH  28  33
ATOM     29  C   UNL     1       4.418  -6.955  26.697  0.00  0.00    +0.178 C 
ATOM     30  C   UNL     1       4.721  -6.612  28.170  0.00  0.00    +0.177 C 
ATOM     31  C   UNL     1       5.450  -5.271  28.362  0.00  0.00    +0.179 C 
ATOM     32  C   UNL     1       6.642  -5.174  27.407  0.00  0.00    +0.201 C 
ATOM     33  C   UNL     1       6.243  -5.502  25.955  0.00  0.00    +0.282 C 
ATOM     34  O   UNL     1       5.508  -6.706  25.800  0.00  0.00    -0.341 OA
BRANCH  30  35
ATOM     35  O   UNL     1       5.525  -7.673  28.724  0.00  0.00    -0.386 OA
ATOM     36  H   UNL     1       5.346  -8.483  28.200  0.00  0.00    +0.210 HD
ENDBRANCH  30  35
BRANCH  31  37
ATOM     37  O   UNL     1       4.600  -4.133  28.273  0.00  0.00    -0.386 OA
ATOM     38  H   UNL     1       5.127  -3.352  27.998  0.00  0.00    +0.210 HD
ENDBRANCH  31  37
BRANCH  32  39
ATOM     39  O   UNL     1       7.650  -6.109  27.854  0.00  0.00    -0.384 OA
ATOM     40  H   UNL     1       7.315  -6.521  28.674  0.00  0.00    +0.210 HD
ENDBRANCH  32  39
BRANCH  29  41
ATOM     41  C   UNL     1       3.109  -6.342  26.181  0.00  0.00    +0.190 C 
BRANCH  41  42
ATOM     42  O   UNL     1       3.141  -6.115  24.781  0.00  0.00    -0.392 OA
ATOM     43  H   UNL     1       4.042  -6.361  24.494  0.00  0.00    +0.210 HD
ENDBRANCH  41  42
ENDBRANCH  29  41
ENDBRANCH  28  33
ENDBRANCH   1  28
TORSDOF 16
ENDMDL
