MODEL 1
REMARK VINA RESULT:      -6.7      0.000      0.000
REMARK  Name = 
REMARK  21 active torsions:
REMARK  status: ('A' for Active; 'I' for Inactive)
REMARK    1  A    between atoms: O_1  and  C_2
REMARK    2  A    between atoms: C_2  and  C_3
REMARK    3  A    between atoms: C_6  and  O_8
REMARK    4  A    between atoms: C_9  and  O_11
REMARK    5  A    between atoms: C_12  and  O_14
REMARK    6  A    between atoms: O_14  and  C_15
REMARK    7  A    between atoms: C_18  and  C_20
REMARK    8  A    between atoms: C_20  and  O_21
REMARK    9  A    between atoms: C_22  and  O_24
REMARK   10  A    between atoms: C_25  and  O_27
REMARK   11  A    between atoms: O_27  and  C_28
REMARK   12  A    between atoms: C_31  and  C_33
REMARK   13  A    between atoms: C_33  and  O_34
REMARK   14  A    between atoms: O_34  and  P_35
REMARK   15  A    between atoms: P_35  and  O_36
REMARK   16  A    between atoms: P_35  and  O_37
REMARK   17  A    between atoms: C_39  and  O_41
REMARK   18  A    between atoms: C_42  and  O_44
REMARK   19  A    between atoms: C_45  and  O_47
REMARK   20  A    between atoms: C_48  and  O_50
REMARK   21  A    between atoms: C_51  and  O_53
REMARK                            x       y       z     vdW  Elec       q    Type
REMARK                         _______ _______ _______ _____ _____    ______ ____
ROOT
ATOM      1  C   UNL     1       8.555  -2.473  25.261  0.00  0.00    +0.282 C 
ATOM      2  C   UNL     1       8.821  -3.295  23.972  0.00  0.00    +0.202 C 
ATOM      3  C   UNL     1       8.440  -4.774  24.170  0.00  0.00    +0.186 C 
ATOM      4  C   UNL     1       9.189  -5.323  25.391  0.00  0.00    +0.177 C 
ATOM      5  C   UNL     1       8.876  -4.469  26.641  0.00  0.00    +0.178 C 
ATOM      6  O   UNL     1       9.108  -3.066  26.440  0.00  0.00    -0.341 OA
ENDROOT
BRANCH   4   7
ATOM      7  O   UNL     1      10.601  -5.321  25.111  0.00  0.00    -0.386 OA
ATOM      8  H   UNL     1      10.844  -4.404  24.882  0.00  0.00    +0.210 HD
ENDBRANCH   4   7
BRANCH   2   9
ATOM      9  O   UNL     1      10.192  -3.165  23.544  0.00  0.00    -0.384 OA
ATOM     10  H   UNL     1      10.556  -4.065  23.419  0.00  0.00    +0.210 HD
ENDBRANCH   2   9
BRANCH   3  11
ATOM     11  O   UNL     1       7.058  -5.045  24.413  0.00  0.00    -0.340 OA
BRANCH  11  12
ATOM     12  C   UNL     1       6.219  -5.138  23.278  0.00  0.00    +0.282 C 
ATOM     13  C   UNL     1       5.335  -3.863  23.202  0.00  0.00    +0.201 C 
ATOM     14  C   UNL     1       4.024  -3.942  24.003  0.00  0.00    +0.179 C 
ATOM     15  C   UNL     1       3.411  -5.347  23.999  0.00  0.00    +0.177 C 
ATOM     16  C   UNL     1       4.463  -6.445  24.250  0.00  0.00    +0.179 C 
ATOM     17  O   UNL     1       5.512  -6.367  23.281  0.00  0.00    -0.340 OA
BRANCH  15  18
ATOM     18  O   UNL     1       2.827  -5.567  22.699  0.00  0.00    -0.386 OA
ATOM     19  H   UNL     1       1.938  -5.941  22.852  0.00  0.00    +0.210 HD
ENDBRANCH  15  18
BRANCH  14  20
ATOM     20  O   UNL     1       4.146  -3.445  25.338  0.00  0.00    -0.386 OA
ATOM     21  H   UNL     1       5.025  -3.655  25.706  0.00  0.00    +0.210 HD
ENDBRANCH  14  20
BRANCH  13  22
ATOM     22  O   UNL     1       5.034  -3.576  21.822  0.00  0.00    -0.384 OA
ATOM     23  H   UNL     1       5.888  -3.632  21.341  0.00  0.00    +0.210 HD
ENDBRANCH  13  22
BRANCH  16  24
ATOM     24  C   UNL     1       4.954  -6.538  25.708  0.00  0.00    +0.206 C 
BRANCH  24  25
ATOM     25  O   UNL     1       3.818  -6.321  26.498  0.00  0.00    -0.284 OA
BRANCH  25  26
ATOM     26  P   UNL     1       3.782  -6.780  28.166  0.00  0.00    +0.472 P 
ATOM     27  O   UNL     1       3.750  -7.190  29.658  0.00  0.00    -0.228 OA
BRANCH  26  28
ATOM     28  O   UNL     1       5.227  -7.489  27.886  0.00  0.00    -0.303 OA
ATOM     29  H   UNL     1       5.811  -7.206  28.616  0.00  0.00    +0.222 HD
ENDBRANCH  26  28
BRANCH  26  30
ATOM     30  O   UNL     1       4.397  -5.287  28.416  0.00  0.00    -0.303 OA
ATOM     31  H   UNL     1       4.009  -4.636  27.803  0.00  0.00    +0.222 HD
ENDBRANCH  26  30
ENDBRANCH  25  26
ENDBRANCH  24  25
ENDBRANCH  16  24
ENDBRANCH  11  12
ENDBRANCH   3  11
BRANCH   5  32
ATOM     32  C   UNL     1       7.496  -4.752  27.258  0.00  0.00    +0.190 C 
BRANCH  32  33
ATOM     33  O   UNL     1       7.488  -5.994  27.956  0.00  0.00    -0.392 OA
ATOM     34  H   UNL     1       8.403  -6.328  27.958  0.00  0.00    +0.210 HD
ENDBRANCH  32  33
ENDBRANCH   5  32
BRANCH   1  35
ATOM     35  O   UNL     1       7.150  -2.222  25.373  0.00  0.00    -0.340 OA
BRANCH  35  38
ATOM     36  C   UNL     1       6.358   1.265  23.950  0.00  0.00    +0.178 C 
ATOM     37  C   UNL     1       6.859  -0.186  23.900  0.00  0.00    +0.177 C 
ATOM     38  C   UNL     1       6.674  -0.864  25.278  0.00  0.00    +0.186 C 
ATOM     39  C   UNL     1       7.177   0.021  26.431  0.00  0.00    +0.201 C 
ATOM     40  C   UNL     1       6.721   1.484  26.264  0.00  0.00    +0.279 C 
ATOM     41  O   UNL     1       7.060   1.980  24.979  0.00  0.00    -0.341 OA
BRANCH  40  42
ATOM     42  O   UNL     1       7.337   2.284  27.267  0.00  0.00    -0.365 OA
ATOM     43  H   UNL     1       8.193   2.571  26.898  0.00  0.00    +0.213 HD
ENDBRANCH  40  42
BRANCH  39  44
ATOM     44  O   UNL     1       6.697  -0.443  27.712  0.00  0.00    -0.384 OA
ATOM     45  H   UNL     1       5.739  -0.609  27.642  0.00  0.00    +0.210 HD
ENDBRANCH  39  44
BRANCH  37  46
ATOM     46  O   UNL     1       6.186  -0.932  22.884  0.00  0.00    -0.386 OA
ATOM     47  H   UNL     1       6.532  -1.844  22.871  0.00  0.00    +0.210 HD
ENDBRANCH  37  46
BRANCH  36  48
ATOM     48  C   UNL     1       6.583   1.995  22.621  0.00  0.00    +0.190 C 
BRANCH  48  49
ATOM     49  O   UNL     1       7.689   1.404  21.935  0.00  0.00    -0.392 OA
ATOM     50  H   UNL     1       8.457   1.975  22.132  0.00  0.00    +0.210 HD
ENDBRANCH  48  49
ENDBRANCH  36  48
ENDBRANCH  35  38
ENDBRANCH   1  35
TORSDOF 21
ENDMDL
MODEL 2
REMARK VINA RESULT:      -6.6      2.359      5.446
REMARK  Name = 
REMARK  21 active torsions:
REMARK  status: ('A' for Active; 'I' for Inactive)
REMARK    1  A    between atoms: O_1  and  C_2
REMARK    2  A    between atoms: C_2  and  C_3
REMARK    3  A    between atoms: C_6  and  O_8
REMARK    4  A    between atoms: C_9  and  O_11
REMARK    5  A    between atoms: C_12  and  O_14
REMARK    6  A    between atoms: O_14  and  C_15
REMARK    7  A    between atoms: C_18  and  C_20
REMARK    8  A    between atoms: C_20  and  O_21
REMARK    9  A    between atoms: C_22  and  O_24
REMARK   10  A    between atoms: C_25  and  O_27
REMARK   11  A    between atoms: O_27  and  C_28
REMARK   12  A    between atoms: C_31  and  C_33
REMARK   13  A    between atoms: C_33  and  O_34
REMARK   14  A    between atoms: O_34  and  P_35
REMARK   15  A    between atoms: P_35  and  O_36
REMARK   16  A    between atoms: P_35  and  O_37
REMARK   17  A    between atoms: C_39  and  O_41
REMARK   18  A    between atoms: C_42  and  O_44
REMARK   19  A    between atoms: C_45  and  O_47
REMARK   20  A    between atoms: C_48  and  O_50
REMARK   21  A    between atoms: C_51  and  O_53
REMARK                            x       y       z     vdW  Elec       q    Type
REMARK                         _______ _______ _______ _____ _____    ______ ____
ROOT
ATOM      1  C   UNL     1       5.736  -5.318  27.879  0.00  0.00    +0.282 C 
ATOM      2  C   UNL     1       5.001  -6.654  27.590  0.00  0.00    +0.202 C 
ATOM      3  C   UNL     1       3.474  -6.452  27.562  0.00  0.00    +0.186 C 
ATOM      4  C   UNL     1       3.034  -5.803  28.880  0.00  0.00    +0.177 C 
ATOM      5  C   UNL     1       3.793  -4.475  29.105  0.00  0.00    +0.178 C 
ATOM      6  O   UNL     1       5.219  -4.617  29.014  0.00  0.00    -0.341 OA
ENDROOT
BRANCH   4   7
ATOM      7  O   UNL     1       3.283  -6.724  29.959  0.00  0.00    -0.386 OA
ATOM      8  H   UNL     1       3.069  -7.616  29.624  0.00  0.00    +0.210 HD
ENDBRANCH   4   7
BRANCH   2   9
ATOM      9  O   UNL     1       5.373  -7.671  28.542  0.00  0.00    -0.384 OA
ATOM     10  H   UNL     1       5.509  -7.237  29.410  0.00  0.00    +0.210 HD
ENDBRANCH   2   9
BRANCH   3  11
ATOM     11  O   UNL     1       2.967  -5.605  26.528  0.00  0.00    -0.340 OA
BRANCH  11  12
ATOM     12  C   UNL     1       1.777  -6.026  25.889  0.00  0.00    +0.282 C 
ATOM     13  C   UNL     1       1.964  -7.486  25.394  0.00  0.00    +0.201 C 
ATOM     14  C   UNL     1       2.595  -7.615  23.996  0.00  0.00    +0.179 C 
ATOM     15  C   UNL     1       2.162  -6.492  23.046  0.00  0.00    +0.177 C 
ATOM     16  C   UNL     1       2.205  -5.107  23.720  0.00  0.00    +0.179 C 
ATOM     17  O   UNL     1       1.390  -5.093  24.894  0.00  0.00    -0.340 OA
BRANCH  15  18
ATOM     18  O   UNL     1       0.803  -6.759  22.643  0.00  0.00    -0.386 OA
ATOM     19  H   UNL     1       0.741  -7.722  22.493  0.00  0.00    +0.210 HD
ENDBRANCH  15  18
BRANCH  14  20
ATOM     20  O   UNL     1       4.019  -7.734  24.028  0.00  0.00    -0.386 OA
ATOM     21  H   UNL     1       4.355  -8.088  23.183  0.00  0.00    +0.210 HD
ENDBRANCH  14  20
BRANCH  13  22
ATOM     22  O   UNL     1       0.689  -8.157  25.406  0.00  0.00    -0.384 OA
ATOM     23  H   UNL     1       0.418  -8.241  24.466  0.00  0.00    +0.210 HD
ENDBRANCH  13  22
BRANCH  16  24
ATOM     24  C   UNL     1       3.624  -4.542  23.927  0.00  0.00    +0.206 C 
BRANCH  24  25
ATOM     25  O   UNL     1       4.206  -4.517  22.653  0.00  0.00    -0.284 OA
BRANCH  25  26
ATOM     26  P   UNL     1       5.852  -4.986  22.407  0.00  0.00    +0.472 P 
ATOM     27  O   UNL     1       7.327  -5.405  22.188  0.00  0.00    -0.228 OA
BRANCH  26  28
ATOM     28  O   UNL     1       5.251  -6.227  21.533  0.00  0.00    -0.303 OA
ATOM     29  H   UNL     1       4.990  -5.848  20.671  0.00  0.00    +0.222 HD
ENDBRANCH  26  28
BRANCH  26  30
ATOM     30  O   UNL     1       5.802  -3.905  21.183  0.00  0.00    -0.303 OA
ATOM     31  H   UNL     1       5.232  -4.218  20.457  0.00  0.00    +0.222 HD
ENDBRANCH  26  30
ENDBRANCH  25  26
ENDBRANCH  24  25
ENDBRANCH  16  24
ENDBRANCH  11  12
ENDBRANCH   3  11
BRANCH   5  32
ATOM     32  C   UNL     1       3.265  -3.306  28.259  0.00  0.00    +0.190 C 
BRANCH  32  33
ATOM     33  O   UNL     1       4.273  -2.319  28.058  0.00  0.00    -0.392 OA
ATOM     34  H   UNL     1       4.238  -2.060  27.120  0.00  0.00    +0.210 HD
ENDBRANCH  32  33
ENDBRANCH   5  32
BRANCH   1  35
ATOM     35  O   UNL     1       5.741  -4.521  26.690  0.00  0.00    -0.340 OA
BRANCH  35  38
ATOM     36  C   UNL     1       8.250  -2.327  24.765  0.00  0.00    +0.178 C 
ATOM     37  C   UNL     1       6.858  -2.815  25.192  0.00  0.00    +0.177 C 
ATOM     38  C   UNL     1       6.985  -3.945  26.241  0.00  0.00    +0.186 C 
ATOM     39  C   UNL     1       8.013  -5.010  25.823  0.00  0.00    +0.201 C 
ATOM     40  C   UNL     1       9.302  -4.369  25.273  0.00  0.00    +0.279 C 
ATOM     41  O   UNL     1       9.009  -3.432  24.249  0.00  0.00    -0.341 OA
BRANCH  40  42
ATOM     42  O   UNL     1      10.152  -5.391  24.762  0.00  0.00    -0.365 OA
ATOM     43  H   UNL     1       9.774  -6.236  25.069  0.00  0.00    +0.213 HD
ENDBRANCH  40  42
BRANCH  39  44
ATOM     44  O   UNL     1       8.385  -5.860  26.931  0.00  0.00    -0.384 OA
ATOM     45  H   UNL     1       9.282  -5.614  27.221  0.00  0.00    +0.210 HD
ENDBRANCH  39  44
BRANCH  37  46
ATOM     46  O   UNL     1       6.068  -1.742  25.709  0.00  0.00    -0.386 OA
ATOM     47  H   UNL     1       6.166  -1.707  26.678  0.00  0.00    +0.210 HD
ENDBRANCH  37  46
BRANCH  36  48
ATOM     48  C   UNL     1       8.172  -1.251  23.677  0.00  0.00    +0.190 C 
BRANCH  48  49
ATOM     49  O   UNL     1       7.053  -1.513  22.827  0.00  0.00    -0.392 OA
ATOM     50  H   UNL     1       7.431  -1.831  21.984  0.00  0.00    +0.210 HD
ENDBRANCH  48  49
ENDBRANCH  36  48
ENDBRANCH  35  38
ENDBRANCH   1  35
TORSDOF 21
ENDMDL
MODEL 3
REMARK VINA RESULT:      -6.6      2.222      5.120
REMARK  Name = 
REMARK  21 active torsions:
REMARK  status: ('A' for Active; 'I' for Inactive)
REMARK    1  A    between atoms: O_1  and  C_2
REMARK    2  A    between atoms: C_2  and  C_3
REMARK    3  A    between atoms: C_6  and  O_8
REMARK    4  A    between atoms: C_9  and  O_11
REMARK    5  A    between atoms: C_12  and  O_14
REMARK    6  A    between atoms: O_14  and  C_15
REMARK    7  A    between atoms: C_18  and  C_20
REMARK    8  A    between atoms: C_20  and  O_21
REMARK    9  A    between atoms: C_22  and  O_24
REMARK   10  A    between atoms: C_25  and  O_27
REMARK   11  A    between atoms: O_27  and  C_28
REMARK   12  A    between atoms: C_31  and  C_33
REMARK   13  A    between atoms: C_33  and  O_34
REMARK   14  A    between atoms: O_34  and  P_35
REMARK   15  A    between atoms: P_35  and  O_36
REMARK   16  A    between atoms: P_35  and  O_37
REMARK   17  A    between atoms: C_39  and  O_41
REMARK   18  A    between atoms: C_42  and  O_44
REMARK   19  A    between atoms: C_45  and  O_47
REMARK   20  A    between atoms: C_48  and  O_50
REMARK   21  A    between atoms: C_51  and  O_53
REMARK                            x       y       z     vdW  Elec       q    Type
REMARK                         _______ _______ _______ _____ _____    ______ ____
ROOT
ATOM      1  C   UNL     1       4.506  -3.256  24.170  0.00  0.00    +0.282 C 
ATOM      2  C   UNL     1       3.446  -3.591  25.253  0.00  0.00    +0.202 C 
ATOM      3  C   UNL     1       3.358  -5.110  25.492  0.00  0.00    +0.186 C 
ATOM      4  C   UNL     1       3.084  -5.809  24.154  0.00  0.00    +0.177 C 
ATOM      5  C   UNL     1       4.177  -5.444  23.123  0.00  0.00    +0.178 C 
ATOM      6  O   UNL     1       4.362  -4.028  22.974  0.00  0.00    -0.341 OA
ENDROOT
BRANCH   4   7
ATOM      7  O   UNL     1       1.782  -5.416  23.681  0.00  0.00    -0.386 OA
ATOM      8  H   UNL     1       1.739  -5.660  22.737  0.00  0.00    +0.210 HD
ENDBRANCH   4   7
BRANCH   2   9
ATOM      9  O   UNL     1       2.157  -3.044  24.908  0.00  0.00    -0.384 OA
ATOM     10  H   UNL     1       1.480  -3.503  25.447  0.00  0.00    +0.210 HD
ENDBRANCH   2   9
BRANCH   3  11
ATOM     11  O   UNL     1       4.529  -5.737  26.019  0.00  0.00    -0.340 OA
BRANCH  11  12
ATOM     12  C   UNL     1       4.343  -6.610  27.117  0.00  0.00    +0.282 C 
ATOM     13  C   UNL     1       3.532  -5.869  28.214  0.00  0.00    +0.201 C 
ATOM     14  C   UNL     1       4.382  -5.044  29.195  0.00  0.00    +0.179 C 
ATOM     15  C   UNL     1       5.736  -5.697  29.498  0.00  0.00    +0.177 C 
ATOM     16  C   UNL     1       6.429  -6.224  28.226  0.00  0.00    +0.179 C 
ATOM     17  O   UNL     1       5.584  -7.150  27.540  0.00  0.00    -0.340 OA
BRANCH  15  18
ATOM     18  O   UNL     1       5.498  -6.813  30.380  0.00  0.00    -0.386 OA
ATOM     19  H   UNL     1       4.705  -7.271  30.042  0.00  0.00    +0.210 HD
ENDBRANCH  15  18
BRANCH  14  20
ATOM     20  O   UNL     1       4.553  -3.684  28.790  0.00  0.00    -0.386 OA
ATOM     21  H   UNL     1       4.279  -3.074  29.501  0.00  0.00    +0.210 HD
ENDBRANCH  14  20
BRANCH  13  22
ATOM     22  O   UNL     1       2.747  -6.827  28.952  0.00  0.00    -0.384 OA
ATOM     23  H   UNL     1       3.380  -7.314  29.523  0.00  0.00    +0.210 HD
ENDBRANCH  13  22
BRANCH  16  24
ATOM     24  C   UNL     1       7.030  -5.126  27.326  0.00  0.00    +0.206 C 
BRANCH  24  25
ATOM     25  O   UNL     1       7.671  -5.808  26.284  0.00  0.00    -0.284 OA
BRANCH  25  26
ATOM     26  P   UNL     1       9.043  -5.131  25.476  0.00  0.00    +0.472 P 
ATOM     27  O   UNL     1      10.270  -4.525  24.753  0.00  0.00    -0.228 OA
BRANCH  26  28
ATOM     28  O   UNL     1       9.612  -4.790  26.969  0.00  0.00    -0.303 OA
ATOM     29  H   UNL     1       9.479  -5.600  27.498  0.00  0.00    +0.222 HD
ENDBRANCH  26  28
BRANCH  26  30
ATOM     30  O   UNL     1       9.584  -6.672  25.461  0.00  0.00    -0.303 OA
ATOM     31  H   UNL     1      10.172  -6.834  24.701  0.00  0.00    +0.222 HD
ENDBRANCH  26  30
ENDBRANCH  25  26
ENDBRANCH  24  25
ENDBRANCH  16  24
ENDBRANCH  11  12
ENDBRANCH   3  11
BRANCH   5  32
ATOM     32  C   UNL     1       5.505  -6.189  23.333  0.00  0.00    +0.190 C 
BRANCH  32  33
ATOM     33  O   UNL     1       6.561  -5.577  22.598  0.00  0.00    -0.392 OA
ATOM     34  H   UNL     1       6.917  -6.251  21.993  0.00  0.00    +0.210 HD
ENDBRANCH  32  33
ENDBRANCH   5  32
BRANCH   1  35
ATOM     35  O   UNL     1       5.812  -3.364  24.746  0.00  0.00    -0.340 OA
BRANCH  35  38
ATOM     36  C   UNL     1       8.758  -1.281  23.404  0.00  0.00    +0.178 C 
ATOM     37  C   UNL     1       7.801  -2.482  23.455  0.00  0.00    +0.177 C 
ATOM     38  C   UNL     1       6.745  -2.279  24.568  0.00  0.00    +0.186 C 
ATOM     39  C   UNL     1       7.380  -1.821  25.891  0.00  0.00    +0.201 C 
ATOM     40  C   UNL     1       8.431  -0.717  25.665  0.00  0.00    +0.279 C 
ATOM     41  O   UNL     1       9.381  -1.109  24.687  0.00  0.00    -0.341 OA
BRANCH  40  42
ATOM     42  O   UNL     1       9.091  -0.440  26.895  0.00  0.00    -0.365 OA
ATOM     43  H   UNL     1       9.249  -1.304  27.319  0.00  0.00    +0.213 HD
ENDBRANCH  40  42
BRANCH  39  44
ATOM     44  O   UNL     1       6.391  -1.303  26.809  0.00  0.00    -0.384 OA
ATOM     45  H   UNL     1       6.027  -2.047  27.323  0.00  0.00    +0.210 HD
ENDBRANCH  39  44
BRANCH  37  46
ATOM     46  O   UNL     1       7.162  -2.690  22.194  0.00  0.00    -0.386 OA
ATOM     47  H   UNL     1       7.256  -3.625  21.935  0.00  0.00    +0.210 HD
ENDBRANCH  37  46
BRANCH  36  48
ATOM     48  C   UNL     1       9.861  -1.471  22.358  0.00  0.00    +0.190 C 
BRANCH  48  49
ATOM     49  O   UNL     1       9.414  -0.964  21.099  0.00  0.00    -0.392 OA
ATOM     50  H   UNL     1       9.276  -1.748  20.533  0.00  0.00    +0.210 HD
ENDBRANCH  48  49
ENDBRANCH  36  48
ENDBRANCH  35  38
ENDBRANCH   1  35
TORSDOF 21
ENDMDL
MODEL 4
REMARK VINA RESULT:      -6.5      2.098      3.617
REMARK  Name = 
REMARK  21 active torsions:
REMARK  status: ('A' for Active; 'I' for Inactive)
REMARK    1  A    between atoms: O_1  and  C_2
REMARK    2  A    between atoms: C_2  and  C_3
REMARK    3  A    between atoms: C_6  and  O_8
REMARK    4  A    between atoms: C_9  and  O_11
REMARK    5  A    between atoms: C_12  and  O_14
REMARK    6  A    between atoms: O_14  and  C_15
REMARK    7  A    between atoms: C_18  and  C_20
REMARK    8  A    between atoms: C_20  and  O_21
REMARK    9  A    between atoms: C_22  and  O_24
REMARK   10  A    between atoms: C_25  and  O_27
REMARK   11  A    between atoms: O_27  and  C_28
REMARK   12  A    between atoms: C_31  and  C_33
REMARK   13  A    between atoms: C_33  and  O_34
REMARK   14  A    between atoms: O_34  and  P_35
REMARK   15  A    between atoms: P_35  and  O_36
REMARK   16  A    between atoms: P_35  and  O_37
REMARK   17  A    between atoms: C_39  and  O_41
REMARK   18  A    between atoms: C_42  and  O_44
REMARK   19  A    between atoms: C_45  and  O_47
REMARK   20  A    between atoms: C_48  and  O_50
REMARK   21  A    between atoms: C_51  and  O_53
REMARK                            x       y       z     vdW  Elec       q    Type
REMARK                         _______ _______ _______ _____ _____    ______ ____
ROOT
ATOM      1  C   UNL     1       6.971  -2.615  22.624  0.00  0.00    +0.282 C 
ATOM      2  C   UNL     1       5.664  -3.345  22.215  0.00  0.00    +0.202 C 
ATOM      3  C   UNL     1       5.512  -4.677  22.972  0.00  0.00    +0.186 C 
ATOM      4  C   UNL     1       6.767  -5.528  22.739  0.00  0.00    +0.177 C 
ATOM      5  C   UNL     1       8.031  -4.752  23.174  0.00  0.00    +0.178 C 
ATOM      6  O   UNL     1       8.131  -3.452  22.573  0.00  0.00    -0.341 OA
ENDROOT
BRANCH   4   7
ATOM      7  O   UNL     1       6.838  -5.881  21.344  0.00  0.00    -0.386 OA
ATOM      8  H   UNL     1       6.127  -5.389  20.891  0.00  0.00    +0.210 HD
ENDBRANCH   4   7
BRANCH   2   9
ATOM      9  O   UNL     1       5.605  -3.549  20.788  0.00  0.00    -0.384 OA
ATOM     10  H   UNL     1       5.642  -2.671  20.356  0.00  0.00    +0.210 HD
ENDBRANCH   2   9
BRANCH   3  11
ATOM     11  O   UNL     1       5.368  -4.586  24.391  0.00  0.00    -0.340 OA
BRANCH  11  12
ATOM     12  C   UNL     1       4.923  -5.750  25.061  0.00  0.00    +0.282 C 
ATOM     13  C   UNL     1       3.834  -6.440  24.196  0.00  0.00    +0.201 C 
ATOM     14  C   UNL     1       2.403  -5.926  24.435  0.00  0.00    +0.179 C 
ATOM     15  C   UNL     1       2.148  -5.545  25.898  0.00  0.00    +0.177 C 
ATOM     16  C   UNL     1       3.307  -4.727  26.500  0.00  0.00    +0.179 C 
ATOM     17  O   UNL     1       4.538  -5.443  26.391  0.00  0.00    -0.340 OA
BRANCH  15  18
ATOM     18  O   UNL     1       2.015  -6.767  26.653  0.00  0.00    -0.386 OA
ATOM     19  H   UNL     1       2.429  -7.471  26.118  0.00  0.00    +0.210 HD
ENDBRANCH  15  18
BRANCH  14  20
ATOM     20  O   UNL     1       2.033  -4.859  23.560  0.00  0.00    -0.386 OA
ATOM     21  H   UNL     1       2.808  -4.533  23.065  0.00  0.00    +0.210 HD
ENDBRANCH  14  20
BRANCH  13  22
ATOM     22  O   UNL     1       3.874  -7.862  24.428  0.00  0.00    -0.384 OA
ATOM     23  H   UNL     1       4.525  -8.001  25.150  0.00  0.00    +0.210 HD
ENDBRANCH  13  22
BRANCH  16  24
ATOM     24  C   UNL     1       3.378  -3.266  26.012  0.00  0.00    +0.206 C 
BRANCH  24  25
ATOM     25  O   UNL     1       3.650  -2.503  27.155  0.00  0.00    -0.284 OA
BRANCH  25  26
ATOM     26  P   UNL     1       4.984  -1.403  27.204  0.00  0.00    +0.472 P 
ATOM     27  O   UNL     1       6.178  -0.418  27.248  0.00  0.00    -0.228 OA
BRANCH  26  28
ATOM     28  O   UNL     1       5.894  -2.660  26.695  0.00  0.00    -0.303 OA
ATOM     29  H   UNL     1       5.283  -3.417  26.609  0.00  0.00    +0.222 HD
ENDBRANCH  26  28
BRANCH  26  30
ATOM     30  O   UNL     1       4.471  -0.978  25.712  0.00  0.00    -0.303 OA
ATOM     31  H   UNL     1       4.000  -0.125  25.728  0.00  0.00    +0.222 HD
ENDBRANCH  26  30
ENDBRANCH  25  26
ENDBRANCH  24  25
ENDBRANCH  16  24
ENDBRANCH  11  12
ENDBRANCH   3  11
BRANCH   5  32
ATOM     32  C   UNL     1       8.243  -4.710  24.696  0.00  0.00    +0.190 C 
BRANCH  32  33
ATOM     33  O   UNL     1       9.551  -4.248  25.022  0.00  0.00    -0.392 OA
ATOM     34  H   UNL     1      10.108  -4.386  24.236  0.00  0.00    +0.210 HD
ENDBRANCH  32  33
ENDBRANCH   5  32
BRANCH   1  35
ATOM     35  O   UNL     1       6.783  -2.005  23.906  0.00  0.00    -0.340 OA
BRANCH  35  38
ATOM     36  C   UNL     1       8.175   1.545  23.382  0.00  0.00    +0.178 C 
ATOM     37  C   UNL     1       7.443   0.255  22.981  0.00  0.00    +0.177 C 
ATOM     38  C   UNL     1       7.408  -0.733  24.171  0.00  0.00    +0.186 C 
ATOM     39  C   UNL     1       8.783  -0.878  24.844  0.00  0.00    +0.201 C 
ATOM     40  C   UNL     1       9.465   0.490  25.043  0.00  0.00    +0.279 C 
ATOM     41  O   UNL     1       9.502   1.224  23.829  0.00  0.00    -0.341 OA
BRANCH  40  42
ATOM     42  O   UNL     1      10.789   0.288  25.525  0.00  0.00    -0.365 OA
ATOM     43  H   UNL     1      11.376   0.377  24.751  0.00  0.00    +0.213 HD
ENDBRANCH  40  42
BRANCH  39  44
ATOM     44  O   UNL     1       8.683  -1.511  26.138  0.00  0.00    -0.384 OA
ATOM     45  H   UNL     1       9.441  -2.115  26.246  0.00  0.00    +0.210 HD
ENDBRANCH  39  44
BRANCH  37  46
ATOM     46  O   UNL     1       6.117   0.532  22.525  0.00  0.00    -0.386 OA
ATOM     47  H   UNL     1       5.478   0.042  23.074  0.00  0.00    +0.210 HD
ENDBRANCH  37  46
BRANCH  36  48
ATOM     48  C   UNL     1       8.289   2.526  22.211  0.00  0.00    +0.190 C 
BRANCH  48  49
ATOM     49  O   UNL     1       9.445   2.208  21.433  0.00  0.00    -0.392 OA
ATOM     50  H   UNL     1       9.292   1.305  21.091  0.00  0.00    +0.210 HD
ENDBRANCH  48  49
ENDBRANCH  36  48
ENDBRANCH  35  38
ENDBRANCH   1  35
TORSDOF 21
ENDMDL
MODEL 5
REMARK VINA RESULT:      -6.4      2.500      7.162
REMARK  Name = 
REMARK  21 active torsions:
REMARK  status: ('A' for Active; 'I' for Inactive)
REMARK    1  A    between atoms: O_1  and  C_2
REMARK    2  A    between atoms: C_2  and  C_3
REMARK    3  A    between atoms: C_6  and  O_8
REMARK    4  A    between atoms: C_9  and  O_11
REMARK    5  A    between atoms: C_12  and  O_14
REMARK    6  A    between atoms: O_14  and  C_15
REMARK    7  A    between atoms: C_18  and  C_20
REMARK    8  A    between atoms: C_20  and  O_21
REMARK    9  A    between atoms: C_22  and  O_24
REMARK   10  A    between atoms: C_25  and  O_27
REMARK   11  A    between atoms: O_27  and  C_28
REMARK   12  A    between atoms: C_31  and  C_33
REMARK   13  A    between atoms: C_33  and  O_34
REMARK   14  A    between atoms: O_34  and  P_35
REMARK   15  A    between atoms: P_35  and  O_36
REMARK   16  A    between atoms: P_35  and  O_37
REMARK   17  A    between atoms: C_39  and  O_41
REMARK   18  A    between atoms: C_42  and  O_44
REMARK   19  A    between atoms: C_45  and  O_47
REMARK   20  A    between atoms: C_48  and  O_50
REMARK   21  A    between atoms: C_51  and  O_53
REMARK                            x       y       z     vdW  Elec       q    Type
REMARK                         _______ _______ _______ _____ _____    ______ ____
ROOT
ATOM      1  C   UNL     1       6.476  -4.669  25.305  0.00  0.00    +0.282 C 
ATOM      2  C   UNL     1       6.763  -4.105  26.722  0.00  0.00    +0.202 C 
ATOM      3  C   UNL     1       7.962  -3.137  26.701  0.00  0.00    +0.186 C 
ATOM      4  C   UNL     1       9.171  -3.855  26.090  0.00  0.00    +0.177 C 
ATOM      5  C   UNL     1       8.825  -4.384  24.679  0.00  0.00    +0.178 C 
ATOM      6  O   UNL     1       7.638  -5.191  24.653  0.00  0.00    -0.341 OA
ENDROOT
BRANCH   4   7
ATOM      7  O   UNL     1       9.561  -4.935  26.960  0.00  0.00    -0.386 OA
ATOM      8  H   UNL     1      10.134  -4.549  27.649  0.00  0.00    +0.210 HD
ENDBRANCH   4   7
BRANCH   2   9
ATOM      9  O   UNL     1       6.971  -5.167  27.674  0.00  0.00    -0.384 OA
ATOM     10  H   UNL     1       7.098  -4.762  28.557  0.00  0.00    +0.210 HD
ENDBRANCH   2   9
BRANCH   3  11
ATOM     11  O   UNL     1       7.797  -1.942  25.934  0.00  0.00    -0.340 OA
BRANCH  11  12
ATOM     12  C   UNL     1       8.369  -0.762  26.466  0.00  0.00    +0.282 C 
ATOM     13  C   UNL     1       7.304  -0.035  27.331  0.00  0.00    +0.201 C 
ATOM     14  C   UNL     1       6.390   0.927  26.551  0.00  0.00    +0.179 C 
ATOM     15  C   UNL     1       7.120   1.640  25.407  0.00  0.00    +0.177 C 
ATOM     16  C   UNL     1       8.003   0.678  24.588  0.00  0.00    +0.179 C 
ATOM     17  O   UNL     1       8.948   0.019  25.434  0.00  0.00    -0.340 OA
BRANCH  15  18
ATOM     18  O   UNL     1       7.969   2.650  25.990  0.00  0.00    -0.386 OA
ATOM     19  H   UNL     1       7.903   2.544  26.958  0.00  0.00    +0.210 HD
ENDBRANCH  15  18
BRANCH  14  20
ATOM     20  O   UNL     1       5.189   0.310  26.082  0.00  0.00    -0.386 OA
ATOM     21  H   UNL     1       4.587   0.974  25.695  0.00  0.00    +0.210 HD
ENDBRANCH  14  20
BRANCH  13  22
ATOM     22  O   UNL     1       7.964   0.687  28.389  0.00  0.00    -0.384 OA
ATOM     23  H   UNL     1       8.791   1.044  27.998  0.00  0.00    +0.210 HD
ENDBRANCH  13  22
BRANCH  16  24
ATOM     24  C   UNL     1       7.222  -0.268  23.654  0.00  0.00    +0.206 C 
BRANCH  24  25
ATOM     25  O   UNL     1       7.873  -0.193  22.417  0.00  0.00    -0.284 OA
BRANCH  25  26
ATOM     26  P   UNL     1       9.209   0.878  22.167  0.00  0.00    +0.472 P 
ATOM     27  O   UNL     1      10.403   1.837  21.944  0.00  0.00    -0.228 OA
BRANCH  26  28
ATOM     28  O   UNL     1       9.946  -0.389  21.448  0.00  0.00    -0.303 OA
ATOM     29  H   UNL     1       9.294  -1.117  21.452  0.00  0.00    +0.222 HD
ENDBRANCH  26  28
BRANCH  26  30
ATOM     30  O   UNL     1       8.375   1.337  20.839  0.00  0.00    -0.303 OA
ATOM     31  H   UNL     1       7.745   2.051  21.045  0.00  0.00    +0.222 HD
ENDBRANCH  26  30
ENDBRANCH  25  26
ENDBRANCH  24  25
ENDBRANCH  16  24
ENDBRANCH  11  12
ENDBRANCH   3  11
BRANCH   5  32
ATOM     32  C   UNL     1       8.818  -3.298  23.591  0.00  0.00    +0.190 C 
BRANCH  32  33
ATOM     33  O   UNL     1       9.904  -2.391  23.761  0.00  0.00    -0.392 OA
ATOM     34  H   UNL     1      10.134  -2.392  24.707  0.00  0.00    +0.210 HD
ENDBRANCH  32  33
ENDBRANCH   5  32
BRANCH   1  35
ATOM     35  O   UNL     1       5.809  -3.667  24.530  0.00  0.00    -0.340 OA
BRANCH  35  38
ATOM     36  C   UNL     1       1.976  -3.882  24.809  0.00  0.00    +0.178 C 
ATOM     37  C   UNL     1       3.401  -3.586  25.301  0.00  0.00    +0.177 C 
ATOM     38  C   UNL     1       4.425  -3.865  24.175  0.00  0.00    +0.186 C 
ATOM     39  C   UNL     1       4.179  -5.220  23.491  0.00  0.00    +0.201 C 
ATOM     40  C   UNL     1       2.682  -5.442  23.196  0.00  0.00    +0.279 C 
ATOM     41  O   UNL     1       1.897  -5.244  24.360  0.00  0.00    -0.341 OA
BRANCH  40  42
ATOM     42  O   UNL     1       2.493  -6.765  22.706  0.00  0.00    -0.365 OA
ATOM     43  H   UNL     1       2.790  -7.363  23.418  0.00  0.00    +0.213 HD
ENDBRANCH  40  42
BRANCH  39  44
ATOM     44  O   UNL     1       4.893  -5.327  22.240  0.00  0.00    -0.384 OA
ATOM     45  H   UNL     1       4.452  -6.000  21.689  0.00  0.00    +0.210 HD
ENDBRANCH  39  44
BRANCH  37  46
ATOM     46  O   UNL     1       3.521  -2.237  25.760  0.00  0.00    -0.386 OA
ATOM     47  H   UNL     1       2.804  -1.700  25.376  0.00  0.00    +0.210 HD
ENDBRANCH  37  46
BRANCH  36  48
ATOM     48  C   UNL     1       0.935  -3.680  25.914  0.00  0.00    +0.190 C 
BRANCH  48  49
ATOM     49  O   UNL     1       1.538  -3.921  27.187  0.00  0.00    -0.392 OA
ATOM     50  H   UNL     1       1.784  -3.041  27.533  0.00  0.00    +0.210 HD
ENDBRANCH  48  49
ENDBRANCH  36  48
ENDBRANCH  35  38
ENDBRANCH   1  35
TORSDOF 21
ENDMDL
MODEL 6
REMARK VINA RESULT:      -6.4      2.506      7.413
REMARK  Name = 
REMARK  21 active torsions:
REMARK  status: ('A' for Active; 'I' for Inactive)
REMARK    1  A    between atoms: O_1  and  C_2
REMARK    2  A    between atoms: C_2  and  C_3
REMARK    3  A    between atoms: C_6  and  O_8
REMARK    4  A    between atoms: C_9  and  O_11
REMARK    5  A    between atoms: C_12  and  O_14
REMARK    6  A    between atoms: O_14  and  C_15
REMARK    7  A    between atoms: C_18  and  C_20
REMARK    8  A    between atoms: C_20  and  O_21
REMARK    9  A    between atoms: C_22  and  O_24
REMARK   10  A    between atoms: C_25  and  O_27
REMARK   11  A    between atoms: O_27  and  C_28
REMARK   12  A    between atoms: C_31  and  C_33
REMARK   13  A    between atoms: C_33  and  O_34
REMARK   14  A    between atoms: O_34  and  P_35
REMARK   15  A    between atoms: P_35  and  O_36
REMARK   16  A    between atoms: P_35  and  O_37
REMARK   17  A    between atoms: C_39  and  O_41
REMARK   18  A    between atoms: C_42  and  O_44
REMARK   19  A    between atoms: C_45  and  O_47
REMARK   20  A    between atoms: C_48  and  O_50
REMARK   21  A    between atoms: C_51  and  O_53
REMARK                            x       y       z     vdW  Elec       q    Type
REMARK                         _______ _______ _______ _____ _____    ______ ____
ROOT
ATOM      1  C   UNL     1       6.676  -5.407  24.851  0.00  0.00    +0.282 C 
ATOM      2  C   UNL     1       7.474  -4.887  26.076  0.00  0.00    +0.202 C 
ATOM      3  C   UNL     1       8.187  -3.561  25.752  0.00  0.00    +0.186 C 
ATOM      4  C   UNL     1       9.067  -3.760  24.511  0.00  0.00    +0.177 C 
ATOM      5  C   UNL     1       8.215  -4.268  23.325  0.00  0.00    +0.178 C 
ATOM      6  O   UNL     1       7.443  -5.436  23.643  0.00  0.00    -0.341 OA
ENDROOT
BRANCH   4   7
ATOM      7  O   UNL     1      10.114  -4.696  24.827  0.00  0.00    -0.386 OA
ATOM      8  H   UNL     1       9.969  -5.482  24.267  0.00  0.00    +0.210 HD
ENDBRANCH   4   7
BRANCH   2   9
ATOM      9  O   UNL     1       8.409  -5.878  26.549  0.00  0.00    -0.384 OA
ATOM     10  H   UNL     1       9.141  -5.936  25.901  0.00  0.00    +0.210 HD
ENDBRANCH   2   9
BRANCH   3  11
ATOM     11  O   UNL     1       7.345  -2.446  25.452  0.00  0.00    -0.340 OA
BRANCH  11  12
ATOM     12  C   UNL     1       6.636  -1.875  26.535  0.00  0.00    +0.282 C 
ATOM     13  C   UNL     1       5.301  -1.287  26.004  0.00  0.00    +0.201 C 
ATOM     14  C   UNL     1       5.396   0.160  25.488  0.00  0.00    +0.179 C 
ATOM     15  C   UNL     1       6.388   1.010  26.290  0.00  0.00    +0.177 C 
ATOM     16  C   UNL     1       7.709   0.265  26.564  0.00  0.00    +0.179 C 
ATOM     17  O   UNL     1       7.460  -0.966  27.246  0.00  0.00    -0.340 OA
BRANCH  15  18
ATOM     18  O   UNL     1       5.773   1.324  27.556  0.00  0.00    -0.386 OA
ATOM     19  H   UNL     1       6.419   1.083  28.247  0.00  0.00    +0.210 HD
ENDBRANCH  15  18
BRANCH  14  20
ATOM     20  O   UNL     1       5.671   0.243  24.088  0.00  0.00    -0.386 OA
ATOM     21  H   UNL     1       5.517  -0.618  23.654  0.00  0.00    +0.210 HD
ENDBRANCH  14  20
BRANCH  13  22
ATOM     22  O   UNL     1       4.305  -1.357  27.044  0.00  0.00    -0.384 OA
ATOM     23  H   UNL     1       3.615  -1.975  26.718  0.00  0.00    +0.210 HD
ENDBRANCH  13  22
BRANCH  16  24
ATOM     24  C   UNL     1       8.634   0.134  25.338  0.00  0.00    +0.206 C 
BRANCH  24  25
ATOM     25  O   UNL     1       8.464   1.321  24.614  0.00  0.00    -0.284 OA
BRANCH  25  26
ATOM     26  P   UNL     1       9.327   1.608  23.143  0.00  0.00    +0.472 P 
ATOM     27  O   UNL     1      10.099   1.865  21.825  0.00  0.00    -0.228 OA
BRANCH  26  28
ATOM     28  O   UNL     1      10.035   0.160  23.407  0.00  0.00    -0.303 OA
ATOM     29  H   UNL     1       9.413  -0.510  23.064  0.00  0.00    +0.222 HD
ENDBRANCH  26  28
BRANCH  26  30
ATOM     30  O   UNL     1       7.990   0.991  22.435  0.00  0.00    -0.303 OA
ATOM     31  H   UNL     1       8.083   0.034  22.274  0.00  0.00    +0.222 HD
ENDBRANCH  26  30
ENDBRANCH  25  26
ENDBRANCH  24  25
ENDBRANCH  16  24
ENDBRANCH  11  12
ENDBRANCH   3  11
BRANCH   5  32
ATOM     32  C   UNL     1       7.370  -3.174  22.652  0.00  0.00    +0.190 C 
BRANCH  32  33
ATOM     33  O   UNL     1       8.098  -1.954  22.543  0.00  0.00    -0.392 OA
ATOM     34  H   UNL     1       7.638  -1.403  21.885  0.00  0.00    +0.210 HD
ENDBRANCH  32  33
ENDBRANCH   5  32
BRANCH   1  35
ATOM     35  O   UNL     1       5.470  -4.648  24.722  0.00  0.00    -0.340 OA
BRANCH  35  38
ATOM     36  C   UNL     1       2.570  -6.402  26.547  0.00  0.00    +0.178 C 
ATOM     37  C   UNL     1       3.918  -5.673  26.437  0.00  0.00    +0.177 C 
ATOM     38  C   UNL     1       4.206  -5.300  24.964  0.00  0.00    +0.186 C 
ATOM     39  C   UNL     1       3.958  -6.479  24.008  0.00  0.00    +0.201 C 
ATOM     40  C   UNL     1       2.641  -7.208  24.338  0.00  0.00    +0.279 C 
ATOM     41  O   UNL     1       2.586  -7.569  25.709  0.00  0.00    -0.341 OA
BRANCH  40  42
ATOM     42  O   UNL     1       2.536  -8.374  23.528  0.00  0.00    -0.365 OA
ATOM     43  H   UNL     1       1.872  -8.170  22.843  0.00  0.00    +0.213 HD
ENDBRANCH  40  42
BRANCH  39  44
ATOM     44  O   UNL     1       3.887  -6.048  22.631  0.00  0.00    -0.384 OA
ATOM     45  H   UNL     1       4.624  -6.457  22.141  0.00  0.00    +0.210 HD
ENDBRANCH  39  44
BRANCH  37  46
ATOM     46  O   UNL     1       3.945  -4.506  27.261  0.00  0.00    -0.386 OA
ATOM     47  H   UNL     1       3.908  -4.771  28.198  0.00  0.00    +0.210 HD
ENDBRANCH  37  46
BRANCH  36  48
ATOM     48  C   UNL     1       2.275  -6.848  27.983  0.00  0.00    +0.190 C 
BRANCH  48  49
ATOM     49  O   UNL     1       3.489  -7.263  28.612  0.00  0.00    -0.392 OA
ATOM     50  H   UNL     1       3.408  -6.991  29.547  0.00  0.00    +0.210 HD
ENDBRANCH  48  49
ENDBRANCH  36  48
ENDBRANCH  35  38
ENDBRANCH   1  35
TORSDOF 21
ENDMDL
MODEL 7
REMARK VINA RESULT:      -6.3      3.708      8.462
REMARK  Name = 
REMARK  21 active torsions:
REMARK  status: ('A' for Active; 'I' for Inactive)
REMARK    1  A    between atoms: O_1  and  C_2
REMARK    2  A    between atoms: C_2  and  C_3
REMARK    3  A    between atoms: C_6  and  O_8
REMARK    4  A    between atoms: C_9  and  O_11
REMARK    5  A    between atoms: C_12  and  O_14
REMARK    6  A    between atoms: O_14  and  C_15
REMARK    7  A    between atoms: C_18  and  C_20
REMARK    8  A    between atoms: C_20  and  O_21
REMARK    9  A    between atoms: C_22  and  O_24
REMARK   10  A    between atoms: C_25  and  O_27
REMARK   11  A    between atoms: O_27  and  C_28
REMARK   12  A    between atoms: C_31  and  C_33
REMARK   13  A    between atoms: C_33  and  O_34
REMARK   14  A    between atoms: O_34  and  P_35
REMARK   15  A    between atoms: P_35  and  O_36
REMARK   16  A    between atoms: P_35  and  O_37
REMARK   17  A    between atoms: C_39  and  O_41
REMARK   18  A    between atoms: C_42  and  O_44
REMARK   19  A    between atoms: C_45  and  O_47
REMARK   20  A    between atoms: C_48  and  O_50
REMARK   21  A    between atoms: C_51  and  O_53
REMARK                            x       y       z     vdW  Elec       q    Type
REMARK                         _______ _______ _______ _____ _____    ______ ____
ROOT
ATOM      1  C   UNL     1       8.554  -1.213  24.258  0.00  0.00    +0.282 C 
ATOM      2  C   UNL     1       8.614  -0.188  25.423  0.00  0.00    +0.202 C 
ATOM      3  C   UNL     1       8.999   1.212  24.910  0.00  0.00    +0.186 C 
ATOM      4  C   UNL     1      10.319   1.113  24.137  0.00  0.00    +0.177 C 
ATOM      5  C   UNL     1      10.193   0.087  22.987  0.00  0.00    +0.178 C 
ATOM      6  O   UNL     1       9.716  -1.195  23.423  0.00  0.00    -0.341 OA
ENDROOT
BRANCH   4   7
ATOM      7  O   UNL     1      11.367   0.733  25.049  0.00  0.00    -0.386 OA
ATOM      8  H   UNL     1      11.115  -0.131  25.425  0.00  0.00    +0.210 HD
ENDBRANCH   4   7
BRANCH   2   9
ATOM      9  O   UNL     1       9.515  -0.628  26.459  0.00  0.00    -0.384 OA
ATOM     10  H   UNL     1      10.230  -1.148  26.037  0.00  0.00    +0.210 HD
ENDBRANCH   2   9
BRANCH   3  11
ATOM     11  O   UNL     1       8.075   1.835  24.015  0.00  0.00    -0.340 OA
BRANCH  11  12
ATOM     12  C   UNL     1       6.849   2.272  24.570  0.00  0.00    +0.282 C 
ATOM     13  C   UNL     1       5.747   2.184  23.480  0.00  0.00    +0.201 C 
ATOM     14  C   UNL     1       5.625   3.432  22.587  0.00  0.00    +0.179 C 
ATOM     15  C   UNL     1       5.903   4.733  23.348  0.00  0.00    +0.177 C 
ATOM     16  C   UNL     1       7.144   4.627  24.255  0.00  0.00    +0.179 C 
ATOM     17  O   UNL     1       7.002   3.544  25.177  0.00  0.00    -0.340 OA
BRANCH  15  18
ATOM     18  O   UNL     1       4.756   5.009  24.178  0.00  0.00    -0.386 OA
ATOM     19  H   UNL     1       4.797   5.958  24.403  0.00  0.00    +0.210 HD
ENDBRANCH  15  18
BRANCH  14  20
ATOM     20  O   UNL     1       6.419   3.357  21.401  0.00  0.00    -0.386 OA
ATOM     21  H   UNL     1       6.439   2.444  21.055  0.00  0.00    +0.210 HD
ENDBRANCH  14  20
BRANCH  13  22
ATOM     22  O   UNL     1       4.477   1.923  24.110  0.00  0.00    -0.384 OA
ATOM     23  H   UNL     1       4.666   1.327  24.866  0.00  0.00    +0.210 HD
ENDBRANCH  13  22
BRANCH  16  24
ATOM     24  C   UNL     1       8.489   4.645  23.502  0.00  0.00    +0.206 C 
BRANCH  24  25
ATOM     25  O   UNL     1       9.464   4.857  24.484  0.00  0.00    -0.284 OA
BRANCH  25  26
ATOM     26  P   UNL     1      11.037   5.451  24.076  0.00  0.00    +0.472 P 
ATOM     27  O   UNL     1      12.444   5.983  23.711  0.00  0.00    -0.228 OA
BRANCH  26  28
ATOM     28  O   UNL     1      11.160   4.137  23.114  0.00  0.00    -0.303 OA
ATOM     29  H   UNL     1      11.961   4.276  22.571  0.00  0.00    +0.222 HD
ENDBRANCH  26  28
BRANCH  26  30
ATOM     30  O   UNL     1      10.227   6.358  22.985  0.00  0.00    -0.303 OA
ATOM     31  H   UNL     1      10.486   6.131  22.073  0.00  0.00    +0.222 HD
ENDBRANCH  26  30
ENDBRANCH  25  26
ENDBRANCH  24  25
ENDBRANCH  16  24
ENDBRANCH  11  12
ENDBRANCH   3  11
BRANCH   5  32
ATOM     32  C   UNL     1       9.422   0.613  21.765  0.00  0.00    +0.190 C 
BRANCH  32  33
ATOM     33  O   UNL     1       9.762   1.968  21.485  0.00  0.00    -0.392 OA
ATOM     34  H   UNL     1      10.720   1.994  21.309  0.00  0.00    +0.210 HD
ENDBRANCH  32  33
ENDBRANCH   5  32
BRANCH   1  35
ATOM     35  O   UNL     1       7.341  -1.014  23.523  0.00  0.00    -0.340 OA
BRANCH  35  38
ATOM     36  C   UNL     1       4.459  -3.089  25.007  0.00  0.00    +0.178 C 
ATOM     37  C   UNL     1       5.519  -1.977  24.990  0.00  0.00    +0.177 C 
ATOM     38  C   UNL     1       6.284  -1.987  23.646  0.00  0.00    +0.186 C 
ATOM     39  C   UNL     1       6.735  -3.403  23.247  0.00  0.00    +0.201 C 
ATOM     40  C   UNL     1       5.613  -4.437  23.462  0.00  0.00    +0.279 C 
ATOM     41  O   UNL     1       5.092  -4.358  24.780  0.00  0.00    -0.341 OA
BRANCH  40  42
ATOM     42  O   UNL     1       6.128  -5.743  23.225  0.00  0.00    -0.365 OA
ATOM     43  H   UNL     1       7.091  -5.685  23.371  0.00  0.00    +0.213 HD
ENDBRANCH  40  42
BRANCH  39  44
ATOM     44  O   UNL     1       7.131  -3.468  21.859  0.00  0.00    -0.384 OA
ATOM     45  H   UNL     1       7.567  -4.326  21.703  0.00  0.00    +0.210 HD
ENDBRANCH  39  44
BRANCH  37  46
ATOM     46  O   UNL     1       4.929  -0.695  25.217  0.00  0.00    -0.386 OA
ATOM     47  H   UNL     1       5.632  -0.025  25.292  0.00  0.00    +0.210 HD
ENDBRANCH  37  46
BRANCH  36  48
ATOM     48  C   UNL     1       3.720  -3.156  26.348  0.00  0.00    +0.190 C 
BRANCH  48  49
ATOM     49  O   UNL     1       2.676  -2.181  26.365  0.00  0.00    -0.392 OA
ATOM     50  H   UNL     1       1.930  -2.584  25.879  0.00  0.00    +0.210 HD
ENDBRANCH  48  49
ENDBRANCH  36  48
ENDBRANCH  35  38
ENDBRANCH   1  35
TORSDOF 21
ENDMDL
MODEL 8
REMARK VINA RESULT:      -6.3      3.152      7.730
REMARK  Name = 
REMARK  21 active torsions:
REMARK  status: ('A' for Active; 'I' for Inactive)
REMARK    1  A    between atoms: O_1  and  C_2
REMARK    2  A    between atoms: C_2  and  C_3
REMARK    3  A    between atoms: C_6  and  O_8
REMARK    4  A    between atoms: C_9  and  O_11
REMARK    5  A    between atoms: C_12  and  O_14
REMARK    6  A    between atoms: O_14  and  C_15
REMARK    7  A    between atoms: C_18  and  C_20
REMARK    8  A    between atoms: C_20  and  O_21
REMARK    9  A    between atoms: C_22  and  O_24
REMARK   10  A    between atoms: C_25  and  O_27
REMARK   11  A    between atoms: O_27  and  C_28
REMARK   12  A    between atoms: C_31  and  C_33
REMARK   13  A    between atoms: C_33  and  O_34
REMARK   14  A    between atoms: O_34  and  P_35
REMARK   15  A    between atoms: P_35  and  O_36
REMARK   16  A    between atoms: P_35  and  O_37
REMARK   17  A    between atoms: C_39  and  O_41
REMARK   18  A    between atoms: C_42  and  O_44
REMARK   19  A    between atoms: C_45  and  O_47
REMARK   20  A    between atoms: C_48  and  O_50
REMARK   21  A    between atoms: C_51  and  O_53
REMARK                            x       y       z     vdW  Elec       q    Type
REMARK                         _______ _______ _______ _____ _____    ______ ____
ROOT
ATOM      1  C   UNL     1       8.195  -1.273  24.719  0.00  0.00    +0.282 C 
ATOM      2  C   UNL     1       8.249   0.073  25.490  0.00  0.00    +0.202 C 
ATOM      3  C   UNL     1       8.987   1.151  24.673  0.00  0.00    +0.186 C 
ATOM      4  C   UNL     1      10.377   0.624  24.296  0.00  0.00    +0.177 C 
ATOM      5  C   UNL     1      10.256  -0.709  23.524  0.00  0.00    +0.178 C 
ATOM      6  O   UNL     1       9.467  -1.691  24.212  0.00  0.00    -0.341 OA
ENDROOT
BRANCH   4   7
ATOM      7  O   UNL     1      11.152   0.451  25.497  0.00  0.00    -0.386 OA
ATOM      8  H   UNL     1      11.191   1.322  25.937  0.00  0.00    +0.210 HD
ENDBRANCH   4   7
BRANCH   2   9
ATOM      9  O   UNL     1       8.850  -0.095  26.790  0.00  0.00    -0.384 OA
ATOM     10  H   UNL     1       8.232   0.268  27.457  0.00  0.00    +0.210 HD
ENDBRANCH   2   9
BRANCH   3  11
ATOM     11  O   UNL     1       8.376   1.540  23.441  0.00  0.00    -0.340 OA
BRANCH  11  12
ATOM     12  C   UNL     1       8.961   2.633  22.759  0.00  0.00    +0.282 C 
ATOM     13  C   UNL     1       9.261   3.760  23.784  0.00  0.00    +0.201 C 
ATOM     14  C   UNL     1       8.090   4.726  24.038  0.00  0.00    +0.179 C 
ATOM     15  C   UNL     1       7.253   4.984  22.780  0.00  0.00    +0.177 C 
ATOM     16  C   UNL     1       6.949   3.688  22.003  0.00  0.00    +0.179 C 
ATOM     17  O   UNL     1       8.161   3.016  21.653  0.00  0.00    -0.340 OA
BRANCH  15  18
ATOM     18  O   UNL     1       8.011   5.861  21.921  0.00  0.00    -0.386 OA
ATOM     19  H   UNL     1       7.551   5.872  21.059  0.00  0.00    +0.210 HD
ENDBRANCH  15  18
BRANCH  14  20
ATOM     20  O   UNL     1       7.258   4.330  25.130  0.00  0.00    -0.386 OA
ATOM     21  H   UNL     1       6.505   3.795  24.815  0.00  0.00    +0.210 HD
ENDBRANCH  14  20
BRANCH  13  22
ATOM     22  O   UNL     1      10.410   4.509  23.343  0.00  0.00    -0.384 OA
ATOM     23  H   UNL     1      10.820   3.980  22.625  0.00  0.00    +0.210 HD
ENDBRANCH  13  22
BRANCH  16  24
ATOM     24  C   UNL     1       5.890   2.782  22.662  0.00  0.00    +0.206 C 
BRANCH  24  25
ATOM     25  O   UNL     1       4.992   3.654  23.290  0.00  0.00    -0.284 OA
BRANCH  25  26
ATOM     26  P   UNL     1       3.786   3.069  24.383  0.00  0.00    +0.472 P 
ATOM     27  O   UNL     1       2.707   2.545  25.362  0.00  0.00    -0.228 OA
BRANCH  26  28
ATOM     28  O   UNL     1       2.891   2.760  23.053  0.00  0.00    -0.303 OA
ATOM     29  H   UNL     1       2.309   3.536  22.935  0.00  0.00    +0.222 HD
ENDBRANCH  26  28
BRANCH  26  30
ATOM     30  O   UNL     1       4.639   1.677  24.314  0.00  0.00    -0.303 OA
ATOM     31  H   UNL     1       5.588   1.849  24.178  0.00  0.00    +0.222 HD
ENDBRANCH  26  30
ENDBRANCH  25  26
ENDBRANCH  24  25
ENDBRANCH  16  24
ENDBRANCH  11  12
ENDBRANCH   3  11
BRANCH   5  32
ATOM     32  C   UNL     1       9.831  -0.542  22.056  0.00  0.00    +0.190 C 
BRANCH  32  33
ATOM     33  O   UNL     1       9.447  -1.790  21.485  0.00  0.00    -0.392 OA
ATOM     34  H   UNL     1      10.172  -2.418  21.653  0.00  0.00    +0.210 HD
ENDBRANCH  32  33
ENDBRANCH   5  32
BRANCH   1  35
ATOM     35  O   UNL     1       7.194  -1.187  23.699  0.00  0.00    -0.340 OA
BRANCH  35  38
ATOM     36  C   UNL     1       4.157  -3.201  24.937  0.00  0.00    +0.178 C 
ATOM     37  C   UNL     1       5.261  -2.137  25.025  0.00  0.00    +0.177 C 
ATOM     38  C   UNL     1       6.093  -2.118  23.721  0.00  0.00    +0.186 C 
ATOM     39  C   UNL     1       6.505  -3.531  23.277  0.00  0.00    +0.201 C 
ATOM     40  C   UNL     1       5.332  -4.525  23.387  0.00  0.00    +0.279 C 
ATOM     41  O   UNL     1       4.748  -4.485  24.680  0.00  0.00    -0.341 OA
BRANCH  40  42
ATOM     42  O   UNL     1       5.804  -5.839  23.113  0.00  0.00    -0.365 OA
ATOM     43  H   UNL     1       6.101  -5.833  22.183  0.00  0.00    +0.213 HD
ENDBRANCH  40  42
BRANCH  39  44
ATOM     44  O   UNL     1       6.969  -3.550  21.910  0.00  0.00    -0.384 OA
ATOM     45  H   UNL     1       6.355  -4.095  21.383  0.00  0.00    +0.210 HD
ENDBRANCH  39  44
BRANCH  37  46
ATOM     46  O   UNL     1       4.713  -0.842  25.285  0.00  0.00    -0.386 OA
ATOM     47  H   UNL     1       3.870  -0.939  25.765  0.00  0.00    +0.210 HD
ENDBRANCH  37  46
BRANCH  36  48
ATOM     48  C   UNL     1       3.348  -3.298  26.234  0.00  0.00    +0.190 C 
BRANCH  48  49
ATOM     49  O   UNL     1       2.359  -2.266  26.257  0.00  0.00    -0.392 OA
ATOM     50  H   UNL     1       2.414  -1.867  27.147  0.00  0.00    +0.210 HD
ENDBRANCH  48  49
ENDBRANCH  36  48
ENDBRANCH  35  38
ENDBRANCH   1  35
TORSDOF 21
ENDMDL
MODEL 9
REMARK VINA RESULT:      -6.3      2.586      7.551
REMARK  Name = 
REMARK  21 active torsions:
REMARK  status: ('A' for Active; 'I' for Inactive)
REMARK    1  A    between atoms: O_1  and  C_2
REMARK    2  A    between atoms: C_2  and  C_3
REMARK    3  A    between atoms: C_6  and  O_8
REMARK    4  A    between atoms: C_9  and  O_11
REMARK    5  A    between atoms: C_12  and  O_14
REMARK    6  A    between atoms: O_14  and  C_15
REMARK    7  A    between atoms: C_18  and  C_20
REMARK    8  A    between atoms: C_20  and  O_21
REMARK    9  A    between atoms: C_22  and  O_24
REMARK   10  A    between atoms: C_25  and  O_27
REMARK   11  A    between atoms: O_27  and  C_28
REMARK   12  A    between atoms: C_31  and  C_33
REMARK   13  A    between atoms: C_33  and  O_34
REMARK   14  A    between atoms: O_34  and  P_35
REMARK   15  A    between atoms: P_35  and  O_36
REMARK   16  A    between atoms: P_35  and  O_37
REMARK   17  A    between atoms: C_39  and  O_41
REMARK   18  A    between atoms: C_42  and  O_44
REMARK   19  A    between atoms: C_45  and  O_47
REMARK   20  A    between atoms: C_48  and  O_50
REMARK   21  A    between atoms: C_51  and  O_53
REMARK                            x       y       z     vdW  Elec       q    Type
REMARK                         _______ _______ _______ _____ _____    ______ ____
ROOT
ATOM      1  C   UNL     1       7.930  -4.618  24.417  0.00  0.00    +0.282 C 
ATOM      2  C   UNL     1       9.038  -3.634  24.880  0.00  0.00    +0.202 C 
ATOM      3  C   UNL     1       8.739  -2.199  24.407  0.00  0.00    +0.186 C 
ATOM      4  C   UNL     1       8.548  -2.207  22.885  0.00  0.00    +0.177 C 
ATOM      5  C   UNL     1       7.428  -3.196  22.489  0.00  0.00    +0.178 C 
ATOM      6  O   UNL     1       7.623  -4.514  23.024  0.00  0.00    -0.341 OA
ENDROOT
BRANCH   4   7
ATOM      7  O   UNL     1       9.795  -2.568  22.261  0.00  0.00    -0.386 OA
ATOM      8  H   UNL     1       9.640  -3.406  21.784  0.00  0.00    +0.210 HD
ENDBRANCH   4   7
BRANCH   2   9
ATOM      9  O   UNL     1      10.340  -4.067  24.435  0.00  0.00    -0.384 OA
ATOM     10  H   UNL     1      10.276  -4.285  23.482  0.00  0.00    +0.210 HD
ENDBRANCH   2   9
BRANCH   3  11
ATOM     11  O   UNL     1       7.561  -1.590  24.939  0.00  0.00    -0.340 OA
BRANCH  11  12
ATOM     12  C   UNL     1       7.735  -0.738  26.056  0.00  0.00    +0.282 C 
ATOM     13  C   UNL     1       6.339  -0.381  26.635  0.00  0.00    +0.201 C 
ATOM     14  C   UNL     1       5.668   0.842  25.984  0.00  0.00    +0.179 C 
ATOM     15  C   UNL     1       6.674   1.926  25.583  0.00  0.00    +0.177 C 
ATOM     16  C   UNL     1       7.916   1.341  24.882  0.00  0.00    +0.179 C 
ATOM     17  O   UNL     1       8.552   0.369  25.715  0.00  0.00    -0.340 OA
BRANCH  15  18
ATOM     18  O   UNL     1       7.105   2.592  26.788  0.00  0.00    -0.386 OA
ATOM     19  H   UNL     1       6.565   2.229  27.515  0.00  0.00    +0.210 HD
ENDBRANCH  15  18
BRANCH  14  20
ATOM     20  O   UNL     1       4.820   0.502  24.884  0.00  0.00    -0.386 OA
ATOM     21  H   UNL     1       5.292   0.614  24.037  0.00  0.00    +0.210 HD
ENDBRANCH  14  20
BRANCH  13  22
ATOM     22  O   UNL     1       6.457  -0.161  28.054  0.00  0.00    -0.384 OA
ATOM     23  H   UNL     1       7.345  -0.494  28.308  0.00  0.00    +0.210 HD
ENDBRANCH  13  22
BRANCH  16  24
ATOM     24  C   UNL     1       7.670   0.871  23.435  0.00  0.00    +0.206 C 
BRANCH  24  25
ATOM     25  O   UNL     1       8.335   1.799  22.623  0.00  0.00    -0.284 OA
BRANCH  25  26
ATOM     26  P   UNL     1       9.821   2.528  23.124  0.00  0.00    +0.472 P 
ATOM     27  O   UNL     1      11.152   3.181  23.572  0.00  0.00    -0.228 OA
BRANCH  26  28
ATOM     28  O   UNL     1      10.308   2.331  21.578  0.00  0.00    -0.303 OA
ATOM     29  H   UNL     1      11.284   2.386  21.594  0.00  0.00    +0.222 HD
ENDBRANCH  26  28
BRANCH  26  30
ATOM     30  O   UNL     1       9.030   3.931  22.852  0.00  0.00    -0.303 OA
ATOM     31  H   UNL     1       8.654   3.958  21.953  0.00  0.00    +0.222 HD
ENDBRANCH  26  30
ENDBRANCH  25  26
ENDBRANCH  24  25
ENDBRANCH  16  24
ENDBRANCH  11  12
ENDBRANCH   3  11
BRANCH   5  32
ATOM     32  C   UNL     1       6.009  -2.664  22.746  0.00  0.00    +0.190 C 
BRANCH  32  33
ATOM     33  O   UNL     1       5.023  -3.562  22.244  0.00  0.00    -0.392 OA
ATOM     34  H   UNL     1       4.436  -3.047  21.662  0.00  0.00    +0.210 HD
ENDBRANCH  32  33
ENDBRANCH   5  32
BRANCH   1  35
ATOM     35  O   UNL     1       6.780  -4.452  25.253  0.00  0.00    -0.340 OA
BRANCH  35  38
ATOM     36  C   UNL     1       4.052  -7.139  25.645  0.00  0.00    +0.178 C 
ATOM     37  C   UNL     1       4.715  -5.897  25.031  0.00  0.00    +0.177 C 
ATOM     38  C   UNL     1       6.077  -5.624  25.713  0.00  0.00    +0.186 C 
ATOM     39  C   UNL     1       5.981  -5.691  27.246  0.00  0.00    +0.201 C 
ATOM     40  C   UNL     1       5.157  -6.908  27.710  0.00  0.00    +0.279 C 
ATOM     41  O   UNL     1       3.896  -6.949  27.061  0.00  0.00    -0.341 OA
BRANCH  40  42
ATOM     42  O   UNL     1       4.971  -6.839  29.119  0.00  0.00    -0.365 OA
ATOM     43  H   UNL     1       4.100  -7.240  29.298  0.00  0.00    +0.213 HD
ENDBRANCH  40  42
BRANCH  39  44
ATOM     44  O   UNL     1       7.284  -5.784  27.862  0.00  0.00    -0.384 OA
ATOM     45  H   UNL     1       7.934  -5.358  27.274  0.00  0.00    +0.210 HD
ENDBRANCH  39  44
BRANCH  37  46
ATOM     46  O   UNL     1       4.885  -6.044  23.620  0.00  0.00    -0.386 OA
ATOM     47  H   UNL     1       5.291  -6.911  23.433  0.00  0.00    +0.210 HD
ENDBRANCH  37  46
BRANCH  36  48
ATOM     48  C   UNL     1       2.670  -7.408  25.043  0.00  0.00    +0.190 C 
BRANCH  48  49
ATOM     49  O   UNL     1       2.811  -8.200  23.861  0.00  0.00    -0.392 OA
ATOM     50  H   UNL     1       2.260  -7.763  23.184  0.00  0.00    +0.210 HD
ENDBRANCH  48  49
ENDBRANCH  36  48
ENDBRANCH  35  38
ENDBRANCH   1  35
TORSDOF 21
ENDMDL
