MODEL 1
REMARK VINA RESULT:      -7.7      0.000      0.000
REMARK  Name = 
REMARK  10 active torsions:
REMARK  status: ('A' for Active; 'I' for Inactive)
REMARK    1  A    between atoms: C_1  and  O_2
REMARK    2  A    between atoms: O_2  and  C_3
REMARK    3  A    between atoms: C_4  and  O_5
REMARK    4  A    between atoms: O_5  and  C_6
REMARK    5  A    between atoms: C_6  and  C_7
REMARK    6  A    between atoms: C_7  and  C_8
REMARK    7  A    between atoms: C_8  and  N_9
REMARK    8  A    between atoms: C_12  and  C_15
REMARK    9  A    between atoms: C_27  and  C_29
REMARK   10  A    between atoms: C_29  and  C_30
REMARK                            x       y       z     vdW  Elec       q    Type
REMARK                         _______ _______ _______ _____ _____    ______ ____
ROOT
ATOM      1  N   UNL     1       9.028  -1.442  23.904  0.00  0.00    -0.302 NA
ATOM      2  C   UNL     1       8.383  -1.121  22.629  0.00  0.00    +0.085 C 
ATOM      3  C   UNL     1       9.346  -0.507  21.621  0.00  0.00    +0.025 C 
ATOM      4  C   UNL     1       9.914   0.813  22.167  0.00  0.00    +0.044 C 
ATOM      5  C   UNL     1      10.612   0.491  23.506  0.00  0.00    +0.025 C 
ATOM      6  C   UNL     1       9.719  -0.288  24.484  0.00  0.00    +0.085 C 
ENDROOT
BRANCH   4   7
ATOM      7  C   UNL     1       8.843   1.884  22.240  0.00  0.00    +0.094 A 
ATOM      8  C   UNL     1       8.911   3.145  22.906  0.00  0.00    +0.045 A 
ATOM      9  C   UNL     1       9.800   3.824  23.762  0.00  0.00    +0.016 A 
ATOM     10  C   UNL     1       9.545   5.168  24.068  0.00  0.00    +0.039 A 
ATOM     11  C   UNL     1       8.415   5.808  23.546  0.00  0.00    +0.127 A 
ATOM     12  C   UNL     1       7.494   5.148  22.741  0.00  0.00    +0.088 A 
ATOM     13  F   UNL     1       8.231   7.106  23.818  0.00  0.00    -0.205 F 
ATOM     14  C   UNL     1       7.787   3.818  22.453  0.00  0.00    +0.170 A 
ATOM     15  O   UNL     1       7.046   2.982  21.680  0.00  0.00    -0.354 OA
ATOM     16  N   UNL     1       7.693   1.767  21.559  0.00  0.00    -0.082 NA
ENDBRANCH   4   7
BRANCH   1  17
ATOM     17  C   UNL     1       9.794  -2.687  23.827  0.00  0.00    +0.087 C 
BRANCH  17  18
ATOM     18  C   UNL     1       9.396  -3.751  24.858  0.00  0.00    +0.056 C 
BRANCH  18  19
ATOM     19  C   UNL     1       8.432  -4.836  24.363  0.00  0.00    +0.230 C 
BRANCH  19  20
ATOM     20  O   UNL     1       7.110  -4.347  24.121  0.00  0.00    -0.488 OA
BRANCH  20  26
ATOM     21  C   UNL     1       5.248  -5.454  23.161  0.00  0.00    +0.162 A 
ATOM     22  C   UNL     1       4.123  -6.279  23.281  0.00  0.00    +0.060 A 
ATOM     23  C   UNL     1       3.797  -6.862  24.512  0.00  0.00    +0.021 A 
ATOM     24  C   UNL     1       4.608  -6.633  25.623  0.00  0.00    +0.015 A 
ATOM     25  C   UNL     1       5.750  -5.837  25.500  0.00  0.00    +0.050 A 
ATOM     26  C   UNL     1       6.060  -5.216  24.285  0.00  0.00    +0.162 A 
BRANCH  23  27
ATOM     27  C   UNL     1       2.561  -7.685  24.593  0.00  0.00    +0.160 C 
ATOM     28  O   UNL     1       2.657  -8.891  24.824  0.00  0.00    -0.292 OA
ATOM     29  C   UNL     1       1.214  -7.027  24.442  0.00  0.00    +0.091 C 
ENDBRANCH  23  27
BRANCH  21  31
ATOM     30  C   UNL     1       6.101  -5.726  20.962  0.00  0.00    +0.277 C 
ATOM     31  O   UNL     1       5.628  -4.856  21.985  0.00  0.00    -0.491 OA
ENDBRANCH  21  31
ENDBRANCH  20  26
ENDBRANCH  19  20
ENDBRANCH  18  19
ENDBRANCH  17  18
ENDBRANCH   1  17
TORSDOF 8
ENDMDL
MODEL 2
REMARK VINA RESULT:      -7.6      0.961      1.898
REMARK  Name = 
REMARK  10 active torsions:
REMARK  status: ('A' for Active; 'I' for Inactive)
REMARK    1  A    between atoms: C_1  and  O_2
REMARK    2  A    between atoms: O_2  and  C_3
REMARK    3  A    between atoms: C_4  and  O_5
REMARK    4  A    between atoms: O_5  and  C_6
REMARK    5  A    between atoms: C_6  and  C_7
REMARK    6  A    between atoms: C_7  and  C_8
REMARK    7  A    between atoms: C_8  and  N_9
REMARK    8  A    between atoms: C_12  and  C_15
REMARK    9  A    between atoms: C_27  and  C_29
REMARK   10  A    between atoms: C_29  and  C_30
REMARK                            x       y       z     vdW  Elec       q    Type
REMARK                         _______ _______ _______ _____ _____    ______ ____
ROOT
ATOM      1  N   UNL     1       9.067  -1.420  23.977  0.00  0.00    -0.302 NA
ATOM      2  C   UNL     1       8.396  -1.115  22.712  0.00  0.00    +0.085 C 
ATOM      3  C   UNL     1       9.337  -0.508  21.679  0.00  0.00    +0.025 C 
ATOM      4  C   UNL     1       9.911   0.820  22.200  0.00  0.00    +0.044 C 
ATOM      5  C   UNL     1      10.636   0.515  23.529  0.00  0.00    +0.025 C 
ATOM      6  C   UNL     1       9.765  -0.258  24.532  0.00  0.00    +0.085 C 
ENDROOT
BRANCH   4   7
ATOM      7  C   UNL     1       8.838   1.888  22.283  0.00  0.00    +0.094 A 
ATOM      8  C   UNL     1       8.907   3.149  22.950  0.00  0.00    +0.045 A 
ATOM      9  C   UNL     1       9.801   3.829  23.799  0.00  0.00    +0.016 A 
ATOM     10  C   UNL     1       9.544   5.173  24.109  0.00  0.00    +0.039 A 
ATOM     11  C   UNL     1       8.409   5.809  23.596  0.00  0.00    +0.127 A 
ATOM     12  C   UNL     1       7.483   5.148  22.798  0.00  0.00    +0.088 A 
ATOM     13  F   UNL     1       8.223   7.107  23.872  0.00  0.00    -0.205 F 
ATOM     14  C   UNL     1       7.778   3.819  22.507  0.00  0.00    +0.170 A 
ATOM     15  O   UNL     1       7.033   2.981  21.739  0.00  0.00    -0.354 OA
ATOM     16  N   UNL     1       7.682   1.768  21.611  0.00  0.00    -0.082 NA
ENDBRANCH   4   7
BRANCH   1  17
ATOM     17  C   UNL     1       9.836  -2.663  23.899  0.00  0.00    +0.087 C 
BRANCH  17  18
ATOM     18  C   UNL     1       9.336  -3.787  24.816  0.00  0.00    +0.056 C 
BRANCH  18  19
ATOM     19  C   UNL     1       8.165  -4.619  24.278  0.00  0.00    +0.230 C 
BRANCH  19  20
ATOM     20  O   UNL     1       7.239  -5.010  25.294  0.00  0.00    -0.488 OA
BRANCH  20  26
ATOM     21  C   UNL     1       5.389  -6.392  25.829  0.00  0.00    +0.162 A 
ATOM     22  C   UNL     1       4.199  -7.033  25.465  0.00  0.00    +0.060 A 
ATOM     23  C   UNL     1       3.660  -6.857  24.184  0.00  0.00    +0.021 A 
ATOM     24  C   UNL     1       4.304  -6.024  23.269  0.00  0.00    +0.015 A 
ATOM     25  C   UNL     1       5.475  -5.356  23.639  0.00  0.00    +0.050 A 
ATOM     26  C   UNL     1       6.043  -5.559  24.902  0.00  0.00    +0.162 A 
BRANCH  23  27
ATOM     27  C   UNL     1       2.422  -7.604  23.835  0.00  0.00    +0.160 C 
ATOM     28  O   UNL     1       2.237  -8.720  24.320  0.00  0.00    -0.292 OA
ATOM     29  C   UNL     1       1.395  -6.967  22.934  0.00  0.00    +0.091 C 
ENDBRANCH  23  27
BRANCH  21  31
ATOM     30  C   UNL     1       5.086  -6.792  28.149  0.00  0.00    +0.277 C 
ATOM     31  O   UNL     1       5.969  -6.515  27.067  0.00  0.00    -0.491 OA
ENDBRANCH  21  31
ENDBRANCH  20  26
ENDBRANCH  19  20
ENDBRANCH  18  19
ENDBRANCH  17  18
ENDBRANCH   1  17
TORSDOF 8
ENDMDL
MODEL 3
REMARK VINA RESULT:      -7.6      1.824      2.823
REMARK  Name = 
REMARK  10 active torsions:
REMARK  status: ('A' for Active; 'I' for Inactive)
REMARK    1  A    between atoms: C_1  and  O_2
REMARK    2  A    between atoms: O_2  and  C_3
REMARK    3  A    between atoms: C_4  and  O_5
REMARK    4  A    between atoms: O_5  and  C_6
REMARK    5  A    between atoms: C_6  and  C_7
REMARK    6  A    between atoms: C_7  and  C_8
REMARK    7  A    between atoms: C_8  and  N_9
REMARK    8  A    between atoms: C_12  and  C_15
REMARK    9  A    between atoms: C_27  and  C_29
REMARK   10  A    between atoms: C_29  and  C_30
REMARK                            x       y       z     vdW  Elec       q    Type
REMARK                         _______ _______ _______ _____ _____    ______ ____
ROOT
ATOM      1  N   UNL     1       9.039  -0.368  24.116  0.00  0.00    -0.302 NA
ATOM      2  C   UNL     1       7.863   0.504  24.142  0.00  0.00    +0.085 C 
ATOM      3  C   UNL     1       7.556   1.117  22.782  0.00  0.00    +0.025 C 
ATOM      4  C   UNL     1       8.735   1.988  22.314  0.00  0.00    +0.044 C 
ATOM      5  C   UNL     1       9.983   1.080  22.267  0.00  0.00    +0.025 C 
ATOM      6  C   UNL     1      10.221   0.306  23.573  0.00  0.00    +0.085 C 
ENDROOT
BRANCH   4   7
ATOM      7  C   UNL     1       8.874   3.230  23.172  0.00  0.00    +0.094 A 
ATOM      8  C   UNL     1      10.065   3.959  23.469  0.00  0.00    +0.045 A 
ATOM      9  C   UNL     1      11.450   3.826  23.246  0.00  0.00    +0.016 A 
ATOM     10  C   UNL     1      12.291   4.897  23.582  0.00  0.00    +0.039 A 
ATOM     11  C   UNL     1      11.759   6.061  24.146  0.00  0.00    +0.127 A 
ATOM     12  C   UNL     1      10.404   6.200  24.424  0.00  0.00    +0.088 A 
ATOM     13  F   UNL     1      12.586   7.083  24.406  0.00  0.00    -0.205 F 
ATOM     14  C   UNL     1       9.602   5.119  24.069  0.00  0.00    +0.170 A 
ATOM     15  O   UNL     1       8.255   5.032  24.229  0.00  0.00    -0.354 OA
ATOM     16  N   UNL     1       7.799   3.846  23.687  0.00  0.00    -0.082 NA
ENDBRANCH   4   7
BRANCH   1  17
ATOM     17  C   UNL     1       8.729  -1.684  23.556  0.00  0.00    +0.087 C 
BRANCH  17  18
ATOM     18  C   UNL     1       9.778  -2.767  23.838  0.00  0.00    +0.056 C 
BRANCH  18  19
ATOM     19  C   UNL     1       9.375  -3.840  24.858  0.00  0.00    +0.230 C 
BRANCH  19  20
ATOM     20  O   UNL     1       8.909  -5.047  24.251  0.00  0.00    -0.488 OA
BRANCH  20  26
ATOM     21  C   UNL     1       6.778  -5.603  25.126  0.00  0.00    +0.162 A 
ATOM     22  C   UNL     1       5.407  -5.823  24.952  0.00  0.00    +0.060 A 
ATOM     23  C   UNL     1       4.810  -5.636  23.699  0.00  0.00    +0.021 A 
ATOM     24  C   UNL     1       5.584  -5.211  22.619  0.00  0.00    +0.015 A 
ATOM     25  C   UNL     1       6.948  -4.959  22.796  0.00  0.00    +0.050 A 
ATOM     26  C   UNL     1       7.560  -5.183  24.034  0.00  0.00    +0.162 A 
BRANCH  23  27
ATOM     27  C   UNL     1       3.360  -5.935  23.559  0.00  0.00    +0.160 C 
ATOM     28  O   UNL     1       2.628  -5.117  23.003  0.00  0.00    -0.292 OA
ATOM     29  C   UNL     1       2.819  -7.252  24.055  0.00  0.00    +0.091 C 
ENDBRANCH  23  27
BRANCH  21  31
ATOM     30  C   UNL     1       6.668  -5.453  27.493  0.00  0.00    +0.277 C 
ATOM     31  O   UNL     1       7.425  -5.761  26.327  0.00  0.00    -0.491 OA
ENDBRANCH  21  31
ENDBRANCH  20  26
ENDBRANCH  19  20
ENDBRANCH  18  19
ENDBRANCH  17  18
ENDBRANCH   1  17
TORSDOF 8
ENDMDL
MODEL 4
REMARK VINA RESULT:      -7.4      2.235      3.198
REMARK  Name = 
REMARK  10 active torsions:
REMARK  status: ('A' for Active; 'I' for Inactive)
REMARK    1  A    between atoms: C_1  and  O_2
REMARK    2  A    between atoms: O_2  and  C_3
REMARK    3  A    between atoms: C_4  and  O_5
REMARK    4  A    between atoms: O_5  and  C_6
REMARK    5  A    between atoms: C_6  and  C_7
REMARK    6  A    between atoms: C_7  and  C_8
REMARK    7  A    between atoms: C_8  and  N_9
REMARK    8  A    between atoms: C_12  and  C_15
REMARK    9  A    between atoms: C_27  and  C_29
REMARK   10  A    between atoms: C_29  and  C_30
REMARK                            x       y       z     vdW  Elec       q    Type
REMARK                         _______ _______ _______ _____ _____    ______ ____
ROOT
ATOM      1  N   UNL     1       8.646  -0.552  23.528  0.00  0.00    -0.302 NA
ATOM      2  C   UNL     1       7.532   0.397  23.583  0.00  0.00    +0.085 C 
ATOM      3  C   UNL     1       7.373   1.192  22.293  0.00  0.00    +0.025 C 
ATOM      4  C   UNL     1       8.640   2.020  22.020  0.00  0.00    +0.044 C 
ATOM      5  C   UNL     1       9.824   1.032  21.944  0.00  0.00    +0.025 C 
ATOM      6  C   UNL     1       9.908   0.091  23.155  0.00  0.00    +0.085 C 
ENDROOT
BRANCH   4   7
ATOM      7  C   UNL     1       8.796   3.136  23.035  0.00  0.00    +0.094 A 
ATOM      8  C   UNL     1       9.984   3.854  23.369  0.00  0.00    +0.045 A 
ATOM      9  C   UNL     1      11.357   3.797  23.059  0.00  0.00    +0.016 A 
ATOM     10  C   UNL     1      12.189   4.838  23.498  0.00  0.00    +0.039 A 
ATOM     11  C   UNL     1      11.660   5.895  24.246  0.00  0.00    +0.127 A 
ATOM     12  C   UNL     1      10.320   5.950  24.610  0.00  0.00    +0.088 A 
ATOM     13  F   UNL     1      12.475   6.896  24.604  0.00  0.00    -0.205 F 
ATOM     14  C   UNL     1       9.526   4.904  24.149  0.00  0.00    +0.170 A 
ATOM     15  O   UNL     1       8.193   4.753  24.365  0.00  0.00    -0.354 OA
ATOM     16  N   UNL     1       7.736   3.640  23.685  0.00  0.00    -0.082 NA
ENDBRANCH   4   7
BRANCH   1  17
ATOM     17  C   UNL     1       8.291  -1.763  22.786  0.00  0.00    +0.087 C 
BRANCH  17  18
ATOM     18  C   UNL     1       6.805  -2.141  22.844  0.00  0.00    +0.056 C 
BRANCH  18  19
ATOM     19  C   UNL     1       6.393  -3.364  22.017  0.00  0.00    +0.230 C 
BRANCH  19  20
ATOM     20  O   UNL     1       6.877  -4.598  22.554  0.00  0.00    -0.488 OA
BRANCH  20  26
ATOM     21  C   UNL     1       7.635  -5.106  24.741  0.00  0.00    +0.162 A 
ATOM     22  C   UNL     1       7.378  -5.486  26.063  0.00  0.00    +0.060 A 
ATOM     23  C   UNL     1       6.063  -5.675  26.507  0.00  0.00    +0.021 A 
ATOM     24  C   UNL     1       4.999  -5.466  25.630  0.00  0.00    +0.015 A 
ATOM     25  C   UNL     1       5.249  -5.054  24.317  0.00  0.00    +0.050 A 
ATOM     26  C   UNL     1       6.561  -4.905  23.853  0.00  0.00    +0.162 A 
BRANCH  23  27
ATOM     27  C   UNL     1       5.853  -6.130  27.907  0.00  0.00    +0.160 C 
ATOM     28  O   UNL     1       6.828  -6.283  28.642  0.00  0.00    -0.292 OA
ATOM     29  C   UNL     1       4.452  -6.349  28.418  0.00  0.00    +0.091 C 
ENDBRANCH  23  27
BRANCH  21  31
ATOM     30  C   UNL     1       9.892  -4.525  25.189  0.00  0.00    +0.277 C 
ATOM     31  O   UNL     1       8.897  -4.899  24.243  0.00  0.00    -0.491 OA
ENDBRANCH  21  31
ENDBRANCH  20  26
ENDBRANCH  19  20
ENDBRANCH  18  19
ENDBRANCH  17  18
ENDBRANCH   1  17
TORSDOF 8
ENDMDL
MODEL 5
REMARK VINA RESULT:      -7.4      3.824      9.947
REMARK  Name = 
REMARK  10 active torsions:
REMARK  status: ('A' for Active; 'I' for Inactive)
REMARK    1  A    between atoms: C_1  and  O_2
REMARK    2  A    between atoms: O_2  and  C_3
REMARK    3  A    between atoms: C_4  and  O_5
REMARK    4  A    between atoms: O_5  and  C_6
REMARK    5  A    between atoms: C_6  and  C_7
REMARK    6  A    between atoms: C_7  and  C_8
REMARK    7  A    between atoms: C_8  and  N_9
REMARK    8  A    between atoms: C_12  and  C_15
REMARK    9  A    between atoms: C_27  and  C_29
REMARK   10  A    between atoms: C_29  and  C_30
REMARK                            x       y       z     vdW  Elec       q    Type
REMARK                         _______ _______ _______ _____ _____    ______ ____
ROOT
ATOM      1  N   UNL     1       8.494  -2.402  23.681  0.00  0.00    -0.302 NA
ATOM      2  C   UNL     1       9.089  -2.753  24.972  0.00  0.00    +0.085 C 
ATOM      3  C   UNL     1       9.641  -4.173  24.999  0.00  0.00    +0.025 C 
ATOM      4  C   UNL     1       8.511  -5.186  24.749  0.00  0.00    +0.044 C 
ATOM      5  C   UNL     1       7.881  -4.839  23.382  0.00  0.00    +0.025 C 
ATOM      6  C   UNL     1       7.473  -3.363  23.259  0.00  0.00    +0.085 C 
ENDROOT
BRANCH   4   7
ATOM      7  C   UNL     1       7.541  -5.226  25.913  0.00  0.00    +0.094 A 
ATOM      8  C   UNL     1       6.184  -5.671  25.907  0.00  0.00    +0.045 A 
ATOM      9  C   UNL     1       5.233  -6.096  24.959  0.00  0.00    +0.016 A 
ATOM     10  C   UNL     1       4.015  -6.620  25.418  0.00  0.00    +0.039 A 
ATOM     11  C   UNL     1       3.752  -6.695  26.790  0.00  0.00    +0.127 A 
ATOM     12  C   UNL     1       4.651  -6.236  27.745  0.00  0.00    +0.088 A 
ATOM     13  F   UNL     1       2.599  -7.248  27.191  0.00  0.00    -0.205 F 
ATOM     14  C   UNL     1       5.850  -5.731  27.251  0.00  0.00    +0.170 A 
ATOM     15  O   UNL     1       6.881  -5.243  27.990  0.00  0.00    -0.354 OA
ATOM     16  N   UNL     1       7.932  -4.909  27.157  0.00  0.00    -0.082 NA
ENDBRANCH   4   7
BRANCH   1  17
ATOM     17  C   UNL     1       9.514  -2.060  22.688  0.00  0.00    +0.087 C 
BRANCH  17  18
ATOM     18  C   UNL     1       9.061  -1.053  21.623  0.00  0.00    +0.056 C 
BRANCH  18  19
ATOM     19  C   UNL     1       9.648   0.359  21.743  0.00  0.00    +0.230 C 
BRANCH  19  20
ATOM     20  O   UNL     1      10.157   0.648  23.047  0.00  0.00    -0.488 OA
BRANCH  20  26
ATOM     21  C   UNL     1       8.807   2.013  24.436  0.00  0.00    +0.162 A 
ATOM     22  C   UNL     1       8.468   3.268  24.955  0.00  0.00    +0.060 A 
ATOM     23  C   UNL     1       9.217   4.403  24.618  0.00  0.00    +0.021 A 
ATOM     24  C   UNL     1      10.319   4.280  23.772  0.00  0.00    +0.015 A 
ATOM     25  C   UNL     1      10.681   3.023  23.278  0.00  0.00    +0.050 A 
ATOM     26  C   UNL     1       9.914   1.891  23.575  0.00  0.00    +0.162 A 
BRANCH  23  27
ATOM     27  C   UNL     1       8.779   5.718  25.156  0.00  0.00    +0.160 C 
ATOM     28  O   UNL     1       8.218   5.764  26.250  0.00  0.00    -0.292 OA
ATOM     29  C   UNL     1       9.070   6.977  24.379  0.00  0.00    +0.091 C 
ENDBRANCH  23  27
BRANCH  21  31
ATOM     30  C   UNL     1       6.794   0.772  24.222  0.00  0.00    +0.277 C 
ATOM     31  O   UNL     1       8.121   0.861  24.730  0.00  0.00    -0.491 OA
ENDBRANCH  21  31
ENDBRANCH  20  26
ENDBRANCH  19  20
ENDBRANCH  18  19
ENDBRANCH  17  18
ENDBRANCH   1  17
TORSDOF 8
ENDMDL
MODEL 6
REMARK VINA RESULT:      -7.4      1.361      1.688
REMARK  Name = 
REMARK  10 active torsions:
REMARK  status: ('A' for Active; 'I' for Inactive)
REMARK    1  A    between atoms: C_1  and  O_2
REMARK    2  A    between atoms: O_2  and  C_3
REMARK    3  A    between atoms: C_4  and  O_5
REMARK    4  A    between atoms: O_5  and  C_6
REMARK    5  A    between atoms: C_6  and  C_7
REMARK    6  A    between atoms: C_7  and  C_8
REMARK    7  A    between atoms: C_8  and  N_9
REMARK    8  A    between atoms: C_12  and  C_15
REMARK    9  A    between atoms: C_27  and  C_29
REMARK   10  A    between atoms: C_29  and  C_30
REMARK                            x       y       z     vdW  Elec       q    Type
REMARK                         _______ _______ _______ _____ _____    ______ ____
ROOT
ATOM      1  N   UNL     1       9.153  -0.876  23.955  0.00  0.00    -0.302 NA
ATOM      2  C   UNL     1       7.927  -0.080  24.048  0.00  0.00    +0.085 C 
ATOM      3  C   UNL     1       7.523   0.536  22.714  0.00  0.00    +0.025 C 
ATOM      4  C   UNL     1       8.623   1.486  22.214  0.00  0.00    +0.044 C 
ATOM      5  C   UNL     1       9.922   0.659  22.095  0.00  0.00    +0.025 C 
ATOM      6  C   UNL     1      10.265  -0.120  23.375  0.00  0.00    +0.085 C 
ENDROOT
BRANCH   4   7
ATOM      7  C   UNL     1       8.723   2.720  23.088  0.00  0.00    +0.094 A 
ATOM      8  C   UNL     1       9.880   3.515  23.350  0.00  0.00    +0.045 A 
ATOM      9  C   UNL     1      11.259   3.470  23.069  0.00  0.00    +0.016 A 
ATOM     10  C   UNL     1      12.048   4.585  23.391  0.00  0.00    +0.039 A 
ATOM     11  C   UNL     1      11.470   5.705  23.998  0.00  0.00    +0.127 A 
ATOM     12  C   UNL     1      10.122   5.756  24.333  0.00  0.00    +0.088 A 
ATOM     13  F   UNL     1      12.244   6.771  24.244  0.00  0.00    -0.205 F 
ATOM     14  C   UNL     1       9.373   4.635  23.991  0.00  0.00    +0.170 A 
ATOM     15  O   UNL     1       8.042   4.463  24.204  0.00  0.00    -0.354 OA
ATOM     16  N   UNL     1       7.635   3.261  23.658  0.00  0.00    -0.082 NA
ENDBRANCH   4   7
BRANCH   1  17
ATOM     17  C   UNL     1       8.900  -2.199  23.383  0.00  0.00    +0.087 C 
BRANCH  17  18
ATOM     18  C   UNL     1       9.245  -3.375  24.306  0.00  0.00    +0.056 C 
BRANCH  18  19
ATOM     19  C   UNL     1       8.234  -4.529  24.327  0.00  0.00    +0.230 C 
BRANCH  19  20
ATOM     20  O   UNL     1       6.884  -4.099  24.141  0.00  0.00    -0.488 OA
BRANCH  20  26
ATOM     21  C   UNL     1       5.103  -5.265  23.100  0.00  0.00    +0.162 A 
ATOM     22  C   UNL     1       4.029  -6.161  23.163  0.00  0.00    +0.060 A 
ATOM     23  C   UNL     1       3.725  -6.824  24.359  0.00  0.00    +0.021 A 
ATOM     24  C   UNL     1       4.508  -6.603  25.492  0.00  0.00    +0.015 A 
ATOM     25  C   UNL     1       5.601  -5.734  25.425  0.00  0.00    +0.050 A 
ATOM     26  C   UNL     1       5.886  -5.036  24.246  0.00  0.00    +0.162 A 
BRANCH  23  27
ATOM     27  C   UNL     1       2.541  -7.723  24.381  0.00  0.00    +0.160 C 
ATOM     28  O   UNL     1       2.658  -8.860  24.839  0.00  0.00    -0.292 OA
ATOM     29  C   UNL     1       1.209  -7.216  23.891  0.00  0.00    +0.091 C 
ENDBRANCH  23  27
BRANCH  21  31
ATOM     30  C   UNL     1       6.190  -5.330  20.991  0.00  0.00    +0.277 C 
ATOM     31  O   UNL     1       5.459  -4.587  21.960  0.00  0.00    -0.491 OA
ENDBRANCH  21  31
ENDBRANCH  20  26
ENDBRANCH  19  20
ENDBRANCH  18  19
ENDBRANCH  17  18
ENDBRANCH   1  17
TORSDOF 8
ENDMDL
MODEL 7
REMARK VINA RESULT:      -7.4      2.104      3.328
REMARK  Name = 
REMARK  10 active torsions:
REMARK  status: ('A' for Active; 'I' for Inactive)
REMARK    1  A    between atoms: C_1  and  O_2
REMARK    2  A    between atoms: O_2  and  C_3
REMARK    3  A    between atoms: C_4  and  O_5
REMARK    4  A    between atoms: O_5  and  C_6
REMARK    5  A    between atoms: C_6  and  C_7
REMARK    6  A    between atoms: C_7  and  C_8
REMARK    7  A    between atoms: C_8  and  N_9
REMARK    8  A    between atoms: C_12  and  C_15
REMARK    9  A    between atoms: C_27  and  C_29
REMARK   10  A    between atoms: C_29  and  C_30
REMARK                            x       y       z     vdW  Elec       q    Type
REMARK                         _______ _______ _______ _____ _____    ______ ____
ROOT
ATOM      1  N   UNL     1       7.297  -2.060  22.769  0.00  0.00    -0.302 NA
ATOM      2  C   UNL     1       8.262  -1.043  22.348  0.00  0.00    +0.085 C 
ATOM      3  C   UNL     1       9.598  -1.164  23.070  0.00  0.00    +0.025 C 
ATOM      4  C   UNL     1       9.401  -0.979  24.584  0.00  0.00    +0.044 C 
ATOM      5  C   UNL     1       8.396  -2.055  25.049  0.00  0.00    +0.025 C 
ATOM      6  C   UNL     1       7.102  -2.075  24.220  0.00  0.00    +0.085 C 
ENDROOT
BRANCH   4   7
ATOM      7  C   UNL     1       9.016   0.449  24.917  0.00  0.00    +0.094 A 
ATOM      8  C   UNL     1       9.639   1.651  24.465  0.00  0.00    +0.045 A 
ATOM      9  C   UNL     1      10.779   2.018  23.724  0.00  0.00    +0.016 A 
ATOM     10  C   UNL     1      10.940   3.363  23.358  0.00  0.00    +0.039 A 
ATOM     11  C   UNL     1       9.992   4.316  23.745  0.00  0.00    +0.127 A 
ATOM     12  C   UNL     1       8.885   3.992  24.520  0.00  0.00    +0.088 A 
ATOM     13  F   UNL     1      10.152   5.581  23.334  0.00  0.00    -0.205 F 
ATOM     14  C   UNL     1       8.757   2.647  24.855  0.00  0.00    +0.170 A 
ATOM     15  O   UNL     1       7.755   2.095  25.588  0.00  0.00    -0.354 OA
ATOM     16  N   UNL     1       7.922   0.724  25.645  0.00  0.00    -0.082 NA
ENDBRANCH   4   7
BRANCH   1  17
ATOM     17  C   UNL     1       7.560  -3.353  22.136  0.00  0.00    +0.087 C 
BRANCH  17  18
ATOM     18  C   UNL     1       6.305  -4.127  21.710  0.00  0.00    +0.056 C 
BRANCH  18  19
ATOM     19  C   UNL     1       6.284  -5.618  22.067  0.00  0.00    +0.230 C 
BRANCH  19  20
ATOM     20  O   UNL     1       5.130  -6.001  22.820  0.00  0.00    -0.488 OA
BRANCH  20  26
ATOM     21  C   UNL     1       4.321  -6.969  24.826  0.00  0.00    +0.162 A 
ATOM     22  C   UNL     1       4.365  -7.109  26.218  0.00  0.00    +0.060 A 
ATOM     23  C   UNL     1       5.336  -6.435  26.970  0.00  0.00    +0.021 A 
ATOM     24  C   UNL     1       6.276  -5.631  26.326  0.00  0.00    +0.015 A 
ATOM     25  C   UNL     1       6.256  -5.515  24.933  0.00  0.00    +0.050 A 
ATOM     26  C   UNL     1       5.264  -6.151  24.178  0.00  0.00    +0.162 A 
BRANCH  23  27
ATOM     27  C   UNL     1       5.302  -6.578  28.450  0.00  0.00    +0.160 C 
ATOM     28  O   UNL     1       5.987  -7.449  28.985  0.00  0.00    -0.292 OA
ATOM     29  C   UNL     1       4.471  -5.628  29.273  0.00  0.00    +0.091 C 
ENDBRANCH  23  27
BRANCH  21  31
ATOM     30  C   UNL     1       2.330  -8.256  24.702  0.00  0.00    +0.277 C 
ATOM     31  O   UNL     1       3.401  -7.605  24.029  0.00  0.00    -0.491 OA
ENDBRANCH  21  31
ENDBRANCH  20  26
ENDBRANCH  19  20
ENDBRANCH  18  19
ENDBRANCH  17  18
ENDBRANCH   1  17
TORSDOF 8
ENDMDL
MODEL 8
REMARK VINA RESULT:      -7.3      3.741     10.234
REMARK  Name = 
REMARK  10 active torsions:
REMARK  status: ('A' for Active; 'I' for Inactive)
REMARK    1  A    between atoms: C_1  and  O_2
REMARK    2  A    between atoms: O_2  and  C_3
REMARK    3  A    between atoms: C_4  and  O_5
REMARK    4  A    between atoms: O_5  and  C_6
REMARK    5  A    between atoms: C_6  and  C_7
REMARK    6  A    between atoms: C_7  and  C_8
REMARK    7  A    between atoms: C_8  and  N_9
REMARK    8  A    between atoms: C_12  and  C_15
REMARK    9  A    between atoms: C_27  and  C_29
REMARK   10  A    between atoms: C_29  and  C_30
REMARK                            x       y       z     vdW  Elec       q    Type
REMARK                         _______ _______ _______ _____ _____    ______ ____
ROOT
ATOM      1  N   UNL     1       8.523  -2.371  24.130  0.00  0.00    -0.302 NA
ATOM      2  C   UNL     1       9.082  -2.864  25.391  0.00  0.00    +0.085 C 
ATOM      3  C   UNL     1       9.582  -4.300  25.291  0.00  0.00    +0.025 C 
ATOM      4  C   UNL     1       8.421  -5.242  24.930  0.00  0.00    +0.044 C 
ATOM      5  C   UNL     1       7.828  -4.745  23.593  0.00  0.00    +0.025 C 
ATOM      6  C   UNL     1       7.476  -3.250  23.604  0.00  0.00    +0.085 C 
ENDROOT
BRANCH   4   7
ATOM      7  C   UNL     1       7.430  -5.355  26.071  0.00  0.00    +0.094 A 
ATOM      8  C   UNL     1       6.059  -5.751  26.004  0.00  0.00    +0.045 A 
ATOM      9  C   UNL     1       5.111  -6.053  25.008  0.00  0.00    +0.016 A 
ATOM     10  C   UNL     1       3.869  -6.575  25.398  0.00  0.00    +0.039 A 
ATOM     11  C   UNL     1       3.579  -6.766  26.753  0.00  0.00    +0.127 A 
ATOM     12  C   UNL     1       4.476  -6.427  27.759  0.00  0.00    +0.088 A 
ATOM     13  F   UNL     1       2.402  -7.313  27.085  0.00  0.00    -0.205 F 
ATOM     14  C   UNL     1       5.700  -5.922  27.331  0.00  0.00    +0.170 A 
ATOM     15  O   UNL     1       6.732  -5.539  28.128  0.00  0.00    -0.354 OA
ATOM     16  N   UNL     1       7.808  -5.167  27.345  0.00  0.00    -0.082 NA
ENDBRANCH   4   7
BRANCH   1  17
ATOM     17  C   UNL     1       9.572  -1.976  23.189  0.00  0.00    +0.087 C 
BRANCH  17  18
ATOM     18  C   UNL     1       9.062  -1.496  21.824  0.00  0.00    +0.056 C 
BRANCH  18  19
ATOM     19  C   UNL     1       9.198   0.007  21.549  0.00  0.00    +0.230 C 
BRANCH  19  20
ATOM     20  O   UNL     1       8.458   0.817  22.467  0.00  0.00    -0.488 OA
BRANCH  20  26
ATOM     21  C   UNL     1       8.175   3.007  23.326  0.00  0.00    +0.162 A 
ATOM     22  C   UNL     1       8.707   4.233  23.740  0.00  0.00    +0.060 A 
ATOM     23  C   UNL     1      10.093   4.440  23.751  0.00  0.00    +0.021 A 
ATOM     24  C   UNL     1      10.950   3.411  23.362  0.00  0.00    +0.015 A 
ATOM     25  C   UNL     1      10.424   2.174  22.979  0.00  0.00    +0.050 A 
ATOM     26  C   UNL     1       9.040   1.972  22.924  0.00  0.00    +0.162 A 
BRANCH  23  27
ATOM     27  C   UNL     1      10.600   5.780  24.150  0.00  0.00    +0.160 C 
ATOM     28  O   UNL     1      11.746   6.105  23.842  0.00  0.00    -0.292 OA
ATOM     29  C   UNL     1       9.690   6.735  24.880  0.00  0.00    +0.091 C 
ENDBRANCH  23  27
BRANCH  21  31
ATOM     30  C   UNL     1       6.094   3.317  22.226  0.00  0.00    +0.277 C 
ATOM     31  O   UNL     1       6.830   2.736  23.297  0.00  0.00    -0.491 OA
ENDBRANCH  21  31
ENDBRANCH  20  26
ENDBRANCH  19  20
ENDBRANCH  18  19
ENDBRANCH  17  18
ENDBRANCH   1  17
TORSDOF 8
ENDMDL
MODEL 9
REMARK VINA RESULT:      -7.2      3.088      5.403
REMARK  Name = 
REMARK  10 active torsions:
REMARK  status: ('A' for Active; 'I' for Inactive)
REMARK    1  A    between atoms: C_1  and  O_2
REMARK    2  A    between atoms: O_2  and  C_3
REMARK    3  A    between atoms: C_4  and  O_5
REMARK    4  A    between atoms: O_5  and  C_6
REMARK    5  A    between atoms: C_6  and  C_7
REMARK    6  A    between atoms: C_7  and  C_8
REMARK    7  A    between atoms: C_8  and  N_9
REMARK    8  A    between atoms: C_12  and  C_15
REMARK    9  A    between atoms: C_27  and  C_29
REMARK   10  A    between atoms: C_29  and  C_30
REMARK                            x       y       z     vdW  Elec       q    Type
REMARK                         _______ _______ _______ _____ _____    ______ ____
ROOT
ATOM      1  N   UNL     1       4.387  -0.961  25.880  0.00  0.00    -0.302 NA
ATOM      2  C   UNL     1       5.647  -1.056  25.141  0.00  0.00    +0.085 C 
ATOM      3  C   UNL     1       6.848  -1.284  26.051  0.00  0.00    +0.025 C 
ATOM      4  C   UNL     1       7.003  -0.107  27.028  0.00  0.00    +0.044 C 
ATOM      5  C   UNL     1       5.687  -0.000  27.829  0.00  0.00    +0.025 C 
ATOM      6  C   UNL     1       4.437   0.053  26.937  0.00  0.00    +0.085 C 
ENDROOT
BRANCH   4   7
ATOM      7  C   UNL     1       7.420   1.158  26.304  0.00  0.00    +0.094 A 
ATOM      8  C   UNL     1       8.563   1.352  25.471  0.00  0.00    +0.045 A 
ATOM      9  C   UNL     1       9.710   0.627  25.090  0.00  0.00    +0.016 A 
ATOM     10  C   UNL     1      10.533   1.151  24.083  0.00  0.00    +0.039 A 
ATOM     11  C   UNL     1      10.225   2.380  23.489  0.00  0.00    +0.127 A 
ATOM     12  C   UNL     1       9.130   3.141  23.881  0.00  0.00    +0.088 A 
ATOM     13  F   UNL     1      11.006   2.824  22.495  0.00  0.00    -0.205 F 
ATOM     14  C   UNL     1       8.334   2.583  24.877  0.00  0.00    +0.170 A 
ATOM     15  O   UNL     1       7.209   3.132  25.407  0.00  0.00    -0.354 OA
ATOM     16  N   UNL     1       6.646   2.253  26.312  0.00  0.00    -0.082 NA
ENDBRANCH   4   7
BRANCH   1  17
ATOM     17  C   UNL     1       3.884  -2.279  26.269  0.00  0.00    +0.087 C 
BRANCH  17  18
ATOM     18  C   UNL     1       3.855  -3.315  25.139  0.00  0.00    +0.056 C 
BRANCH  18  19
ATOM     19  C   UNL     1       4.516  -4.664  25.450  0.00  0.00    +0.230 C 
BRANCH  19  20
ATOM     20  O   UNL     1       5.235  -5.208  24.341  0.00  0.00    -0.488 OA
BRANCH  20  26
ATOM     21  C   UNL     1       7.499  -4.510  24.409  0.00  0.00    +0.162 A 
ATOM     22  C   UNL     1       8.545  -3.712  23.931  0.00  0.00    +0.060 A 
ATOM     23  C   UNL     1       8.343  -2.853  22.843  0.00  0.00    +0.021 A 
ATOM     24  C   UNL     1       7.096  -2.803  22.221  0.00  0.00    +0.015 A 
ATOM     25  C   UNL     1       6.058  -3.622  22.674  0.00  0.00    +0.050 A 
ATOM     26  C   UNL     1       6.238  -4.452  23.787  0.00  0.00    +0.162 A 
BRANCH  23  27
ATOM     27  C   UNL     1       9.475  -1.990  22.411  0.00  0.00    +0.160 C 
ATOM     28  O   UNL     1      10.615  -2.260  22.788  0.00  0.00    -0.292 OA
ATOM     29  C   UNL     1       9.217  -0.830  21.483  0.00  0.00    +0.091 C 
ENDBRANCH  23  27
BRANCH  21  31
ATOM     30  C   UNL     1       7.990  -4.797  26.714  0.00  0.00    +0.277 C 
ATOM     31  O   UNL     1       7.629  -5.377  25.466  0.00  0.00    -0.491 OA
ENDBRANCH  21  31
ENDBRANCH  20  26
ENDBRANCH  19  20
ENDBRANCH  18  19
ENDBRANCH  17  18
ENDBRANCH   1  17
TORSDOF 8
ENDMDL
