MODEL 1
REMARK VINA RESULT:      -5.4      0.000      0.000
REMARK  Name = 
REMARK  3 active torsions:
REMARK  status: ('A' for Active; 'I' for Inactive)
REMARK    1  A    between atoms: C_1  and  C_2
REMARK    2  A    between atoms: C_2  and  C_3
REMARK    3  A    between atoms: C_3  and  N_4
REMARK                            x       y       z     vdW  Elec       q    Type
REMARK                         _______ _______ _______ _____ _____    ______ ____
ROOT
ATOM      1  N   UNL     1       7.376  -5.043  24.429  0.00  0.00    -0.277 N 
ATOM      2  C   UNL     1       8.521  -5.314  25.176  0.00  0.00    +0.331 A 
ATOM      3  O   UNL     1       9.664  -5.270  24.721  0.00  0.00    -0.246 OA
ATOM      4  N   UNL     1       8.343  -5.654  26.508  0.00  0.00    -0.273 N 
ATOM      5  H   UNL     1       9.184  -5.856  27.026  0.00  0.00    +0.173 HD
ATOM      6  C   UNL     1       7.155  -5.737  27.196  0.00  0.00    +0.280 A 
ATOM      7  O   UNL     1       7.084  -6.042  28.380  0.00  0.00    -0.265 OA
ATOM      8  C   UNL     1       6.041  -5.429  26.377  0.00  0.00    +0.149 A 
ATOM      9  N   UNL     1       4.707  -5.390  26.655  0.00  0.00    -0.339 N 
ATOM     10  H   UNL     1       4.273  -5.589  27.547  0.00  0.00    +0.167 HD
ATOM     11  C   UNL     1       4.076  -5.038  25.489  0.00  0.00    +0.199 A 
ATOM     12  N   UNL     1       4.932  -4.851  24.504  0.00  0.00    -0.218 NA
ATOM     13  C   UNL     1       6.150  -5.097  25.059  0.00  0.00    +0.168 A 
ENDROOT
BRANCH   1  14
ATOM     14  C   UNL     1       7.489  -4.687  23.020  0.00  0.00    +0.128 C 
BRANCH  14  16
ATOM     15  C   UNL     1       6.206  -5.717  21.116  0.00  0.00    +0.005 C 
ATOM     16  C   UNL     1       7.348  -5.901  22.102  0.00  0.00    +0.018 C 
ENDBRANCH  14  16
ENDBRANCH   1  14
TORSDOF 2
ENDMDL
MODEL 2
REMARK VINA RESULT:      -5.3      1.646      3.032
REMARK  Name = 
REMARK  3 active torsions:
REMARK  status: ('A' for Active; 'I' for Inactive)
REMARK    1  A    between atoms: C_1  and  C_2
REMARK    2  A    between atoms: C_2  and  C_3
REMARK    3  A    between atoms: C_3  and  N_4
REMARK                            x       y       z     vdW  Elec       q    Type
REMARK                         _______ _______ _______ _____ _____    ______ ____
ROOT
ATOM      1  N   UNL     1       7.007  -4.778  24.210  0.00  0.00    -0.277 N 
ATOM      2  C   UNL     1       5.768  -4.945  24.826  0.00  0.00    +0.331 A 
ATOM      3  O   UNL     1       4.693  -4.899  24.228  0.00  0.00    -0.246 OA
ATOM      4  N   UNL     1       5.765  -5.173  26.193  0.00  0.00    -0.273 N 
ATOM      5  H   UNL     1       4.858  -5.280  26.619  0.00  0.00    +0.173 HD
ATOM      6  C   UNL     1       6.857  -5.275  27.024  0.00  0.00    +0.280 A 
ATOM      7  O   UNL     1       6.767  -5.483  28.228  0.00  0.00    -0.265 OA
ATOM      8  C   UNL     1       8.078  -5.116  26.323  0.00  0.00    +0.149 A 
ATOM      9  N   UNL     1       9.370  -5.146  26.756  0.00  0.00    -0.339 N 
ATOM     10  H   UNL     1       9.683  -5.297  27.707  0.00  0.00    +0.167 HD
ATOM     11  C   UNL     1      10.155  -4.926  25.653  0.00  0.00    +0.199 A 
ATOM     12  N   UNL     1       9.435  -4.764  24.561  0.00  0.00    -0.218 NA
ATOM     13  C   UNL     1       8.145  -4.881  24.982  0.00  0.00    +0.168 A 
ENDROOT
BRANCH   1  14
ATOM     14  C   UNL     1       7.083  -4.528  22.776  0.00  0.00    +0.128 C 
BRANCH  14  16
ATOM     15  C   UNL     1       6.102  -5.906  20.912  0.00  0.00    +0.005 C 
ATOM     16  C   UNL     1       7.193  -5.821  21.968  0.00  0.00    +0.018 C 
ENDBRANCH  14  16
ENDBRANCH   1  14
TORSDOF 2
ENDMDL
MODEL 3
REMARK VINA RESULT:      -5.1      2.245      3.583
REMARK  Name = 
REMARK  3 active torsions:
REMARK  status: ('A' for Active; 'I' for Inactive)
REMARK    1  A    between atoms: C_1  and  C_2
REMARK    2  A    between atoms: C_2  and  C_3
REMARK    3  A    between atoms: C_3  and  N_4
REMARK                            x       y       z     vdW  Elec       q    Type
REMARK                         _______ _______ _______ _____ _____    ______ ____
ROOT
ATOM      1  N   UNL     1       7.107  -4.226  23.440  0.00  0.00    -0.277 N 
ATOM      2  C   UNL     1       5.756  -4.558  23.527  0.00  0.00    +0.331 A 
ATOM      3  O   UNL     1       4.916  -4.237  22.687  0.00  0.00    -0.246 OA
ATOM      4  N   UNL     1       5.354  -5.291  24.632  0.00  0.00    -0.273 N 
ATOM      5  H   UNL     1       4.371  -5.512  24.679  0.00  0.00    +0.173 HD
ATOM      6  C   UNL     1       6.144  -5.755  25.658  0.00  0.00    +0.280 A 
ATOM      7  O   UNL     1       5.707  -6.404  26.601  0.00  0.00    -0.265 OA
ATOM      8  C   UNL     1       7.504  -5.397  25.489  0.00  0.00    +0.149 A 
ATOM      9  N   UNL     1       8.600  -5.650  26.258  0.00  0.00    -0.339 N 
ATOM     10  H   UNL     1       8.618  -6.168  27.128  0.00  0.00    +0.167 HD
ATOM     11  C   UNL     1       9.665  -5.061  25.626  0.00  0.00    +0.199 A 
ATOM     12  N   UNL     1       9.302  -4.460  24.510  0.00  0.00    -0.218 NA
ATOM     13  C   UNL     1       7.959  -4.669  24.430  0.00  0.00    +0.168 A 
ENDROOT
BRANCH   1  14
ATOM     14  C   UNL     1       7.598  -3.449  22.309  0.00  0.00    +0.128 C 
BRANCH  14  16
ATOM     15  C   UNL     1       9.002  -1.380  22.020  0.00  0.00    +0.005 C 
ATOM     16  C   UNL     1       7.746  -1.965  22.645  0.00  0.00    +0.018 C 
ENDBRANCH  14  16
ENDBRANCH   1  14
TORSDOF 2
ENDMDL
MODEL 4
REMARK VINA RESULT:      -5.1      1.242      3.575
REMARK  Name = 
REMARK  3 active torsions:
REMARK  status: ('A' for Active; 'I' for Inactive)
REMARK    1  A    between atoms: C_1  and  C_2
REMARK    2  A    between atoms: C_2  and  C_3
REMARK    3  A    between atoms: C_3  and  N_4
REMARK                            x       y       z     vdW  Elec       q    Type
REMARK                         _______ _______ _______ _____ _____    ______ ____
ROOT
ATOM      1  N   UNL     1       6.367  -5.324  26.055  0.00  0.00    -0.277 N 
ATOM      2  C   UNL     1       7.423  -5.568  26.933  0.00  0.00    +0.331 A 
ATOM      3  O   UNL     1       7.275  -5.949  28.093  0.00  0.00    -0.246 OA
ATOM      4  N   UNL     1       8.706  -5.359  26.454  0.00  0.00    -0.273 N 
ATOM      5  H   UNL     1       9.453  -5.531  27.108  0.00  0.00    +0.173 HD
ATOM      6  C   UNL     1       9.069  -4.954  25.190  0.00  0.00    +0.280 A 
ATOM      7  O   UNL     1      10.234  -4.797  24.844  0.00  0.00    -0.265 OA
ATOM      8  C   UNL     1       7.946  -4.748  24.352  0.00  0.00    +0.149 A 
ATOM      9  N   UNL     1       7.859  -4.354  23.050  0.00  0.00    -0.339 N 
ATOM     10  H   UNL     1       8.633  -4.131  22.436  0.00  0.00    +0.167 HD
ATOM     11  C   UNL     1       6.523  -4.313  22.743  0.00  0.00    +0.199 A 
ATOM     12  N   UNL     1       5.772  -4.660  23.770  0.00  0.00    -0.218 NA
ATOM     13  C   UNL     1       6.660  -4.927  24.767  0.00  0.00    +0.168 A 
ENDROOT
BRANCH   1  14
ATOM     14  C   UNL     1       4.991  -5.516  26.495  0.00  0.00    +0.128 C 
BRANCH  14  16
ATOM     15  C   UNL     1       3.370  -7.017  25.289  0.00  0.00    +0.005 C 
ATOM     16  C   UNL     1       4.513  -6.954  26.291  0.00  0.00    +0.018 C 
ENDBRANCH  14  16
ENDBRANCH   1  14
TORSDOF 2
ENDMDL
MODEL 5
REMARK VINA RESULT:      -5.0      4.856      6.437
REMARK  Name = 
REMARK  3 active torsions:
REMARK  status: ('A' for Active; 'I' for Inactive)
REMARK    1  A    between atoms: C_1  and  C_2
REMARK    2  A    between atoms: C_2  and  C_3
REMARK    3  A    between atoms: C_3  and  N_4
REMARK                            x       y       z     vdW  Elec       q    Type
REMARK                         _______ _______ _______ _____ _____    ______ ____
ROOT
ATOM      1  N   UNL     1       8.807  -1.479  24.752  0.00  0.00    -0.277 N 
ATOM      2  C   UNL     1       9.188  -0.680  25.829  0.00  0.00    +0.331 A 
ATOM      3  O   UNL     1       8.964  -0.962  27.006  0.00  0.00    -0.246 OA
ATOM      4  N   UNL     1       9.854   0.500  25.537  0.00  0.00    -0.273 N 
ATOM      5  H   UNL     1      10.111   1.067  26.330  0.00  0.00    +0.173 HD
ATOM      6  C   UNL     1      10.208   0.973  24.295  0.00  0.00    +0.280 A 
ATOM      7  O   UNL     1      10.803   2.030  24.123  0.00  0.00    -0.265 OA
ATOM      8  C   UNL     1       9.806   0.098  23.256  0.00  0.00    +0.149 A 
ATOM      9  N   UNL     1       9.957   0.183  21.904  0.00  0.00    -0.339 N 
ATOM     10  H   UNL     1      10.408   0.932  21.395  0.00  0.00    +0.167 HD
ATOM     11  C   UNL     1       9.373  -0.940  21.375  0.00  0.00    +0.199 A 
ATOM     12  N   UNL     1       8.870  -1.720  22.312  0.00  0.00    -0.218 NA
ATOM     13  C   UNL     1       9.140  -1.071  23.478  0.00  0.00    +0.168 A 
ENDROOT
BRANCH   1  14
ATOM     14  C   UNL     1       8.096  -2.730  24.986  0.00  0.00    +0.128 C 
BRANCH  14  16
ATOM     15  C   UNL     1       8.969  -4.520  26.526  0.00  0.00    +0.005 C 
ATOM     16  C   UNL     1       9.047  -3.918  25.131  0.00  0.00    +0.018 C 
ENDBRANCH  14  16
ENDBRANCH   1  14
TORSDOF 2
ENDMDL
MODEL 6
REMARK VINA RESULT:      -4.9      3.175      4.252
REMARK  Name = 
REMARK  3 active torsions:
REMARK  status: ('A' for Active; 'I' for Inactive)
REMARK    1  A    between atoms: C_1  and  C_2
REMARK    2  A    between atoms: C_2  and  C_3
REMARK    3  A    between atoms: C_3  and  N_4
REMARK                            x       y       z     vdW  Elec       q    Type
REMARK                         _______ _______ _______ _____ _____    ______ ____
ROOT
ATOM      1  N   UNL     1       8.367  -2.081  23.297  0.00  0.00    -0.277 N 
ATOM      2  C   UNL     1       9.229  -2.138  24.392  0.00  0.00    +0.331 A 
ATOM      3  O   UNL     1       9.831  -1.163  24.841  0.00  0.00    -0.246 OA
ATOM      4  N   UNL     1       9.407  -3.372  24.995  0.00  0.00    -0.273 N 
ATOM      5  H   UNL     1      10.042  -3.391  25.778  0.00  0.00    +0.173 HD
ATOM      6  C   UNL     1       8.810  -4.563  24.651  0.00  0.00    +0.280 A 
ATOM      7  O   UNL     1       9.019  -5.615  25.243  0.00  0.00    -0.265 OA
ATOM      8  C   UNL     1       7.935  -4.422  23.546  0.00  0.00    +0.149 A 
ATOM      9  N   UNL     1       7.157  -5.333  22.896  0.00  0.00    -0.339 N 
ATOM     10  H   UNL     1       7.076  -6.318  23.113  0.00  0.00    +0.167 HD
ATOM     11  C   UNL     1       6.516  -4.653  21.892  0.00  0.00    +0.199 A 
ATOM     12  N   UNL     1       6.843  -3.376  21.877  0.00  0.00    -0.218 NA
ATOM     13  C   UNL     1       7.725  -3.237  22.904  0.00  0.00    +0.168 A 
ENDROOT
BRANCH   1  14
ATOM     14  C   UNL     1       8.140  -0.816  22.610  0.00  0.00    +0.128 C 
BRANCH  14  16
ATOM     15  C   UNL     1       9.760   0.925  21.785  0.00  0.00    +0.005 C 
ATOM     16  C   UNL     1       9.247  -0.496  21.605  0.00  0.00    +0.018 C 
ENDBRANCH  14  16
ENDBRANCH   1  14
TORSDOF 2
ENDMDL
MODEL 7
REMARK VINA RESULT:      -4.8      4.778      5.706
REMARK  Name = 
REMARK  3 active torsions:
REMARK  status: ('A' for Active; 'I' for Inactive)
REMARK    1  A    between atoms: C_1  and  C_2
REMARK    2  A    between atoms: C_2  and  C_3
REMARK    3  A    between atoms: C_3  and  N_4
REMARK                            x       y       z     vdW  Elec       q    Type
REMARK                         _______ _______ _______ _____ _____    ______ ____
ROOT
ATOM      1  N   UNL     1       9.453  -1.901  24.284  0.00  0.00    -0.277 N 
ATOM      2  C   UNL     1      10.162  -1.269  23.263  0.00  0.00    +0.331 A 
ATOM      3  O   UNL     1      10.654  -1.861  22.302  0.00  0.00    -0.246 OA
ATOM      4  N   UNL     1      10.312   0.105  23.352  0.00  0.00    -0.273 N 
ATOM      5  H   UNL     1      10.836   0.539  22.608  0.00  0.00    +0.173 HD
ATOM      6  C   UNL     1       9.821   0.936  24.332  0.00  0.00    +0.280 A 
ATOM      7  O   UNL     1       9.996   2.149  24.335  0.00  0.00    -0.265 OA
ATOM      8  C   UNL     1       9.097   0.226  25.321  0.00  0.00    +0.149 A 
ATOM      9  N   UNL     1       8.456   0.655  26.444  0.00  0.00    -0.339 N 
ATOM     10  H   UNL     1       8.391   1.611  26.772  0.00  0.00    +0.167 HD
ATOM     11  C   UNL     1       7.926  -0.460  27.042  0.00  0.00    +0.199 A 
ATOM     12  N   UNL     1       8.193  -1.557  26.360  0.00  0.00    -0.218 NA
ATOM     13  C   UNL     1       8.923  -1.126  25.294  0.00  0.00    +0.168 A 
ENDROOT
BRANCH   1  14
ATOM     14  C   UNL     1       9.264  -3.346  24.257  0.00  0.00    +0.128 C 
BRANCH  14  16
ATOM     15  C   UNL     1       7.816  -5.259  23.496  0.00  0.00    +0.005 C 
ATOM     16  C   UNL     1       7.977  -3.748  23.536  0.00  0.00    +0.018 C 
ENDBRANCH  14  16
ENDBRANCH   1  14
TORSDOF 2
ENDMDL
MODEL 8
REMARK VINA RESULT:      -4.8      3.905      5.369
REMARK  Name = 
REMARK  3 active torsions:
REMARK  status: ('A' for Active; 'I' for Inactive)
REMARK    1  A    between atoms: C_1  and  C_2
REMARK    2  A    between atoms: C_2  and  C_3
REMARK    3  A    between atoms: C_3  and  N_4
REMARK                            x       y       z     vdW  Elec       q    Type
REMARK                         _______ _______ _______ _____ _____    ______ ____
ROOT
ATOM      1  N   UNL     1       7.921  -1.633  24.055  0.00  0.00    -0.277 N 
ATOM      2  C   UNL     1       6.929  -0.983  23.323  0.00  0.00    +0.331 A 
ATOM      3  O   UNL     1       6.817   0.241  23.257  0.00  0.00    -0.246 OA
ATOM      4  N   UNL     1       6.023  -1.777  22.638  0.00  0.00    -0.273 N 
ATOM      5  H   UNL     1       5.308  -1.286  22.124  0.00  0.00    +0.173 HD
ATOM      6  C   UNL     1       5.998  -3.151  22.577  0.00  0.00    +0.280 A 
ATOM      7  O   UNL     1       5.160  -3.780  21.942  0.00  0.00    -0.265 OA
ATOM      8  C   UNL     1       7.047  -3.738  23.327  0.00  0.00    +0.149 A 
ATOM      9  N   UNL     1       7.382  -5.044  23.530  0.00  0.00    -0.339 N 
ATOM     10  H   UNL     1       6.904  -5.853  23.153  0.00  0.00    +0.167 HD
ATOM     11  C   UNL     1       8.484  -5.042  24.346  0.00  0.00    +0.199 A 
ATOM     12  N   UNL     1       8.859  -3.817  24.662  0.00  0.00    -0.218 NA
ATOM     13  C   UNL     1       7.962  -3.012  24.029  0.00  0.00    +0.168 A 
ENDROOT
BRANCH   1  14
ATOM     14  C   UNL     1       8.903  -0.860  24.805  0.00  0.00    +0.128 C 
BRANCH  14  16
ATOM     15  C   UNL     1      10.894   0.663  24.578  0.00  0.00    +0.005 C 
ATOM     16  C   UNL     1      10.117  -0.486  23.955  0.00  0.00    +0.018 C 
ENDBRANCH  14  16
ENDBRANCH   1  14
TORSDOF 2
ENDMDL
MODEL 9
REMARK VINA RESULT:      -4.7      4.331      5.327
REMARK  Name = 
REMARK  3 active torsions:
REMARK  status: ('A' for Active; 'I' for Inactive)
REMARK    1  A    between atoms: C_1  and  C_2
REMARK    2  A    between atoms: C_2  and  C_3
REMARK    3  A    between atoms: C_3  and  N_4
REMARK                            x       y       z     vdW  Elec       q    Type
REMARK                         _______ _______ _______ _____ _____    ______ ____
ROOT
ATOM      1  N   UNL     1       8.520  -1.972  23.716  0.00  0.00    -0.277 N 
ATOM      2  C   UNL     1       9.468  -1.559  22.782  0.00  0.00    +0.331 A 
ATOM      3  O   UNL     1       9.538  -2.000  21.635  0.00  0.00    -0.246 OA
ATOM      4  N   UNL     1      10.380  -0.597  23.186  0.00  0.00    -0.273 N 
ATOM      5  H   UNL     1      11.063  -0.321  22.498  0.00  0.00    +0.173 HD
ATOM      6  C   UNL     1      10.449   0.023  24.412  0.00  0.00    +0.280 A 
ATOM      7  O   UNL     1      11.288   0.872  24.689  0.00  0.00    -0.265 OA
ATOM      8  C   UNL     1       9.442  -0.432  25.298  0.00  0.00    +0.149 A 
ATOM      9  N   UNL     1       9.156  -0.085  26.585  0.00  0.00    -0.339 N 
ATOM     10  H   UNL     1       9.650   0.597  27.148  0.00  0.00    +0.167 HD
ATOM     11  C   UNL     1       8.079  -0.844  26.964  0.00  0.00    +0.199 A 
ATOM     12  N   UNL     1       7.673  -1.640  25.994  0.00  0.00    -0.218 NA
ATOM     13  C   UNL     1       8.524  -1.382  24.963  0.00  0.00    +0.168 A 
ENDROOT
BRANCH   1  14
ATOM     14  C   UNL     1       7.535  -2.986  23.360  0.00  0.00    +0.128 C 
BRANCH  14  16
ATOM     15  C   UNL     1       7.395  -5.428  22.769  0.00  0.00    +0.005 C 
ATOM     16  C   UNL     1       8.008  -4.398  23.704  0.00  0.00    +0.018 C 
ENDBRANCH  14  16
ENDBRANCH   1  14
TORSDOF 2
ENDMDL
