MODEL 1
REMARK VINA RESULT:      -3.9      0.000      0.000
REMARK  Name = 
REMARK  5 active torsions:
REMARK  status: ('A' for Active; 'I' for Inactive)
REMARK    1  A    between atoms: N_1  and  CA_2
REMARK    2  A    between atoms: CA_2  and  C_4
REMARK    3  A    between atoms: CA_2  and  C_9
REMARK    4  A    between atoms: C_4  and  C_5
REMARK    5  A    between atoms: C_9  and  O_10
REMARK                            x       y       z     vdW  Elec       q    Type
REMARK                         _______ _______ _______ _____ _____    ______ ____
ROOT
ATOM      1  CA  UNL     1       8.799  -4.628  25.728  0.00  0.00    +0.163 C 
ENDROOT
BRANCH   1   2
ATOM      2  N   UNL     1       9.879  -5.568  25.274  0.00  0.00    -0.318 NA
ATOM      3  H1  UNL     1       9.952  -5.535  24.254  0.00  0.00    +0.119 HD
ATOM      4  H2  UNL     1      10.773  -5.179  25.592  0.00  0.00    +0.119 HD
ENDBRANCH   1   2
BRANCH   1   5
ATOM      5  C   UNL     1       7.630  -5.439  26.311  0.00  0.00    +0.322 C 
ATOM      6  OXT UNL     1       6.557  -5.626  25.762  0.00  0.00    -0.249 OA
BRANCH   5   7
ATOM      7  O   UNL     1       7.926  -5.897  27.556  0.00  0.00    -0.480 OA
ATOM      8  H   UNL     1       8.618  -6.591  27.428  0.00  0.00    +0.295 HD
ENDBRANCH   5   7
ENDBRANCH   1   5
BRANCH   1   9
ATOM      9  C   UNL     1       8.335  -3.665  24.629  0.00  0.00    +0.063 C 
BRANCH   9  10
ATOM     10  C   UNL     1       9.270  -2.513  24.378  0.00  0.00    +0.146 C 
ATOM     11  O   UNL     1      10.442  -2.851  23.630  0.00  0.00    -0.372 OA
ATOM     12  C   UNL     1       9.488  -2.005  22.976  0.00  0.00    +0.191 C 
ENDBRANCH   9  10
ENDBRANCH   1   9
TORSDOF 5
ENDMDL
MODEL 2
REMARK VINA RESULT:      -3.8     10.883     11.354
REMARK  Name = 
REMARK  5 active torsions:
REMARK  status: ('A' for Active; 'I' for Inactive)
REMARK    1  A    between atoms: N_1  and  CA_2
REMARK    2  A    between atoms: CA_2  and  C_4
REMARK    3  A    between atoms: CA_2  and  C_9
REMARK    4  A    between atoms: C_4  and  C_5
REMARK    5  A    between atoms: C_9  and  O_10
REMARK                            x       y       z     vdW  Elec       q    Type
REMARK                         _______ _______ _______ _____ _____    ______ ____
ROOT
ATOM      1  CA  UNL     1      12.201   5.563  23.873  0.00  0.00    +0.163 C 
ENDROOT
BRANCH   1   2
ATOM      2  N   UNL     1      12.665   6.542  24.913  0.00  0.00    -0.318 NA
ATOM      3  H1  UNL     1      12.995   7.394  24.455  0.00  0.00    +0.119 HD
ATOM      4  H2  UNL     1      11.834   6.852  25.429  0.00  0.00    +0.119 HD
ENDBRANCH   1   2
BRANCH   1   5
ATOM      5  C   UNL     1      13.270   5.443  22.774  0.00  0.00    +0.322 C 
ATOM      6  OXT UNL     1      13.098   5.686  21.591  0.00  0.00    -0.249 OA
BRANCH   5   7
ATOM      7  O   UNL     1      14.444   4.983  23.283  0.00  0.00    -0.480 OA
ATOM      8  H   UNL     1      15.112   5.104  22.564  0.00  0.00    +0.295 HD
ENDBRANCH   5   7
ENDBRANCH   1   5
BRANCH   1   9
ATOM      9  C   UNL     1      10.823   5.905  23.294  0.00  0.00    +0.063 C 
BRANCH   9  10
ATOM     10  C   UNL     1       9.716   5.950  24.312  0.00  0.00    +0.146 C 
ATOM     11  O   UNL     1       9.736   7.101  25.162  0.00  0.00    -0.372 OA
ATOM     12  C   UNL     1       8.651   7.013  24.230  0.00  0.00    +0.191 C 
ENDBRANCH   9  10
ENDBRANCH   1   9
TORSDOF 5
ENDMDL
MODEL 3
REMARK VINA RESULT:      -3.8      3.614      5.989
REMARK  Name = 
REMARK  5 active torsions:
REMARK  status: ('A' for Active; 'I' for Inactive)
REMARK    1  A    between atoms: N_1  and  CA_2
REMARK    2  A    between atoms: CA_2  and  C_4
REMARK    3  A    between atoms: CA_2  and  C_9
REMARK    4  A    between atoms: C_4  and  C_5
REMARK    5  A    between atoms: C_9  and  O_10
REMARK                            x       y       z     vdW  Elec       q    Type
REMARK                         _______ _______ _______ _____ _____    ______ ____
ROOT
ATOM      1  CA  UNL     1       9.026  -0.033  22.158  0.00  0.00    +0.163 C 
ENDROOT
BRANCH   1   2
ATOM      2  N   UNL     1       9.647  -0.858  21.069  0.00  0.00    -0.318 NA
ATOM      3  H1  UNL     1       9.602  -0.345  20.185  0.00  0.00    +0.119 HD
ATOM      4  H2  UNL     1      10.652  -0.913  21.265  0.00  0.00    +0.119 HD
ENDBRANCH   1   2
BRANCH   1   5
ATOM      5  C   UNL     1       9.976   1.119  22.529  0.00  0.00    +0.322 C 
ATOM      6  OXT UNL     1      10.590   1.219  23.579  0.00  0.00    -0.249 OA
BRANCH   5   7
ATOM      7  O   UNL     1      10.019   2.053  21.543  0.00  0.00    -0.480 OA
ATOM      8  H   UNL     1       9.268   1.836  20.937  0.00  0.00    +0.295 HD
ENDBRANCH   5   7
ENDBRANCH   1   5
BRANCH   1   9
ATOM      9  C   UNL     1       8.622  -0.858  23.387  0.00  0.00    +0.063 C 
BRANCH   9  10
ATOM     10  C   UNL     1       8.906  -2.330  23.265  0.00  0.00    +0.146 C 
ATOM     11  O   UNL     1      10.270  -2.694  23.499  0.00  0.00    -0.372 OA
ATOM     12  C   UNL     1       9.316  -3.127  24.477  0.00  0.00    +0.191 C 
ENDBRANCH   9  10
ENDBRANCH   1   9
TORSDOF 5
ENDMDL
MODEL 4
REMARK VINA RESULT:      -3.8      5.215      7.058
REMARK  Name = 
REMARK  5 active torsions:
REMARK  status: ('A' for Active; 'I' for Inactive)
REMARK    1  A    between atoms: N_1  and  CA_2
REMARK    2  A    between atoms: CA_2  and  C_4
REMARK    3  A    between atoms: CA_2  and  C_9
REMARK    4  A    between atoms: C_4  and  C_5
REMARK    5  A    between atoms: C_9  and  O_10
REMARK                            x       y       z     vdW  Elec       q    Type
REMARK                         _______ _______ _______ _____ _____    ______ ____
ROOT
ATOM      1  CA  UNL     1       9.981   1.852  24.156  0.00  0.00    +0.163 C 
ENDROOT
BRANCH   1   2
ATOM      2  N   UNL     1       8.502   1.790  23.904  0.00  0.00    -0.318 NA
ATOM      3  H1  UNL     1       8.045   1.296  24.674  0.00  0.00    +0.119 HD
ATOM      4  H2  UNL     1       8.140   2.747  23.984  0.00  0.00    +0.119 HD
ENDBRANCH   1   2
BRANCH   1   5
ATOM      5  C   UNL     1      10.643   2.737  23.087  0.00  0.00    +0.322 C 
ATOM      6  OXT UNL     1      11.364   3.696  23.311  0.00  0.00    -0.249 OA
BRANCH   5   7
ATOM      7  O   UNL     1      10.287   2.341  21.836  0.00  0.00    -0.480 OA
ATOM      8  H   UNL     1      11.047   2.586  21.253  0.00  0.00    +0.295 HD
ENDBRANCH   5   7
ENDBRANCH   1   5
BRANCH   1   9
ATOM      9  C   UNL     1      10.638   0.469  24.239  0.00  0.00    +0.063 C 
BRANCH   9  10
ATOM     10  C   UNL     1       9.800  -0.650  23.684  0.00  0.00    +0.146 C 
ATOM     11  O   UNL     1       9.445  -0.500  22.306  0.00  0.00    -0.372 OA
ATOM     12  C   UNL     1      10.357  -1.559  22.618  0.00  0.00    +0.191 C 
ENDBRANCH   9  10
ENDBRANCH   1   9
TORSDOF 5
ENDMDL
MODEL 5
REMARK VINA RESULT:      -3.8      1.305      3.845
REMARK  Name = 
REMARK  5 active torsions:
REMARK  status: ('A' for Active; 'I' for Inactive)
REMARK    1  A    between atoms: N_1  and  CA_2
REMARK    2  A    between atoms: CA_2  and  C_4
REMARK    3  A    between atoms: CA_2  and  C_9
REMARK    4  A    between atoms: C_4  and  C_5
REMARK    5  A    between atoms: C_9  and  O_10
REMARK                            x       y       z     vdW  Elec       q    Type
REMARK                         _______ _______ _______ _____ _____    ______ ____
ROOT
ATOM      1  CA  UNL     1       8.777  -4.822  24.463  0.00  0.00    +0.163 C 
ENDROOT
BRANCH   1   2
ATOM      2  N   UNL     1       9.684  -5.756  25.212  0.00  0.00    -0.318 NA
ATOM      3  H1  UNL     1      10.618  -5.345  25.275  0.00  0.00    +0.119 HD
ATOM      4  H2  UNL     1       9.363  -5.774  26.187  0.00  0.00    +0.119 HD
ENDBRANCH   1   2
BRANCH   1   5
ATOM      5  C   UNL     1       9.360  -3.400  24.510  0.00  0.00    +0.322 C 
ATOM      6  OXT UNL     1      10.242  -2.973  23.784  0.00  0.00    -0.249 OA
BRANCH   5   7
ATOM      7  O   UNL     1       8.790  -2.671  25.507  0.00  0.00    -0.480 OA
ATOM      8  H   UNL     1       7.816  -2.707  25.340  0.00  0.00    +0.295 HD
ENDBRANCH   5   7
ENDBRANCH   1   5
BRANCH   1   9
ATOM      9  C   UNL     1       7.326  -4.862  24.960  0.00  0.00    +0.063 C 
BRANCH   9  10
ATOM     10  C   UNL     1       7.148  -5.519  26.301  0.00  0.00    +0.146 C 
ATOM     11  O   UNL     1       7.897  -4.918  27.362  0.00  0.00    -0.372 OA
ATOM     12  C   UNL     1       6.472  -4.777  27.426  0.00  0.00    +0.191 C 
ENDBRANCH   9  10
ENDBRANCH   1   9
TORSDOF 5
ENDMDL
MODEL 6
REMARK VINA RESULT:      -3.7      3.497      4.663
REMARK  Name = 
REMARK  5 active torsions:
REMARK  status: ('A' for Active; 'I' for Inactive)
REMARK    1  A    between atoms: N_1  and  CA_2
REMARK    2  A    between atoms: CA_2  and  C_4
REMARK    3  A    between atoms: CA_2  and  C_9
REMARK    4  A    between atoms: C_4  and  C_5
REMARK    5  A    between atoms: C_9  and  O_10
REMARK                            x       y       z     vdW  Elec       q    Type
REMARK                         _______ _______ _______ _____ _____    ______ ____
ROOT
ATOM      1  CA  UNL     1      10.475  -1.369  22.828  0.00  0.00    +0.163 C 
ENDROOT
BRANCH   1   2
ATOM      2  N   UNL     1       9.984  -1.554  21.421  0.00  0.00    -0.318 NA
ATOM      3  H1  UNL     1       9.489  -0.712  21.120  0.00  0.00    +0.119 HD
ATOM      4  H2  UNL     1      10.809  -1.579  20.813  0.00  0.00    +0.119 HD
ENDBRANCH   1   2
BRANCH   1   5
ATOM      5  C   UNL     1       9.677  -2.286  23.771  0.00  0.00    +0.322 C 
ATOM      6  OXT UNL     1      10.007  -3.410  24.111  0.00  0.00    -0.249 OA
BRANCH   5   7
ATOM      7  O   UNL     1       8.514  -1.697  24.157  0.00  0.00    -0.480 OA
ATOM      8  H   UNL     1       7.794  -2.290  23.829  0.00  0.00    +0.295 HD
ENDBRANCH   5   7
ENDBRANCH   1   5
BRANCH   1   9
ATOM      9  C   UNL     1      10.443   0.093  23.292  0.00  0.00    +0.063 C 
BRANCH   9  10
ATOM     10  C   UNL     1       9.709   1.022  22.362  0.00  0.00    +0.146 C 
ATOM     11  O   UNL     1       8.307   0.763  22.248  0.00  0.00    -0.372 OA
ATOM     12  C   UNL     1       8.680   1.981  22.904  0.00  0.00    +0.191 C 
ENDBRANCH   9  10
ENDBRANCH   1   9
TORSDOF 5
ENDMDL
MODEL 7
REMARK VINA RESULT:      -3.6      2.385      2.854
REMARK  Name = 
REMARK  5 active torsions:
REMARK  status: ('A' for Active; 'I' for Inactive)
REMARK    1  A    between atoms: N_1  and  CA_2
REMARK    2  A    between atoms: CA_2  and  C_4
REMARK    3  A    between atoms: CA_2  and  C_9
REMARK    4  A    between atoms: C_4  and  C_5
REMARK    5  A    between atoms: C_9  and  O_10
REMARK                            x       y       z     vdW  Elec       q    Type
REMARK                         _______ _______ _______ _____ _____    ______ ____
ROOT
ATOM      1  CA  UNL     1       8.098  -4.242  24.994  0.00  0.00    +0.163 C 
ENDROOT
BRANCH   1   2
ATOM      2  N   UNL     1       9.333  -3.845  24.238  0.00  0.00    -0.318 NA
ATOM      3  H1  UNL     1       9.324  -4.285  23.315  0.00  0.00    +0.119 HD
ATOM      4  H2  UNL     1       9.251  -2.844  24.029  0.00  0.00    +0.119 HD
ENDBRANCH   1   2
BRANCH   1   5
ATOM      5  C   UNL     1       8.434  -5.404  25.944  0.00  0.00    +0.322 C 
ATOM      6  OXT UNL     1       7.739  -5.781  26.873  0.00  0.00    -0.249 OA
BRANCH   5   7
ATOM      7  O   UNL     1       9.644  -5.946  25.644  0.00  0.00    -0.480 OA
ATOM      8  H   UNL     1       9.946  -5.486  24.823  0.00  0.00    +0.295 HD
ENDBRANCH   5   7
ENDBRANCH   1   5
BRANCH   1   9
ATOM      9  C   UNL     1       6.912  -4.576  24.080  0.00  0.00    +0.063 C 
BRANCH   9  10
ATOM     10  C   UNL     1       7.290  -4.857  22.652  0.00  0.00    +0.146 C 
ATOM     11  O   UNL     1       8.081  -6.035  22.467  0.00  0.00    -0.372 OA
ATOM     12  C   UNL     1       6.746  -6.074  21.948  0.00  0.00    +0.191 C 
ENDBRANCH   9  10
ENDBRANCH   1   9
TORSDOF 5
ENDMDL
MODEL 8
REMARK VINA RESULT:      -3.6      3.672      4.781
REMARK  Name = 
REMARK  5 active torsions:
REMARK  status: ('A' for Active; 'I' for Inactive)
REMARK    1  A    between atoms: N_1  and  CA_2
REMARK    2  A    between atoms: CA_2  and  C_4
REMARK    3  A    between atoms: CA_2  and  C_9
REMARK    4  A    between atoms: C_4  and  C_5
REMARK    5  A    between atoms: C_9  and  O_10
REMARK                            x       y       z     vdW  Elec       q    Type
REMARK                         _______ _______ _______ _____ _____    ______ ____
ROOT
ATOM      1  CA  UNL     1       9.444  -0.920  24.287  0.00  0.00    +0.163 C 
ENDROOT
BRANCH   1   2
ATOM      2  N   UNL     1      10.552  -0.002  24.718  0.00  0.00    -0.318 NA
ATOM      3  H1  UNL     1      10.847  -0.246  25.665  0.00  0.00    +0.119 HD
ATOM      4  H2  UNL     1      11.372  -0.227  24.144  0.00  0.00    +0.119 HD
ENDBRANCH   1   2
BRANCH   1   5
ATOM      5  C   UNL     1      10.045  -2.153  23.592  0.00  0.00    +0.322 C 
ATOM      6  OXT UNL     1      10.072  -3.282  24.054  0.00  0.00    -0.249 OA
BRANCH   5   7
ATOM      7  O   UNL     1      10.593  -1.819  22.393  0.00  0.00    -0.480 OA
ATOM      8  H   UNL     1       9.995  -1.133  22.009  0.00  0.00    +0.295 HD
ENDBRANCH   5   7
ENDBRANCH   1   5
BRANCH   1   9
ATOM      9  C   UNL     1       8.392  -0.228  23.412  0.00  0.00    +0.063 C 
BRANCH   9  10
ATOM     10  C   UNL     1       8.812   1.116  22.883  0.00  0.00    +0.146 C 
ATOM     11  O   UNL     1       9.902   1.076  21.956  0.00  0.00    -0.372 OA
ATOM     12  C   UNL     1       8.625   1.451  21.425  0.00  0.00    +0.191 C 
ENDBRANCH   9  10
ENDBRANCH   1   9
TORSDOF 5
ENDMDL
MODEL 9
REMARK VINA RESULT:      -3.6      1.829      2.085
REMARK  Name = 
REMARK  5 active torsions:
REMARK  status: ('A' for Active; 'I' for Inactive)
REMARK    1  A    between atoms: N_1  and  CA_2
REMARK    2  A    between atoms: CA_2  and  C_4
REMARK    3  A    between atoms: CA_2  and  C_9
REMARK    4  A    between atoms: C_4  and  C_5
REMARK    5  A    between atoms: C_9  and  O_10
REMARK                            x       y       z     vdW  Elec       q    Type
REMARK                         _______ _______ _______ _____ _____    ______ ____
ROOT
ATOM      1  CA  UNL     1       8.541  -4.557  24.291  0.00  0.00    +0.163 C 
ENDROOT
BRANCH   1   2
ATOM      2  N   UNL     1       7.157  -5.125  24.421  0.00  0.00    -0.318 NA
ATOM      3  H1  UNL     1       6.507  -4.571  23.857  0.00  0.00    +0.119 HD
ATOM      4  H2  UNL     1       7.159  -6.039  23.956  0.00  0.00    +0.119 HD
ENDBRANCH   1   2
BRANCH   1   5
ATOM      5  C   UNL     1       9.317  -4.803  25.596  0.00  0.00    +0.322 C 
ATOM      6  OXT UNL     1       9.026  -4.345  26.688  0.00  0.00    -0.249 OA
BRANCH   5   7
ATOM      7  O   UNL     1      10.413  -5.575  25.373  0.00  0.00    -0.480 OA
ATOM      8  H   UNL     1      10.554  -5.562  24.394  0.00  0.00    +0.295 HD
ENDBRANCH   5   7
ENDBRANCH   1   5
BRANCH   1   9
ATOM      9  C   UNL     1       8.551  -3.076  23.890  0.00  0.00    +0.063 C 
BRANCH   9  10
ATOM     10  C   UNL     1       9.923  -2.464  23.819  0.00  0.00    +0.146 C 
ATOM     11  O   UNL     1      10.315  -2.034  22.512  0.00  0.00    -0.372 OA
ATOM     12  C   UNL     1      10.086  -1.004  23.480  0.00  0.00    +0.191 C 
ENDBRANCH   9  10
ENDBRANCH   1   9
TORSDOF 5
ENDMDL
