MODEL 1
REMARK VINA RESULT:      -6.6      0.000      0.000
REMARK  Name = 
REMARK  8 active torsions:
REMARK  status: ('A' for Active; 'I' for Inactive)
REMARK    1  A    between atoms: O_1  and  C_2
REMARK    2  A    between atoms: C_4  and  O_6
REMARK    3  A    between atoms: C_7  and  C_18
REMARK    4  A    between atoms: C_10  and  C_12
REMARK    5  A    between atoms: C_12  and  O_13
REMARK    6  A    between atoms: O_13  and  P_14
REMARK    7  A    between atoms: P_14  and  O_15
REMARK    8  A    between atoms: P_14  and  O_16
REMARK                            x       y       z     vdW  Elec       q    Type
REMARK                         _______ _______ _______ _____ _____    ______ ____
ROOT
ATOM      1  C   UNL     1       8.119  -1.991  22.416  0.00  0.00    +0.177 C 
ATOM      2  C   UNL     1       7.839  -0.763  23.292  0.00  0.00    +0.176 C 
ATOM      3  O   UNL     1       8.614  -0.888  24.501  0.00  0.00    -0.361 OA
ATOM      4  C   UNL     1       9.375  -2.126  24.448  0.00  0.00    +0.186 C 
ATOM      5  C   UNL     1       9.448  -2.493  22.954  0.00  0.00    +0.179 C 
ENDROOT
BRANCH   4   6
ATOM      6  C   UNL     1       8.720  -3.142  25.358  0.00  0.00    +0.064 A 
ATOM      7  C   UNL     1       9.331  -4.495  25.432  0.00  0.00    +0.260 A 
ATOM      8  O   UNL     1      10.336  -4.779  24.794  0.00  0.00    -0.267 OA
ATOM      9  N   UNL     1       8.712  -5.400  26.254  0.00  0.00    -0.275 N 
ATOM     10  H   UNL     1       9.114  -6.322  26.319  0.00  0.00    +0.173 HD
ATOM     11  C   UNL     1       7.646  -5.137  27.064  0.00  0.00    +0.327 A 
ATOM     12  O   UNL     1       7.177  -5.970  27.830  0.00  0.00    -0.247 OA
ATOM     13  N   UNL     1       7.147  -3.868  26.978  0.00  0.00    -0.314 N 
ATOM     14  H   UNL     1       6.361  -3.666  27.585  0.00  0.00    +0.170 HD
ATOM     15  C   UNL     1       7.667  -2.907  26.159  0.00  0.00    +0.099 A 
ENDBRANCH   4   6
BRANCH   1  16
ATOM     16  O   UNL     1       7.119  -3.005  22.567  0.00  0.00    -0.386 OA
ATOM     17  H   UNL     1       7.487  -3.869  22.317  0.00  0.00    +0.210 HD
ENDBRANCH   1  16
BRANCH   5  18
ATOM     18  O   UNL     1      10.513  -1.757  22.331  0.00  0.00    -0.386 OA
ATOM     19  H   UNL     1      11.350  -2.079  22.715  0.00  0.00    +0.210 HD
ENDBRANCH   5  18
BRANCH   2  20
ATOM     20  C   UNL     1       8.181   0.556  22.604  0.00  0.00    +0.206 C 
BRANCH  20  21
ATOM     21  O   UNL     1       8.403   1.541  23.602  0.00  0.00    -0.284 OA
BRANCH  21  22
ATOM     22  P   UNL     1       9.835   2.475  23.341  0.00  0.00    +0.472 P 
ATOM     23  O   UNL     1      11.116   3.312  23.107  0.00  0.00    -0.228 OA
BRANCH  22  24
ATOM     24  O   UNL     1       9.516   2.255  21.749  0.00  0.00    -0.303 OA
ATOM     25  H   UNL     1       8.570   2.381  21.560  0.00  0.00    +0.222 HD
ENDBRANCH  22  24
BRANCH  22  26
ATOM     26  O   UNL     1      10.589   1.035  23.514  0.00  0.00    -0.303 OA
ATOM     27  H   UNL     1      10.168   0.603  24.281  0.00  0.00    +0.222 HD
ENDBRANCH  22  26
ENDBRANCH  21  22
ENDBRANCH  20  21
ENDBRANCH   2  20
TORSDOF 8
ENDMDL
MODEL 2
REMARK VINA RESULT:      -6.0      2.022      3.060
REMARK  Name = 
REMARK  8 active torsions:
REMARK  status: ('A' for Active; 'I' for Inactive)
REMARK    1  A    between atoms: O_1  and  C_2
REMARK    2  A    between atoms: C_4  and  O_6
REMARK    3  A    between atoms: C_7  and  C_18
REMARK    4  A    between atoms: C_10  and  C_12
REMARK    5  A    between atoms: C_12  and  O_13
REMARK    6  A    between atoms: O_13  and  P_14
REMARK    7  A    between atoms: P_14  and  O_15
REMARK    8  A    between atoms: P_14  and  O_16
REMARK                            x       y       z     vdW  Elec       q    Type
REMARK                         _______ _______ _______ _____ _____    ______ ____
ROOT
ATOM      1  C   UNL     1       7.436   1.269  22.513  0.00  0.00    +0.177 C 
ATOM      2  C   UNL     1       7.680   2.018  23.829  0.00  0.00    +0.176 C 
ATOM      3  O   UNL     1       8.926   1.554  24.385  0.00  0.00    -0.361 OA
ATOM      4  C   UNL     1       9.493   0.549  23.499  0.00  0.00    +0.186 C 
ATOM      5  C   UNL     1       8.827   0.793  22.132  0.00  0.00    +0.179 C 
ENDROOT
BRANCH   4   6
ATOM      6  C   UNL     1       9.287  -0.818  24.113  0.00  0.00    +0.064 A 
ATOM      7  C   UNL     1       9.940  -1.976  23.449  0.00  0.00    +0.260 A 
ATOM      8  O   UNL     1      10.632  -1.834  22.449  0.00  0.00    -0.267 OA
ATOM      9  N   UNL     1       9.728  -3.205  24.017  0.00  0.00    -0.275 N 
ATOM     10  H   UNL     1      10.165  -4.002  23.582  0.00  0.00    +0.173 HD
ATOM     11  C   UNL     1       9.046  -3.436  25.176  0.00  0.00    +0.327 A 
ATOM     12  O   UNL     1       8.948  -4.552  25.674  0.00  0.00    -0.247 OA
ATOM     13  N   UNL     1       8.496  -2.330  25.761  0.00  0.00    -0.314 N 
ATOM     14  H   UNL     1       7.998  -2.496  26.627  0.00  0.00    +0.170 HD
ATOM     15  C   UNL     1       8.616  -1.069  25.249  0.00  0.00    +0.099 A 
ENDBRANCH   4   6
BRANCH   1  16
ATOM     16  O   UNL     1       6.566   0.143  22.683  0.00  0.00    -0.386 OA
ATOM     17  H   UNL     1       5.826   0.204  22.056  0.00  0.00    +0.210 HD
ENDBRANCH   1  16
BRANCH   5  18
ATOM     18  O   UNL     1       9.513   1.854  21.446  0.00  0.00    -0.386 OA
ATOM     19  H   UNL     1      10.346   2.016  21.925  0.00  0.00    +0.210 HD
ENDBRANCH   5  18
BRANCH   2  20
ATOM     20  C   UNL     1       7.736   3.533  23.656  0.00  0.00    +0.206 C 
BRANCH  20  21
ATOM     21  O   UNL     1       8.628   4.065  24.623  0.00  0.00    -0.284 OA
BRANCH  21  22
ATOM     22  P   UNL     1       9.738   5.222  23.973  0.00  0.00    +0.472 P 
ATOM     23  O   UNL     1      10.731   6.258  23.392  0.00  0.00    -0.228 OA
BRANCH  22  24
ATOM     24  O   UNL     1       8.638   5.388  22.770  0.00  0.00    -0.303 OA
ATOM     25  H   UNL     1       8.617   4.597  22.203  0.00  0.00    +0.222 HD
ENDBRANCH  22  24
BRANCH  22  26
ATOM     26  O   UNL     1      10.444   3.905  23.313  0.00  0.00    -0.303 OA
ATOM     27  H   UNL     1      10.168   3.893  22.377  0.00  0.00    +0.222 HD
ENDBRANCH  22  26
ENDBRANCH  21  22
ENDBRANCH  20  21
ENDBRANCH   2  20
TORSDOF 8
ENDMDL
MODEL 3
REMARK VINA RESULT:      -6.0      3.299      6.604
REMARK  Name = 
REMARK  8 active torsions:
REMARK  status: ('A' for Active; 'I' for Inactive)
REMARK    1  A    between atoms: O_1  and  C_2
REMARK    2  A    between atoms: C_4  and  O_6
REMARK    3  A    between atoms: C_7  and  C_18
REMARK    4  A    between atoms: C_10  and  C_12
REMARK    5  A    between atoms: C_12  and  O_13
REMARK    6  A    between atoms: O_13  and  P_14
REMARK    7  A    between atoms: P_14  and  O_15
REMARK    8  A    between atoms: P_14  and  O_16
REMARK                            x       y       z     vdW  Elec       q    Type
REMARK                         _______ _______ _______ _____ _____    ______ ____
ROOT
ATOM      1  C   UNL     1       7.957  -4.974  24.153  0.00  0.00    +0.177 C 
ATOM      2  C   UNL     1       6.997  -4.468  25.238  0.00  0.00    +0.176 C 
ATOM      3  O   UNL     1       6.590  -3.130  24.888  0.00  0.00    -0.361 OA
ATOM      4  C   UNL     1       7.235  -2.751  23.640  0.00  0.00    +0.186 C 
ATOM      5  C   UNL     1       7.630  -4.080  22.969  0.00  0.00    +0.179 C 
ENDROOT
BRANCH   4   6
ATOM      6  C   UNL     1       8.364  -1.791  23.945  0.00  0.00    +0.064 A 
ATOM      7  C   UNL     1       9.174  -1.295  22.802  0.00  0.00    +0.260 A 
ATOM      8  O   UNL     1       8.933  -1.637  21.652  0.00  0.00    -0.267 OA
ATOM      9  N   UNL     1      10.197  -0.437  23.105  0.00  0.00    -0.275 N 
ATOM     10  H   UNL     1      10.756  -0.088  22.342  0.00  0.00    +0.173 HD
ATOM     11  C   UNL     1      10.475   0.060  24.345  0.00  0.00    +0.327 A 
ATOM     12  O   UNL     1      11.363   0.881  24.545  0.00  0.00    -0.247 OA
ATOM     13  N   UNL     1       9.677  -0.405  25.353  0.00  0.00    -0.314 N 
ATOM     14  H   UNL     1       9.873  -0.031  26.273  0.00  0.00    +0.170 HD
ATOM     15  C   UNL     1       8.658  -1.293  25.158  0.00  0.00    +0.099 A 
ENDBRANCH   4   6
BRANCH   1  16
ATOM     16  O   UNL     1       9.330  -4.809  24.524  0.00  0.00    -0.386 OA
ATOM     17  H   UNL     1       9.564  -5.456  25.209  0.00  0.00    +0.210 HD
ENDBRANCH   1  16
BRANCH   5  18
ATOM     18  O   UNL     1       6.495  -4.621  22.273  0.00  0.00    -0.386 OA
ATOM     19  H   UNL     1       6.636  -4.460  21.321  0.00  0.00    +0.210 HD
ENDBRANCH   5  18
BRANCH   2  20
ATOM     20  C   UNL     1       5.760  -5.347  25.402  0.00  0.00    +0.206 C 
BRANCH  20  21
ATOM     21  O   UNL     1       6.063  -6.384  26.323  0.00  0.00    -0.284 OA
BRANCH  21  22
ATOM     22  P   UNL     1       6.029  -5.870  27.975  0.00  0.00    +0.472 P 
ATOM     23  O   UNL     1       5.999  -5.410  29.452  0.00  0.00    -0.228 OA
BRANCH  22  24
ATOM     24  O   UNL     1       7.626  -6.238  27.973  0.00  0.00    -0.303 OA
ATOM     25  H   UNL     1       7.925  -6.508  28.858  0.00  0.00    +0.222 HD
ENDBRANCH  22  24
BRANCH  22  26
ATOM     26  O   UNL     1       5.551  -7.408  28.255  0.00  0.00    -0.303 OA
ATOM     27  H   UNL     1       5.864  -7.627  29.152  0.00  0.00    +0.222 HD
ENDBRANCH  22  26
ENDBRANCH  21  22
ENDBRANCH  20  21
ENDBRANCH   2  20
TORSDOF 8
ENDMDL
MODEL 4
REMARK VINA RESULT:      -6.0      2.201      2.908
REMARK  Name = 
REMARK  8 active torsions:
REMARK  status: ('A' for Active; 'I' for Inactive)
REMARK    1  A    between atoms: O_1  and  C_2
REMARK    2  A    between atoms: C_4  and  O_6
REMARK    3  A    between atoms: C_7  and  C_18
REMARK    4  A    between atoms: C_10  and  C_12
REMARK    5  A    between atoms: C_12  and  O_13
REMARK    6  A    between atoms: O_13  and  P_14
REMARK    7  A    between atoms: P_14  and  O_15
REMARK    8  A    between atoms: P_14  and  O_16
REMARK                            x       y       z     vdW  Elec       q    Type
REMARK                         _______ _______ _______ _____ _____    ______ ____
ROOT
ATOM      1  C   UNL     1      10.014  -0.495  22.357  0.00  0.00    +0.177 C 
ATOM      2  C   UNL     1       8.675   0.202  22.083  0.00  0.00    +0.176 C 
ATOM      3  O   UNL     1       7.686  -0.362  22.968  0.00  0.00    -0.361 OA
ATOM      4  C   UNL     1       8.317  -1.379  23.794  0.00  0.00    +0.186 C 
ATOM      5  C   UNL     1       9.822  -1.056  23.756  0.00  0.00    +0.179 C 
ENDROOT
BRANCH   4   6
ATOM      6  C   UNL     1       7.910  -2.744  23.284  0.00  0.00    +0.064 A 
ATOM      7  C   UNL     1       8.362  -3.931  24.056  0.00  0.00    +0.260 A 
ATOM      8  O   UNL     1       9.028  -3.814  25.077  0.00  0.00    -0.267 OA
ATOM      9  N   UNL     1       7.991  -5.155  23.567  0.00  0.00    -0.275 N 
ATOM     10  H   UNL     1       8.286  -5.972  24.080  0.00  0.00    +0.173 HD
ATOM     11  C   UNL     1       7.179  -5.367  22.491  0.00  0.00    +0.327 A 
ATOM     12  O   UNL     1       6.825  -6.487  22.142  0.00  0.00    -0.247 OA
ATOM     13  N   UNL     1       6.767  -4.240  21.840  0.00  0.00    -0.314 N 
ATOM     14  H   UNL     1       6.156  -4.392  21.046  0.00  0.00    +0.170 HD
ATOM     15  C   UNL     1       7.117  -2.977  22.225  0.00  0.00    +0.099 A 
ENDBRANCH   4   6
BRANCH   1  16
ATOM     16  O   UNL     1      10.269  -1.562  21.436  0.00  0.00    -0.386 OA
ATOM     17  H   UNL     1       9.470  -2.108  21.338  0.00  0.00    +0.210 HD
ENDBRANCH   1  16
BRANCH   5  18
ATOM     18  O   UNL     1      10.116  -0.028  24.716  0.00  0.00    -0.386 OA
ATOM     19  H   UNL     1      10.339  -0.471  25.556  0.00  0.00    +0.210 HD
ENDBRANCH   5  18
BRANCH   2  20
ATOM     20  C   UNL     1       8.732   1.713  22.284  0.00  0.00    +0.206 C 
BRANCH  20  21
ATOM     21  O   UNL     1       8.136   2.025  23.533  0.00  0.00    -0.284 OA
BRANCH  21  22
ATOM     22  P   UNL     1       8.704   3.510  24.216  0.00  0.00    +0.472 P 
ATOM     23  O   UNL     1       9.211   4.838  24.827  0.00  0.00    -0.228 OA
BRANCH  22  24
ATOM     24  O   UNL     1       8.567   4.097  22.692  0.00  0.00    -0.303 OA
ATOM     25  H   UNL     1       8.722   3.399  22.033  0.00  0.00    +0.222 HD
ENDBRANCH  22  24
BRANCH  22  26
ATOM     26  O   UNL     1      10.178   2.853  23.961  0.00  0.00    -0.303 OA
ATOM     27  H   UNL     1      10.479   3.194  23.098  0.00  0.00    +0.222 HD
ENDBRANCH  22  26
ENDBRANCH  21  22
ENDBRANCH  20  21
ENDBRANCH   2  20
TORSDOF 8
ENDMDL
MODEL 5
REMARK VINA RESULT:      -6.0      3.794      6.699
REMARK  Name = 
REMARK  8 active torsions:
REMARK  status: ('A' for Active; 'I' for Inactive)
REMARK    1  A    between atoms: O_1  and  C_2
REMARK    2  A    between atoms: C_4  and  O_6
REMARK    3  A    between atoms: C_7  and  C_18
REMARK    4  A    between atoms: C_10  and  C_12
REMARK    5  A    between atoms: C_12  and  O_13
REMARK    6  A    between atoms: O_13  and  P_14
REMARK    7  A    between atoms: P_14  and  O_15
REMARK    8  A    between atoms: P_14  and  O_16
REMARK                            x       y       z     vdW  Elec       q    Type
REMARK                         _______ _______ _______ _____ _____    ______ ____
ROOT
ATOM      1  C   UNL     1       9.029  -1.646  24.462  0.00  0.00    +0.177 C 
ATOM      2  C   UNL     1       7.797  -2.273  23.796  0.00  0.00    +0.176 C 
ATOM      3  O   UNL     1       7.673  -1.720  22.471  0.00  0.00    -0.361 OA
ATOM      4  C   UNL     1       8.756  -0.775  22.250  0.00  0.00    +0.186 C 
ATOM      5  C   UNL     1       9.840  -1.156  23.275  0.00  0.00    +0.179 C 
ENDROOT
BRANCH   4   6
ATOM      6  C   UNL     1       8.205   0.631  22.345  0.00  0.00    +0.064 A 
ATOM      7  C   UNL     1       9.127   1.754  22.034  0.00  0.00    +0.260 A 
ATOM      8  O   UNL     1      10.287   1.555  21.699  0.00  0.00    -0.267 OA
ATOM      9  N   UNL     1       8.608   3.017  22.139  0.00  0.00    -0.275 N 
ATOM     10  H   UNL     1       9.218   3.792  21.929  0.00  0.00    +0.173 HD
ATOM     11  C   UNL     1       7.307   3.320  22.419  0.00  0.00    +0.327 A 
ATOM     12  O   UNL     1       6.884   4.470  22.431  0.00  0.00    -0.247 OA
ATOM     13  N   UNL     1       6.498   2.247  22.663  0.00  0.00    -0.314 N 
ATOM     14  H   UNL     1       5.529   2.467  22.861  0.00  0.00    +0.170 HD
ATOM     15  C   UNL     1       6.931   0.952  22.623  0.00  0.00    +0.099 A 
ENDBRANCH   4   6
BRANCH   1  16
ATOM     16  O   UNL     1       8.685  -0.541  25.306  0.00  0.00    -0.386 OA
ATOM     17  H   UNL     1       7.824  -0.179  25.038  0.00  0.00    +0.210 HD
ENDBRANCH   1  16
BRANCH   5  18
ATOM     18  O   UNL     1      10.624  -2.245  22.762  0.00  0.00    -0.386 OA
ATOM     19  H   UNL     1      10.042  -3.027  22.723  0.00  0.00    +0.210 HD
ENDBRANCH   5  18
BRANCH   2  20
ATOM     20  C   UNL     1       7.873  -3.794  23.706  0.00  0.00    +0.206 C 
BRANCH  20  21
ATOM     21  O   UNL     1       7.493  -4.188  22.396  0.00  0.00    -0.284 OA
BRANCH  21  22
ATOM     22  P   UNL     1       5.952  -4.972  22.333  0.00  0.00    +0.472 P 
ATOM     23  O   UNL     1       4.573  -5.674  22.276  0.00  0.00    -0.228 OA
BRANCH  22  24
ATOM     24  O   UNL     1       6.557  -5.740  21.018  0.00  0.00    -0.303 OA
ATOM     25  H   UNL     1       6.112  -6.593  20.874  0.00  0.00    +0.222 HD
ENDBRANCH  22  24
BRANCH  22  26
ATOM     26  O   UNL     1       5.509  -3.637  21.500  0.00  0.00    -0.303 OA
ATOM     27  H   UNL     1       4.544  -3.706  21.375  0.00  0.00    +0.222 HD
ENDBRANCH  22  26
ENDBRANCH  21  22
ENDBRANCH  20  21
ENDBRANCH   2  20
TORSDOF 8
ENDMDL
MODEL 6
REMARK VINA RESULT:      -5.9      3.358      6.753
REMARK  Name = 
REMARK  8 active torsions:
REMARK  status: ('A' for Active; 'I' for Inactive)
REMARK    1  A    between atoms: O_1  and  C_2
REMARK    2  A    between atoms: C_4  and  O_6
REMARK    3  A    between atoms: C_7  and  C_18
REMARK    4  A    between atoms: C_10  and  C_12
REMARK    5  A    between atoms: C_12  and  O_13
REMARK    6  A    between atoms: O_13  and  P_14
REMARK    7  A    between atoms: P_14  and  O_15
REMARK    8  A    between atoms: P_14  and  O_16
REMARK                            x       y       z     vdW  Elec       q    Type
REMARK                         _______ _______ _______ _____ _____    ______ ____
ROOT
ATOM      1  C   UNL     1       7.798  -2.727  26.498  0.00  0.00    +0.177 C 
ATOM      2  C   UNL     1       6.400  -2.831  25.873  0.00  0.00    +0.176 C 
ATOM      3  O   UNL     1       6.558  -3.081  24.462  0.00  0.00    -0.361 OA
ATOM      4  C   UNL     1       7.977  -3.143  24.148  0.00  0.00    +0.186 C 
ATOM      5  C   UNL     1       8.674  -3.447  25.487  0.00  0.00    +0.179 C 
ENDROOT
BRANCH   4   6
ATOM      6  C   UNL     1       8.381  -1.860  23.456  0.00  0.00    +0.064 A 
ATOM      7  C   UNL     1       9.788  -1.741  22.993  0.00  0.00    +0.260 A 
ATOM      8  O   UNL     1      10.591  -2.651  23.150  0.00  0.00    -0.267 OA
ATOM      9  N   UNL     1      10.132  -0.565  22.380  0.00  0.00    -0.275 N 
ATOM     10  H   UNL     1      11.082  -0.468  22.056  0.00  0.00    +0.173 HD
ATOM     11  C   UNL     1       9.277   0.457  22.089  0.00  0.00    +0.327 A 
ATOM     12  O   UNL     1       9.630   1.459  21.476  0.00  0.00    -0.247 OA
ATOM     13  N   UNL     1       7.990   0.280  22.509  0.00  0.00    -0.314 N 
ATOM     14  H   UNL     1       7.350   1.032  22.286  0.00  0.00    +0.170 HD
ATOM     15  C   UNL     1       7.558  -0.838  23.164  0.00  0.00    +0.099 A 
ENDBRANCH   4   6
BRANCH   1  16
ATOM     16  O   UNL     1       8.230  -1.368  26.636  0.00  0.00    -0.386 OA
ATOM     17  H   UNL     1       9.122  -1.346  27.022  0.00  0.00    +0.210 HD
ENDBRANCH   1  16
BRANCH   5  18
ATOM     18  O   UNL     1       8.622  -4.860  25.745  0.00  0.00    -0.386 OA
ATOM     19  H   UNL     1       9.274  -5.050  26.445  0.00  0.00    +0.210 HD
ENDBRANCH   5  18
BRANCH   2  20
ATOM     20  C   UNL     1       5.547  -3.935  26.491  0.00  0.00    +0.206 C 
BRANCH  20  21
ATOM     21  O   UNL     1       6.176  -4.375  27.685  0.00  0.00    -0.284 OA
BRANCH  21  22
ATOM     22  P   UNL     1       5.881  -6.042  28.045  0.00  0.00    +0.472 P 
ATOM     23  O   UNL     1       5.617  -7.532  28.368  0.00  0.00    -0.228 OA
BRANCH  22  24
ATOM     24  O   UNL     1       7.511  -6.158  28.160  0.00  0.00    -0.303 OA
ATOM     25  H   UNL     1       7.911  -5.292  28.354  0.00  0.00    +0.222 HD
ENDBRANCH  22  24
BRANCH  22  26
ATOM     26  O   UNL     1       5.862  -6.202  26.419  0.00  0.00    -0.303 OA
ATOM     27  H   UNL     1       6.114  -7.127  26.238  0.00  0.00    +0.222 HD
ENDBRANCH  22  26
ENDBRANCH  21  22
ENDBRANCH  20  21
ENDBRANCH   2  20
TORSDOF 8
ENDMDL
MODEL 7
REMARK VINA RESULT:      -5.9      3.669      6.708
REMARK  Name = 
REMARK  8 active torsions:
REMARK  status: ('A' for Active; 'I' for Inactive)
REMARK    1  A    between atoms: O_1  and  C_2
REMARK    2  A    between atoms: C_4  and  O_6
REMARK    3  A    between atoms: C_7  and  C_18
REMARK    4  A    between atoms: C_10  and  C_12
REMARK    5  A    between atoms: C_12  and  O_13
REMARK    6  A    between atoms: O_13  and  P_14
REMARK    7  A    between atoms: P_14  and  O_15
REMARK    8  A    between atoms: P_14  and  O_16
REMARK                            x       y       z     vdW  Elec       q    Type
REMARK                         _______ _______ _______ _____ _____    ______ ____
ROOT
ATOM      1  C   UNL     1       8.018  -3.342  25.597  0.00  0.00    +0.177 C 
ATOM      2  C   UNL     1       6.732  -3.651  24.819  0.00  0.00    +0.176 C 
ATOM      3  O   UNL     1       7.013  -3.503  23.412  0.00  0.00    -0.361 OA
ATOM      4  C   UNL     1       8.405  -3.117  23.247  0.00  0.00    +0.186 C 
ATOM      5  C   UNL     1       9.102  -3.544  24.552  0.00  0.00    +0.179 C 
ENDROOT
BRANCH   4   6
ATOM      6  C   UNL     1       8.467  -1.645  22.902  0.00  0.00    +0.064 A 
ATOM      7  C   UNL     1       9.760  -1.108  22.404  0.00  0.00    +0.260 A 
ATOM      8  O   UNL     1      10.739  -1.829  22.261  0.00  0.00    -0.267 OA
ATOM      9  N   UNL     1       9.793   0.230  22.111  0.00  0.00    -0.275 N 
ATOM     10  H   UNL     1      10.661   0.611  21.768  0.00  0.00    +0.173 HD
ATOM     11  C   UNL     1       8.726   1.079  22.158  0.00  0.00    +0.327 A 
ATOM     12  O   UNL     1       8.802   2.254  21.817  0.00  0.00    -0.247 OA
ATOM     13  N   UNL     1       7.556   0.524  22.592  0.00  0.00    -0.314 N 
ATOM     14  H   UNL     1       6.760   1.148  22.619  0.00  0.00    +0.170 HD
ATOM     15  C   UNL     1       7.432  -0.790  22.947  0.00  0.00    +0.099 A 
ENDBRANCH   4   6
BRANCH   1  16
ATOM     16  O   UNL     1       8.050  -1.993  26.077  0.00  0.00    -0.386 OA
ATOM     17  H   UNL     1       7.399  -1.457  25.593  0.00  0.00    +0.210 HD
ENDBRANCH   1  16
BRANCH   5  18
ATOM     18  O   UNL     1       9.432  -4.941  24.485  0.00  0.00    -0.386 OA
ATOM     19  H   UNL     1      10.324  -5.045  24.866  0.00  0.00    +0.210 HD
ENDBRANCH   5  18
BRANCH   2  20
ATOM     20  C   UNL     1       6.193  -5.054  25.083  0.00  0.00    +0.206 C 
BRANCH  20  21
ATOM     21  O   UNL     1       6.034  -5.718  23.838  0.00  0.00    -0.284 OA
BRANCH  21  22
ATOM     22  P   UNL     1       4.391  -5.789  23.302  0.00  0.00    +0.472 P 
ATOM     23  O   UNL     1       2.920  -5.852  22.822  0.00  0.00    -0.228 OA
BRANCH  22  24
ATOM     24  O   UNL     1       4.458  -7.360  23.764  0.00  0.00    -0.303 OA
ATOM     25  H   UNL     1       4.900  -7.904  23.090  0.00  0.00    +0.222 HD
ENDBRANCH  22  24
BRANCH  22  26
ATOM     26  O   UNL     1       5.069  -6.063  21.840  0.00  0.00    -0.303 OA
ATOM     27  H   UNL     1       4.852  -5.285  21.293  0.00  0.00    +0.222 HD
ENDBRANCH  22  26
ENDBRANCH  21  22
ENDBRANCH  20  21
ENDBRANCH   2  20
TORSDOF 8
ENDMDL
MODEL 8
REMARK VINA RESULT:      -5.8      2.143      2.422
REMARK  Name = 
REMARK  8 active torsions:
REMARK  status: ('A' for Active; 'I' for Inactive)
REMARK    1  A    between atoms: O_1  and  C_2
REMARK    2  A    between atoms: C_4  and  O_6
REMARK    3  A    between atoms: C_7  and  C_18
REMARK    4  A    between atoms: C_10  and  C_12
REMARK    5  A    between atoms: C_12  and  O_13
REMARK    6  A    between atoms: O_13  and  P_14
REMARK    7  A    between atoms: P_14  and  O_15
REMARK    8  A    between atoms: P_14  and  O_16
REMARK                            x       y       z     vdW  Elec       q    Type
REMARK                         _______ _______ _______ _____ _____    ______ ____
ROOT
ATOM      1  C   UNL     1       7.703  -1.022  22.969  0.00  0.00    +0.177 C 
ATOM      2  C   UNL     1       8.433  -1.019  24.319  0.00  0.00    +0.176 C 
ATOM      3  O   UNL     1       8.931  -2.350  24.561  0.00  0.00    -0.361 OA
ATOM      4  C   UNL     1       8.561  -3.204  23.442  0.00  0.00    +0.186 C 
ATOM      5  C   UNL     1       8.283  -2.241  22.274  0.00  0.00    +0.179 C 
ENDROOT
BRANCH   4   6
ATOM      6  C   UNL     1       7.416  -4.096  23.867  0.00  0.00    +0.064 A 
ATOM      7  C   UNL     1       6.924  -5.098  22.885  0.00  0.00    +0.260 A 
ATOM      8  O   UNL     1       7.432  -5.211  21.778  0.00  0.00    -0.267 OA
ATOM      9  N   UNL     1       5.878  -5.885  23.288  0.00  0.00    -0.275 N 
ATOM     10  H   UNL     1       5.533  -6.573  22.637  0.00  0.00    +0.173 HD
ATOM     11  C   UNL     1       5.316  -5.883  24.532  0.00  0.00    +0.327 A 
ATOM     12  O   UNL     1       4.426  -6.660  24.856  0.00  0.00    -0.247 OA
ATOM     13  N   UNL     1       5.830  -4.964  25.403  0.00  0.00    -0.314 N 
ATOM     14  H   UNL     1       5.422  -4.965  26.330  0.00  0.00    +0.170 HD
ATOM     15  C   UNL     1       6.844  -4.107  25.082  0.00  0.00    +0.099 A 
ENDBRANCH   4   6
BRANCH   1  16
ATOM     16  O   UNL     1       6.286  -1.174  23.119  0.00  0.00    -0.386 OA
ATOM     17  H   UNL     1       5.840  -0.917  22.295  0.00  0.00    +0.210 HD
ENDBRANCH   1  16
BRANCH   5  18
ATOM     18  O   UNL     1       9.522  -1.876  21.646  0.00  0.00    -0.386 OA
ATOM     19  H   UNL     1       9.611  -0.908  21.723  0.00  0.00    +0.210 HD
ENDBRANCH   5  18
BRANCH   2  20
ATOM     20  C   UNL     1       9.591  -0.027  24.373  0.00  0.00    +0.206 C 
BRANCH  20  21
ATOM     21  O   UNL     1       9.626   0.692  23.149  0.00  0.00    -0.284 OA
BRANCH  21  22
ATOM     22  P   UNL     1      10.266   2.291  23.309  0.00  0.00    +0.472 P 
ATOM     23  O   UNL     1      10.838   3.723  23.452  0.00  0.00    -0.228 OA
BRANCH  22  24
ATOM     24  O   UNL     1       8.699   2.750  23.449  0.00  0.00    -0.303 OA
ATOM     25  H   UNL     1       8.544   3.607  23.015  0.00  0.00    +0.222 HD
ENDBRANCH  22  24
BRANCH  22  26
ATOM     26  O   UNL     1      10.241   2.270  21.675  0.00  0.00    -0.303 OA
ATOM     27  H   UNL     1       9.516   2.867  21.410  0.00  0.00    +0.222 HD
ENDBRANCH  22  26
ENDBRANCH  21  22
ENDBRANCH  20  21
ENDBRANCH   2  20
TORSDOF 8
ENDMDL
MODEL 9
REMARK VINA RESULT:      -5.8      2.928      4.231
REMARK  Name = 
REMARK  8 active torsions:
REMARK  status: ('A' for Active; 'I' for Inactive)
REMARK    1  A    between atoms: O_1  and  C_2
REMARK    2  A    between atoms: C_4  and  O_6
REMARK    3  A    between atoms: C_7  and  C_18
REMARK    4  A    between atoms: C_10  and  C_12
REMARK    5  A    between atoms: C_12  and  O_13
REMARK    6  A    between atoms: O_13  and  P_14
REMARK    7  A    between atoms: P_14  and  O_15
REMARK    8  A    between atoms: P_14  and  O_16
REMARK                            x       y       z     vdW  Elec       q    Type
REMARK                         _______ _______ _______ _____ _____    ______ ____
ROOT
ATOM      1  C   UNL     1       8.881  -4.908  24.647  0.00  0.00    +0.177 C 
ATOM      2  C   UNL     1       8.162  -3.574  24.400  0.00  0.00    +0.176 C 
ATOM      3  O   UNL     1       7.020  -3.512  25.277  0.00  0.00    -0.361 OA
ATOM      4  C   UNL     1       6.967  -4.729  26.072  0.00  0.00    +0.186 C 
ATOM      5  C   UNL     1       8.397  -5.301  26.032  0.00  0.00    +0.179 C 
ENDROOT
BRANCH   4   6
ATOM      6  C   UNL     1       5.872  -5.620  25.529  0.00  0.00    +0.064 A 
ATOM      7  C   UNL     1       5.290  -6.634  26.447  0.00  0.00    +0.260 A 
ATOM      8  O   UNL     1       5.670  -6.739  27.606  0.00  0.00    -0.267 OA
ATOM      9  N   UNL     1       4.309  -7.436  25.929  0.00  0.00    -0.275 N 
ATOM     10  H   UNL     1       3.900  -8.128  26.538  0.00  0.00    +0.173 HD
ATOM     11  C   UNL     1       3.769  -7.324  24.680  0.00  0.00    +0.327 A 
ATOM     12  O   UNL     1       2.843  -8.028  24.295  0.00  0.00    -0.247 OA
ATOM     13  N   UNL     1       4.320  -6.355  23.891  0.00  0.00    -0.314 N 
ATOM     14  H   UNL     1       3.916  -6.262  22.967  0.00  0.00    +0.170 HD
ATOM     15  C   UNL     1       5.330  -5.532  24.303  0.00  0.00    +0.099 A 
ENDBRANCH   4   6
BRANCH   1  16
ATOM     16  O   UNL     1       8.505  -5.911  23.696  0.00  0.00    -0.386 OA
ATOM     17  H   UNL     1       8.327  -6.748  24.157  0.00  0.00    +0.210 HD
ENDBRANCH   1  16
BRANCH   5  18
ATOM     18  O   UNL     1       9.206  -4.637  27.016  0.00  0.00    -0.386 OA
ATOM     19  H   UNL     1       9.495  -5.314  27.657  0.00  0.00    +0.210 HD
ENDBRANCH   5  18
BRANCH   2  20
ATOM     20  C   UNL     1       9.053  -2.359  24.640  0.00  0.00    +0.206 C 
BRANCH  20  21
ATOM     21  O   UNL     1       9.993  -2.272  23.580  0.00  0.00    -0.284 OA
BRANCH  21  22
ATOM     22  P   UNL     1      10.090  -0.697  22.873  0.00  0.00    +0.472 P 
ATOM     23  O   UNL     1      10.176   0.714  22.240  0.00  0.00    -0.228 OA
BRANCH  22  24
ATOM     24  O   UNL     1       8.453  -0.764  22.847  0.00  0.00    -0.303 OA
ATOM     25  H   UNL     1       8.063   0.011  23.287  0.00  0.00    +0.222 HD
ENDBRANCH  22  24
BRANCH  22  26
ATOM     26  O   UNL     1      10.268  -1.531  21.478  0.00  0.00    -0.303 OA
ATOM     27  H   UNL     1       9.983  -2.443  21.674  0.00  0.00    +0.222 HD
ENDBRANCH  22  26
ENDBRANCH  21  22
ENDBRANCH  20  21
ENDBRANCH   2  20
TORSDOF 8
ENDMDL
