MODEL 1
REMARK VINA RESULT:      -6.9      0.000      0.000
REMARK  Name = 
REMARK  20 active torsions:
REMARK  status: ('A' for Active; 'I' for Inactive)
REMARK    1  A    between atoms: C_1  and  C_2
REMARK    2  A    between atoms: C_2  and  C_3
REMARK    3  A    between atoms: C_3  and  C_5
REMARK    4  A    between atoms: C_3  and  C_6
REMARK    5  A    between atoms: C_6  and  N_8
REMARK    6  A    between atoms: C_6  and  C_22
REMARK    7  A    between atoms: C_9  and  C_11
REMARK    8  A    between atoms: C_11  and  O_13
REMARK    9  A    between atoms: C_11  and  C_14
REMARK   10  A    between atoms: C_14  and  C_15
REMARK   11  A    between atoms: C_18  and  O_19
REMARK   12  A    between atoms: C_28  and  O_48
REMARK   13  A    between atoms: C_35  and  C_37
REMARK   14  A    between atoms: N_39  and  C_40
REMARK   15  A    between atoms: C_40  and  C_41
REMARK   16  A    between atoms: C_41  and  C_42
REMARK   17  A    between atoms: C_42  and  C_43
REMARK   18  A    between atoms: C_43  and  N_44
REMARK   19  A    between atoms: O_48  and  S_49
REMARK   20  A    between atoms: S_49  and  O_50
REMARK                            x       y       z     vdW  Elec       q    Type
REMARK                         _______ _______ _______ _____ _____    ______ ____
ROOT
ATOM      1  C   UNL     1       5.420  -1.259  25.287  0.00  0.00    +0.237 C 
ATOM      2  N   UNL     1       4.897  -1.080  26.560  0.00  0.00    -0.285 N 
ATOM      3  C   UNL     1       4.437   0.286  26.913  0.00  0.00    +0.162 C 
ATOM      4  C   UNL     1       3.962   0.200  28.383  0.00  0.00    +0.037 C 
ATOM      5  C   UNL     1       3.743  -1.290  28.582  0.00  0.00    +0.012 C 
ATOM      6  C   UNL     1       3.770  -1.794  30.017  0.00  0.00    +0.008 C 
ATOM      7  C   UNL     1       3.548  -3.309  30.007  0.00  0.00    +0.034 C 
ATOM      8  C   UNL     1       4.511  -4.059  29.069  0.00  0.00    +0.154 C 
ATOM      9  C   UNL     1       4.639  -3.402  27.685  0.00  0.00    +0.057 C 
ATOM     10  C   UNL     1       4.879  -1.911  27.770  0.00  0.00    +0.083 C 
ATOM     11  O   UNL     1       5.550  -0.273  24.545  0.00  0.00    -0.274 OA
ENDROOT
BRANCH   3  12
ATOM     12  C   UNL     1       5.539   1.358  26.852  0.00  0.00    +0.234 C 
ATOM     13  N   UNL     1       5.281   2.357  25.943  0.00  0.00    -0.314 N 
ATOM     14  H   UNL     1       4.303   2.481  25.679  0.00  0.00    +0.149 HD
ATOM     15  O   UNL     1       6.620   1.185  27.408  0.00  0.00    -0.274 OA
BRANCH  13  16
ATOM     16  C   UNL     1       6.102   3.519  25.753  0.00  0.00    +0.104 C 
BRANCH  16  17
ATOM     17  C   UNL     1       7.136   3.444  24.638  0.00  0.00    +0.022 C 
BRANCH  17  18
ATOM     18  C   UNL     1       6.669   2.681  23.387  0.00  0.00    +0.038 C 
BRANCH  18  19
ATOM     19  C   UNL     1       6.694   3.542  22.135  0.00  0.00    +0.196 C 
BRANCH  19  20
ATOM     20  N   UNL     1       5.931   4.769  22.281  0.00  0.00    -0.276 N 
ATOM     21  H   UNL     1       5.311   4.759  23.078  0.00  0.00    +0.258 HD
ATOM     22  C   UNL     1       6.461   5.995  22.060  0.00  0.00    +0.376 C 
ATOM     23  N   UNL     1       7.568   6.299  21.492  0.00  0.00    -0.130 NA
ATOM     24  H   UNL     1       8.032   5.441  21.216  0.00  0.00    +0.306 HD
ATOM     25  N   UNL     1       5.665   6.987  22.501  0.00  0.00    -0.289 N 
ATOM     26  H   UNL     1       6.035   7.876  22.172  0.00  0.00    +0.255 HD
ATOM     27  H   UNL     1       4.712   6.868  22.183  0.00  0.00    +0.255 HD
ENDBRANCH  19  20
ENDBRANCH  18  19
ENDBRANCH  17  18
ENDBRANCH  16  17
ENDBRANCH  13  16
ENDBRANCH   3  12
BRANCH   8  28
ATOM     28  O   UNL     1       4.026  -5.396  28.924  0.00  0.00    -0.212 OA
BRANCH  28  29
ATOM     29  S   UNL     1       4.856  -6.617  29.611  0.00  0.00    +0.208 S 
ATOM     30  O   UNL     1       3.977  -7.351  30.485  0.00  0.00    -0.118 OA
ATOM     31  O   UNL     1       6.129  -6.095  30.068  0.00  0.00    -0.118 OA
BRANCH  29  32
ATOM     32  O   UNL     1       5.222  -7.544  28.350  0.00  0.00    -0.231 OA
ATOM     33  H   UNL     1       5.742  -6.998  27.727  0.00  0.00    +0.247 HD
ENDBRANCH  29  32
ENDBRANCH  28  29
ENDBRANCH   8  28
BRANCH   1  34
ATOM     34  C   UNL     1       5.928  -2.633  24.782  0.00  0.00    +0.162 C 
BRANCH  34  35
ATOM     35  N   UNL     1       7.354  -2.565  24.375  0.00  0.00    -0.302 N 
ATOM     36  H   UNL     1       7.602  -2.975  23.478  0.00  0.00    +0.150 HD
ATOM     37  C   UNL     1       8.435  -2.456  25.219  0.00  0.00    +0.243 C 
ATOM     38  O   UNL     1       8.338  -2.214  26.416  0.00  0.00    -0.273 OA
BRANCH  37  39
ATOM     39  C   UNL     1       9.806  -2.645  24.527  0.00  0.00    +0.204 C 
BRANCH  39  40
ATOM     40  O   UNL     1      10.079  -4.051  24.374  0.00  0.00    -0.382 OA
ATOM     41  H   UNL     1      10.807  -4.129  23.730  0.00  0.00    +0.210 HD
ENDBRANCH  39  40
BRANCH  39  42
ATOM     42  C   UNL     1       9.892  -1.995  23.138  0.00  0.00    +0.076 C 
BRANCH  42  43
ATOM     43  C   UNL     1      10.060  -0.494  23.032  0.00  0.00    -0.044 A 
ATOM     44  C   UNL     1      10.476   0.221  24.172  0.00  0.00    +0.007 A 
ATOM     45  C   UNL     1      10.632   1.609  24.139  0.00  0.00    +0.045 A 
ATOM     46  C   UNL     1      10.330   2.305  22.980  0.00  0.00    +0.117 A 
ATOM     47  C   UNL     1       9.898   1.626  21.844  0.00  0.00    +0.045 A 
ATOM     48  C   UNL     1       9.769   0.231  21.869  0.00  0.00    +0.007 A 
BRANCH  46  49
ATOM     49  O   UNL     1      10.536   3.652  22.996  0.00  0.00    -0.507 OA
ATOM     50  H   UNL     1      10.261   4.024  23.851  0.00  0.00    +0.292 HD
ENDBRANCH  46  49
ENDBRANCH  42  43
ENDBRANCH  39  42
ENDBRANCH  37  39
ENDBRANCH  34  35
BRANCH  34  51
ATOM     51  C   UNL     1       5.087  -3.063  23.527  0.00  0.00    +0.015 C 
ATOM     52  C   UNL     1       5.929  -3.011  22.240  0.00  0.00    +0.010 C 
BRANCH  51  54
ATOM     53  C   UNL     1       5.121  -5.481  24.474  0.00  0.00    +0.004 C 
ATOM     54  C   UNL     1       4.392  -4.445  23.633  0.00  0.00    +0.002 C 
ENDBRANCH  51  54
ENDBRANCH  34  51
ENDBRANCH   1  34
TORSDOF 18
ENDMDL
MODEL 2
REMARK VINA RESULT:      -6.7      2.747      6.806
REMARK  Name = 
REMARK  20 active torsions:
REMARK  status: ('A' for Active; 'I' for Inactive)
REMARK    1  A    between atoms: C_1  and  C_2
REMARK    2  A    between atoms: C_2  and  C_3
REMARK    3  A    between atoms: C_3  and  C_5
REMARK    4  A    between atoms: C_3  and  C_6
REMARK    5  A    between atoms: C_6  and  N_8
REMARK    6  A    between atoms: C_6  and  C_22
REMARK    7  A    between atoms: C_9  and  C_11
REMARK    8  A    between atoms: C_11  and  O_13
REMARK    9  A    between atoms: C_11  and  C_14
REMARK   10  A    between atoms: C_14  and  C_15
REMARK   11  A    between atoms: C_18  and  O_19
REMARK   12  A    between atoms: C_28  and  O_48
REMARK   13  A    between atoms: C_35  and  C_37
REMARK   14  A    between atoms: N_39  and  C_40
REMARK   15  A    between atoms: C_40  and  C_41
REMARK   16  A    between atoms: C_41  and  C_42
REMARK   17  A    between atoms: C_42  and  C_43
REMARK   18  A    between atoms: C_43  and  N_44
REMARK   19  A    between atoms: O_48  and  S_49
REMARK   20  A    between atoms: S_49  and  O_50
REMARK                            x       y       z     vdW  Elec       q    Type
REMARK                         _______ _______ _______ _____ _____    ______ ____
ROOT
ATOM      1  C   UNL     1       7.994   2.465  25.165  0.00  0.00    +0.237 C 
ATOM      2  N   UNL     1       8.594   1.877  24.059  0.00  0.00    -0.285 N 
ATOM      3  C   UNL     1       9.024   2.783  22.965  0.00  0.00    +0.162 C 
ATOM      4  C   UNL     1       9.600   1.863  21.863  0.00  0.00    +0.037 C 
ATOM      5  C   UNL     1       9.888   0.574  22.613  0.00  0.00    +0.012 C 
ATOM      6  C   UNL     1       9.977  -0.693  21.777  0.00  0.00    +0.008 C 
ATOM      7  C   UNL     1      10.255  -1.876  22.709  0.00  0.00    +0.034 C 
ATOM      8  C   UNL     1       9.260  -1.975  23.879  0.00  0.00    +0.154 C 
ATOM      9  C   UNL     1       9.015  -0.628  24.579  0.00  0.00    +0.057 C 
ATOM     10  C   UNL     1       8.725   0.489  23.601  0.00  0.00    +0.083 C 
ATOM     11  O   UNL     1       7.777   3.687  25.153  0.00  0.00    -0.274 OA
ENDROOT
BRANCH   3  12
ATOM     12  C   UNL     1       7.880   3.594  22.331  0.00  0.00    +0.234 C 
ATOM     13  N   UNL     1       7.999   4.951  22.524  0.00  0.00    -0.314 N 
ATOM     14  H   UNL     1       8.937   5.292  22.735  0.00  0.00    +0.149 HD
ATOM     15  O   UNL     1       6.874   3.038  21.902  0.00  0.00    -0.274 OA
BRANCH  13  16
ATOM     16  C   UNL     1       7.117   5.934  21.964  0.00  0.00    +0.104 C 
BRANCH  16  17
ATOM     17  C   UNL     1       6.583   6.991  22.920  0.00  0.00    +0.022 C 
BRANCH  17  18
ATOM     18  C   UNL     1       5.129   6.768  23.368  0.00  0.00    +0.038 C 
BRANCH  18  19
ATOM     19  C   UNL     1       4.872   5.342  23.827  0.00  0.00    +0.196 C 
BRANCH  19  20
ATOM     20  N   UNL     1       3.856   4.672  23.033  0.00  0.00    -0.276 N 
ATOM     21  H   UNL     1       3.684   5.121  22.145  0.00  0.00    +0.258 HD
ATOM     22  C   UNL     1       3.757   3.324  22.952  0.00  0.00    +0.376 C 
ATOM     23  N   UNL     1       4.323   2.434  23.678  0.00  0.00    -0.130 NA
ATOM     24  H   UNL     1       4.902   2.903  24.367  0.00  0.00    +0.306 HD
ATOM     25  N   UNL     1       2.925   2.927  21.971  0.00  0.00    -0.289 N 
ATOM     26  H   UNL     1       2.770   1.925  22.058  0.00  0.00    +0.255 HD
ATOM     27  H   UNL     1       2.043   3.421  22.011  0.00  0.00    +0.255 HD
ENDBRANCH  19  20
ENDBRANCH  18  19
ENDBRANCH  17  18
ENDBRANCH  16  17
ENDBRANCH  13  16
ENDBRANCH   3  12
BRANCH   8  28
ATOM     28  O   UNL     1       9.785  -2.916  24.820  0.00  0.00    -0.212 OA
BRANCH  28  29
ATOM     29  S   UNL     1       9.070  -4.372  24.964  0.00  0.00    +0.208 S 
ATOM     30  O   UNL     1       8.386  -4.684  23.735  0.00  0.00    -0.118 OA
ATOM     31  O   UNL     1       8.397  -4.418  26.247  0.00  0.00    -0.118 OA
BRANCH  29  32
ATOM     32  O   UNL     1      10.325  -5.364  25.122  0.00  0.00    -0.231 OA
ATOM     33  H   UNL     1      11.089  -4.824  25.408  0.00  0.00    +0.247 HD
ENDBRANCH  29  32
ENDBRANCH  28  29
ENDBRANCH   8  28
BRANCH   1  34
ATOM     34  C   UNL     1       7.506   1.641  26.382  0.00  0.00    +0.162 C 
BRANCH  34  35
ATOM     35  N   UNL     1       6.512   0.615  25.977  0.00  0.00    -0.302 N 
ATOM     36  H   UNL     1       5.658   0.945  25.534  0.00  0.00    +0.150 HD
ATOM     37  C   UNL     1       6.370  -0.639  26.525  0.00  0.00    +0.243 C 
ATOM     38  O   UNL     1       7.178  -1.134  27.301  0.00  0.00    -0.273 OA
BRANCH  37  39
ATOM     39  C   UNL     1       5.102  -1.396  26.063  0.00  0.00    +0.204 C 
BRANCH  39  40
ATOM     40  O   UNL     1       3.987  -0.486  26.017  0.00  0.00    -0.382 OA
ATOM     41  H   UNL     1       3.313  -0.894  25.443  0.00  0.00    +0.210 HD
ENDBRANCH  39  40
BRANCH  39  42
ATOM     42  C   UNL     1       5.239  -2.043  24.677  0.00  0.00    +0.076 C 
BRANCH  42  43
ATOM     43  C   UNL     1       5.048  -3.539  24.535  0.00  0.00    -0.044 A 
ATOM     44  C   UNL     1       4.869  -4.077  23.246  0.00  0.00    +0.007 A 
ATOM     45  C   UNL     1       4.672  -5.446  23.054  0.00  0.00    +0.045 A 
ATOM     46  C   UNL     1       4.606  -6.289  24.152  0.00  0.00    +0.117 A 
ATOM     47  C   UNL     1       4.760  -5.782  25.439  0.00  0.00    +0.045 A 
ATOM     48  C   UNL     1       4.986  -4.412  25.629  0.00  0.00    +0.007 A 
BRANCH  46  49
ATOM     49  O   UNL     1       4.448  -7.620  23.901  0.00  0.00    -0.507 OA
ATOM     50  H   UNL     1       3.895  -8.028  24.588  0.00  0.00    +0.292 HD
ENDBRANCH  46  49
ENDBRANCH  42  43
ENDBRANCH  39  42
ENDBRANCH  37  39
ENDBRANCH  34  35
BRANCH  34  51
ATOM     51  C   UNL     1       6.814   2.606  27.412  0.00  0.00    +0.015 C 
ATOM     52  C   UNL     1       5.288   2.636  27.216  0.00  0.00    +0.010 C 
BRANCH  51  54
ATOM     53  C   UNL     1       6.204   1.357  29.606  0.00  0.00    +0.004 C 
ATOM     54  C   UNL     1       7.137   2.331  28.903  0.00  0.00    +0.002 C 
ENDBRANCH  51  54
ENDBRANCH  34  51
ENDBRANCH   1  34
TORSDOF 18
ENDMDL
MODEL 3
REMARK VINA RESULT:      -6.7      2.319      5.926
REMARK  Name = 
REMARK  20 active torsions:
REMARK  status: ('A' for Active; 'I' for Inactive)
REMARK    1  A    between atoms: C_1  and  C_2
REMARK    2  A    between atoms: C_2  and  C_3
REMARK    3  A    between atoms: C_3  and  C_5
REMARK    4  A    between atoms: C_3  and  C_6
REMARK    5  A    between atoms: C_6  and  N_8
REMARK    6  A    between atoms: C_6  and  C_22
REMARK    7  A    between atoms: C_9  and  C_11
REMARK    8  A    between atoms: C_11  and  O_13
REMARK    9  A    between atoms: C_11  and  C_14
REMARK   10  A    between atoms: C_14  and  C_15
REMARK   11  A    between atoms: C_18  and  O_19
REMARK   12  A    between atoms: C_28  and  O_48
REMARK   13  A    between atoms: C_35  and  C_37
REMARK   14  A    between atoms: N_39  and  C_40
REMARK   15  A    between atoms: C_40  and  C_41
REMARK   16  A    between atoms: C_41  and  C_42
REMARK   17  A    between atoms: C_42  and  C_43
REMARK   18  A    between atoms: C_43  and  N_44
REMARK   19  A    between atoms: O_48  and  S_49
REMARK   20  A    between atoms: S_49  and  O_50
REMARK                            x       y       z     vdW  Elec       q    Type
REMARK                         _______ _______ _______ _____ _____    ______ ____
ROOT
ATOM      1  C   UNL     1       6.687  -0.500  26.061  0.00  0.00    +0.237 C 
ATOM      2  N   UNL     1       7.480  -1.447  25.425  0.00  0.00    -0.285 N 
ATOM      3  C   UNL     1       8.359  -0.963  24.332  0.00  0.00    +0.162 C 
ATOM      4  C   UNL     1       9.073  -2.221  23.784  0.00  0.00    +0.037 C 
ATOM      5  C   UNL     1       8.906  -3.225  24.911  0.00  0.00    +0.012 C 
ATOM      6  C   UNL     1       9.026  -4.694  24.537  0.00  0.00    +0.008 C 
ATOM      7  C   UNL     1       8.813  -5.539  25.795  0.00  0.00    +0.034 C 
ATOM      8  C   UNL     1       7.515  -5.196  26.547  0.00  0.00    +0.154 C 
ATOM      9  C   UNL     1       7.302  -3.683  26.725  0.00  0.00    +0.057 C 
ATOM     10  C   UNL     1       7.506  -2.914  25.438  0.00  0.00    +0.083 C 
ATOM     11  O   UNL     1       6.690   0.668  25.641  0.00  0.00    -0.274 OA
ENDROOT
BRANCH   3  12
ATOM     12  C   UNL     1       7.607  -0.316  23.157  0.00  0.00    +0.234 C 
ATOM     13  N   UNL     1       7.891   1.020  22.994  0.00  0.00    -0.314 N 
ATOM     14  H   UNL     1       8.769   1.344  23.401  0.00  0.00    +0.149 HD
ATOM     15  O   UNL     1       6.693  -0.907  22.590  0.00  0.00    -0.274 OA
BRANCH  13  16
ATOM     16  C   UNL     1       7.392   1.835  21.923  0.00  0.00    +0.104 C 
BRANCH  16  17
ATOM     17  C   UNL     1       6.488   2.994  22.317  0.00  0.00    +0.022 C 
BRANCH  17  18
ATOM     18  C   UNL     1       7.209   4.345  22.455  0.00  0.00    +0.038 C 
BRANCH  18  19
ATOM     19  C   UNL     1       8.192   4.367  23.615  0.00  0.00    +0.196 C 
BRANCH  19  20
ATOM     20  N   UNL     1       9.566   4.553  23.183  0.00  0.00    -0.276 N 
ATOM     21  H   UNL     1       9.888   5.506  23.280  0.00  0.00    +0.258 HD
ATOM     22  C   UNL     1      10.545   3.654  23.439  0.00  0.00    +0.376 C 
ATOM     23  N   UNL     1      10.437   2.450  23.858  0.00  0.00    -0.130 NA
ATOM     24  H   UNL     1       9.453   2.243  23.990  0.00  0.00    +0.306 HD
ATOM     25  N   UNL     1      11.773   4.144  23.181  0.00  0.00    -0.289 N 
ATOM     26  H   UNL     1      12.448   3.385  23.240  0.00  0.00    +0.255 HD
ATOM     27  H   UNL     1      11.816   4.577  22.268  0.00  0.00    +0.255 HD
ENDBRANCH  19  20
ENDBRANCH  18  19
ENDBRANCH  17  18
ENDBRANCH  16  17
ENDBRANCH  13  16
ENDBRANCH   3  12
BRANCH   8  28
ATOM     28  O   UNL     1       7.573  -5.827  27.829  0.00  0.00    -0.212 OA
BRANCH  28  29
ATOM     29  S   UNL     1       6.190  -6.335  28.523  0.00  0.00    +0.208 S 
ATOM     30  O   UNL     1       6.434  -7.582  29.202  0.00  0.00    -0.118 OA
ATOM     31  O   UNL     1       5.120  -6.185  27.557  0.00  0.00    -0.118 OA
BRANCH  29  32
ATOM     32  O   UNL     1       5.913  -5.196  29.623  0.00  0.00    -0.231 OA
ATOM     33  H   UNL     1       5.002  -4.868  29.481  0.00  0.00    +0.247 HD
ENDBRANCH  29  32
ENDBRANCH  28  29
ENDBRANCH   8  28
BRANCH   1  34
ATOM     34  C   UNL     1       5.729  -0.863  27.223  0.00  0.00    +0.162 C 
BRANCH  34  35
ATOM     35  N   UNL     1       4.633  -1.752  26.763  0.00  0.00    -0.302 N 
ATOM     36  H   UNL     1       4.063  -1.424  25.988  0.00  0.00    +0.150 HD
ATOM     37  C   UNL     1       3.994  -2.710  27.516  0.00  0.00    +0.243 C 
ATOM     38  O   UNL     1       4.384  -3.075  28.619  0.00  0.00    -0.273 OA
BRANCH  37  39
ATOM     39  C   UNL     1       2.738  -3.315  26.845  0.00  0.00    +0.204 C 
BRANCH  39  40
ATOM     40  O   UNL     1       1.566  -2.605  27.287  0.00  0.00    -0.382 OA
ATOM     41  H   UNL     1       1.638  -1.697  26.939  0.00  0.00    +0.210 HD
ENDBRANCH  39  40
BRANCH  39  42
ATOM     42  C   UNL     1       2.771  -3.262  25.310  0.00  0.00    +0.076 C 
BRANCH  42  43
ATOM     43  C   UNL     1       3.653  -4.232  24.554  0.00  0.00    -0.044 A 
ATOM     44  C   UNL     1       4.576  -3.719  23.621  0.00  0.00    +0.007 A 
ATOM     45  C   UNL     1       5.405  -4.566  22.882  0.00  0.00    +0.045 A 
ATOM     46  C   UNL     1       5.290  -5.939  23.031  0.00  0.00    +0.117 A 
ATOM     47  C   UNL     1       4.373  -6.474  23.931  0.00  0.00    +0.045 A 
ATOM     48  C   UNL     1       3.561  -5.623  24.694  0.00  0.00    +0.007 A 
BRANCH  46  49
ATOM     49  O   UNL     1       6.149  -6.713  22.310  0.00  0.00    -0.507 OA
ATOM     50  H   UNL     1       6.492  -7.437  22.860  0.00  0.00    +0.292 HD
ENDBRANCH  46  49
ENDBRANCH  42  43
ENDBRANCH  39  42
ENDBRANCH  37  39
ENDBRANCH  34  35
BRANCH  34  51
ATOM     51  C   UNL     1       5.082   0.454  27.786  0.00  0.00    +0.015 C 
ATOM     52  C   UNL     1       3.639   0.631  27.279  0.00  0.00    +0.010 C 
BRANCH  51  54
ATOM     53  C   UNL     1       3.876   0.090  30.057  0.00  0.00    +0.004 C 
ATOM     54  C   UNL     1       5.108   0.603  29.328  0.00  0.00    +0.002 C 
ENDBRANCH  51  54
ENDBRANCH  34  51
ENDBRANCH   1  34
TORSDOF 18
ENDMDL
MODEL 4
REMARK VINA RESULT:      -6.7      3.288      6.555
REMARK  Name = 
REMARK  20 active torsions:
REMARK  status: ('A' for Active; 'I' for Inactive)
REMARK    1  A    between atoms: C_1  and  C_2
REMARK    2  A    between atoms: C_2  and  C_3
REMARK    3  A    between atoms: C_3  and  C_5
REMARK    4  A    between atoms: C_3  and  C_6
REMARK    5  A    between atoms: C_6  and  N_8
REMARK    6  A    between atoms: C_6  and  C_22
REMARK    7  A    between atoms: C_9  and  C_11
REMARK    8  A    between atoms: C_11  and  O_13
REMARK    9  A    between atoms: C_11  and  C_14
REMARK   10  A    between atoms: C_14  and  C_15
REMARK   11  A    between atoms: C_18  and  O_19
REMARK   12  A    between atoms: C_28  and  O_48
REMARK   13  A    between atoms: C_35  and  C_37
REMARK   14  A    between atoms: N_39  and  C_40
REMARK   15  A    between atoms: C_40  and  C_41
REMARK   16  A    between atoms: C_41  and  C_42
REMARK   17  A    between atoms: C_42  and  C_43
REMARK   18  A    between atoms: C_43  and  N_44
REMARK   19  A    between atoms: O_48  and  S_49
REMARK   20  A    between atoms: S_49  and  O_50
REMARK                            x       y       z     vdW  Elec       q    Type
REMARK                         _______ _______ _______ _____ _____    ______ ____
ROOT
ATOM      1  C   UNL     1       6.883  -2.435  26.338  0.00  0.00    +0.237 C 
ATOM      2  N   UNL     1       5.694  -2.802  26.955  0.00  0.00    -0.285 N 
ATOM      3  C   UNL     1       5.638  -4.158  27.555  0.00  0.00    +0.162 C 
ATOM      4  C   UNL     1       4.203  -4.308  28.113  0.00  0.00    +0.037 C 
ATOM      5  C   UNL     1       3.724  -2.870  28.211  0.00  0.00    +0.012 C 
ATOM      6  C   UNL     1       2.219  -2.655  28.231  0.00  0.00    +0.008 C 
ATOM      7  C   UNL     1       1.940  -1.152  28.316  0.00  0.00    +0.034 C 
ATOM      8  C   UNL     1       2.668  -0.337  27.232  0.00  0.00    +0.154 C 
ATOM      9  C   UNL     1       4.147  -0.725  27.076  0.00  0.00    +0.057 C 
ATOM     10  C   UNL     1       4.346  -2.221  26.975  0.00  0.00    +0.083 C 
ATOM     11  O   UNL     1       7.797  -3.269  26.249  0.00  0.00    -0.274 OA
ENDROOT
BRANCH   3  12
ATOM     12  C   UNL     1       5.859  -5.303  26.551  0.00  0.00    +0.234 C 
ATOM     13  N   UNL     1       4.880  -5.384  25.589  0.00  0.00    -0.314 N 
ATOM     14  H   UNL     1       4.341  -4.533  25.426  0.00  0.00    +0.149 HD
ATOM     15  O   UNL     1       6.709  -6.165  26.754  0.00  0.00    -0.274 OA
BRANCH  13  16
ATOM     16  C   UNL     1       4.894  -6.303  24.487  0.00  0.00    +0.104 C 
BRANCH  16  17
ATOM     17  C   UNL     1       5.113  -5.702  23.105  0.00  0.00    +0.022 C 
BRANCH  17  18
ATOM     18  C   UNL     1       6.499  -5.985  22.502  0.00  0.00    +0.038 C 
BRANCH  18  19
ATOM     19  C   UNL     1       7.559  -5.010  22.989  0.00  0.00    +0.196 C 
BRANCH  19  20
ATOM     20  N   UNL     1       8.205  -5.448  24.214  0.00  0.00    -0.276 N 
ATOM     21  H   UNL     1       8.191  -6.450  24.334  0.00  0.00    +0.258 HD
ATOM     22  C   UNL     1       9.347  -4.892  24.682  0.00  0.00    +0.376 C 
ATOM     23  N   UNL     1       9.916  -3.805  24.318  0.00  0.00    -0.130 NA
ATOM     24  H   UNL     1       9.366  -3.387  23.576  0.00  0.00    +0.306 HD
ATOM     25  N   UNL     1       9.902  -5.614  25.674  0.00  0.00    -0.289 N 
ATOM     26  H   UNL     1      10.659  -5.076  26.088  0.00  0.00    +0.255 HD
ATOM     27  H   UNL     1       9.221  -5.857  26.382  0.00  0.00    +0.255 HD
ENDBRANCH  19  20
ENDBRANCH  18  19
ENDBRANCH  17  18
ENDBRANCH  16  17
ENDBRANCH  13  16
ENDBRANCH   3  12
BRANCH   8  28
ATOM     28  O   UNL     1       2.568   1.046  27.586  0.00  0.00    -0.212 OA
BRANCH  28  29
ATOM     29  S   UNL     1       1.899   2.086  26.528  0.00  0.00    +0.208 S 
ATOM     30  O   UNL     1       2.814   2.302  25.437  0.00  0.00    -0.118 OA
ATOM     31  O   UNL     1       1.329   3.187  27.279  0.00  0.00    -0.118 OA
BRANCH  29  32
ATOM     32  O   UNL     1       0.631   1.262  25.982  0.00  0.00    -0.231 OA
ATOM     33  H   UNL     1      -0.129   1.877  25.957  0.00  0.00    +0.247 HD
ENDBRANCH  29  32
ENDBRANCH  28  29
ENDBRANCH   8  28
BRANCH   1  34
ATOM     34  C   UNL     1       7.084  -1.048  25.679  0.00  0.00    +0.162 C 
BRANCH  34  35
ATOM     35  N   UNL     1       8.180  -1.079  24.678  0.00  0.00    -0.302 N 
ATOM     36  H   UNL     1       9.111  -0.825  25.001  0.00  0.00    +0.150 HD
ATOM     37  C   UNL     1       8.041  -0.944  23.316  0.00  0.00    +0.243 C 
ATOM     38  O   UNL     1       6.960  -0.966  22.741  0.00  0.00    -0.273 OA
BRANCH  37  39
ATOM     39  C   UNL     1       9.377  -0.781  22.552  0.00  0.00    +0.204 C 
BRANCH  39  40
ATOM     40  O   UNL     1       9.597  -1.931  21.714  0.00  0.00    -0.382 OA
ATOM     41  H   UNL     1      10.499  -1.851  21.356  0.00  0.00    +0.210 HD
ENDBRANCH  39  40
BRANCH  39  42
ATOM     42  C   UNL     1       9.430   0.469  21.661  0.00  0.00    +0.076 C 
BRANCH  42  43
ATOM     43  C   UNL     1       9.036   1.810  22.241  0.00  0.00    -0.044 A 
ATOM     44  C   UNL     1       9.822   2.355  23.276  0.00  0.00    +0.007 A 
ATOM     45  C   UNL     1       9.498   3.581  23.861  0.00  0.00    +0.045 A 
ATOM     46  C   UNL     1       8.360   4.257  23.451  0.00  0.00    +0.117 A 
ATOM     47  C   UNL     1       7.555   3.732  22.444  0.00  0.00    +0.045 A 
ATOM     48  C   UNL     1       7.895   2.516  21.837  0.00  0.00    +0.007 A 
BRANCH  46  49
ATOM     49  O   UNL     1       8.115   5.465  24.033  0.00  0.00    -0.507 OA
ATOM     50  H   UNL     1       8.507   5.495  24.922  0.00  0.00    +0.292 HD
ENDBRANCH  46  49
ENDBRANCH  42  43
ENDBRANCH  39  42
ENDBRANCH  37  39
ENDBRANCH  34  35
BRANCH  34  51
ATOM     51  C   UNL     1       7.469  -0.003  26.787  0.00  0.00    +0.015 C 
ATOM     52  C   UNL     1       8.864  -0.289  27.369  0.00  0.00    +0.010 C 
BRANCH  51  54
ATOM     53  C   UNL     1       6.333   1.803  25.305  0.00  0.00    +0.004 C 
ATOM     54  C   UNL     1       7.384   1.484  26.358  0.00  0.00    +0.002 C 
ENDBRANCH  51  54
ENDBRANCH  34  51
ENDBRANCH   1  34
TORSDOF 18
ENDMDL
MODEL 5
REMARK VINA RESULT:      -6.4      3.456      8.287
REMARK  Name = 
REMARK  20 active torsions:
REMARK  status: ('A' for Active; 'I' for Inactive)
REMARK    1  A    between atoms: C_1  and  C_2
REMARK    2  A    between atoms: C_2  and  C_3
REMARK    3  A    between atoms: C_3  and  C_5
REMARK    4  A    between atoms: C_3  and  C_6
REMARK    5  A    between atoms: C_6  and  N_8
REMARK    6  A    between atoms: C_6  and  C_22
REMARK    7  A    between atoms: C_9  and  C_11
REMARK    8  A    between atoms: C_11  and  O_13
REMARK    9  A    between atoms: C_11  and  C_14
REMARK   10  A    between atoms: C_14  and  C_15
REMARK   11  A    between atoms: C_18  and  O_19
REMARK   12  A    between atoms: C_28  and  O_48
REMARK   13  A    between atoms: C_35  and  C_37
REMARK   14  A    between atoms: N_39  and  C_40
REMARK   15  A    between atoms: C_40  and  C_41
REMARK   16  A    between atoms: C_41  and  C_42
REMARK   17  A    between atoms: C_42  and  C_43
REMARK   18  A    between atoms: C_43  and  N_44
REMARK   19  A    between atoms: O_48  and  S_49
REMARK   20  A    between atoms: S_49  and  O_50
REMARK                            x       y       z     vdW  Elec       q    Type
REMARK                         _______ _______ _______ _____ _____    ______ ____
ROOT
ATOM      1  C   UNL     1       7.041  -0.958  25.829  0.00  0.00    +0.237 C 
ATOM      2  N   UNL     1       6.108   0.050  26.032  0.00  0.00    -0.285 N 
ATOM      3  C   UNL     1       5.508   0.150  27.386  0.00  0.00    +0.162 C 
ATOM      4  C   UNL     1       4.484   1.307  27.304  0.00  0.00    +0.037 C 
ATOM      5  C   UNL     1       4.929   2.068  26.068  0.00  0.00    +0.012 C 
ATOM      6  C   UNL     1       3.883   2.944  25.396  0.00  0.00    +0.008 C 
ATOM      7  C   UNL     1       4.515   3.609  24.171  0.00  0.00    +0.034 C 
ATOM      8  C   UNL     1       5.191   2.609  23.216  0.00  0.00    +0.154 C 
ATOM      9  C   UNL     1       6.080   1.586  23.943  0.00  0.00    +0.057 C 
ATOM     10  C   UNL     1       5.385   0.953  25.128  0.00  0.00    +0.083 C 
ATOM     11  O   UNL     1       7.268  -1.762  26.746  0.00  0.00    -0.274 OA
ENDROOT
BRANCH   3  12
ATOM     12  C   UNL     1       4.743  -1.107  27.831  0.00  0.00    +0.234 C 
ATOM     13  N   UNL     1       4.334  -1.899  26.783  0.00  0.00    -0.314 N 
ATOM     14  H   UNL     1       4.844  -1.781  25.908  0.00  0.00    +0.149 HD
ATOM     15  O   UNL     1       4.364  -1.239  28.991  0.00  0.00    -0.274 OA
BRANCH  13  16
ATOM     16  C   UNL     1       3.680  -3.169  26.927  0.00  0.00    +0.104 C 
BRANCH  16  17
ATOM     17  C   UNL     1       4.494  -4.282  27.571  0.00  0.00    +0.022 C 
BRANCH  17  18
ATOM     18  C   UNL     1       5.737  -4.706  26.771  0.00  0.00    +0.038 C 
BRANCH  18  19
ATOM     19  C   UNL     1       6.770  -5.417  27.630  0.00  0.00    +0.196 C 
BRANCH  19  20
ATOM     20  N   UNL     1       7.913  -5.882  26.863  0.00  0.00    -0.276 N 
ATOM     21  H   UNL     1       7.673  -6.580  26.174  0.00  0.00    +0.258 HD
ATOM     22  C   UNL     1       8.896  -5.057  26.435  0.00  0.00    +0.376 C 
ATOM     23  N   UNL     1       9.137  -3.849  26.785  0.00  0.00    -0.130 NA
ATOM     24  H   UNL     1       8.443  -3.569  27.469  0.00  0.00    +0.306 HD
ATOM     25  N   UNL     1       9.707  -5.645  25.535  0.00  0.00    -0.289 N 
ATOM     26  H   UNL     1      10.508  -5.040  25.369  0.00  0.00    +0.255 HD
ATOM     27  H   UNL     1      10.018  -6.553  25.855  0.00  0.00    +0.255 HD
ENDBRANCH  19  20
ENDBRANCH  18  19
ENDBRANCH  17  18
ENDBRANCH  16  17
ENDBRANCH  13  16
ENDBRANCH   3  12
BRANCH   8  28
ATOM     28  O   UNL     1       5.980   3.357  22.287  0.00  0.00    -0.212 OA
BRANCH  28  29
ATOM     29  S   UNL     1       7.563   3.580  22.594  0.00  0.00    +0.208 S 
ATOM     30  O   UNL     1       8.323   2.560  21.916  0.00  0.00    -0.118 OA
ATOM     31  O   UNL     1       7.716   3.831  24.013  0.00  0.00    -0.118 OA
BRANCH  29  32
ATOM     32  O   UNL     1       7.860   4.995  21.892  0.00  0.00    -0.231 OA
ATOM     33  H   UNL     1       8.159   5.611  22.591  0.00  0.00    +0.247 HD
ENDBRANCH  29  32
ENDBRANCH  28  29
ENDBRANCH   8  28
BRANCH   1  34
ATOM     34  C   UNL     1       7.752  -1.171  24.469  0.00  0.00    +0.162 C 
BRANCH  34  35
ATOM     35  N   UNL     1       7.614  -2.574  24.002  0.00  0.00    -0.302 N 
ATOM     36  H   UNL     1       8.397  -3.200  24.174  0.00  0.00    +0.150 HD
ATOM     37  C   UNL     1       6.803  -3.015  22.982  0.00  0.00    +0.243 C 
ATOM     38  O   UNL     1       5.947  -2.319  22.450  0.00  0.00    -0.273 OA
BRANCH  37  39
ATOM     39  C   UNL     1       7.044  -4.485  22.566  0.00  0.00    +0.204 C 
BRANCH  39  40
ATOM     40  O   UNL     1       7.599  -5.216  23.676  0.00  0.00    -0.382 OA
ATOM     41  H   UNL     1       6.991  -5.956  23.858  0.00  0.00    +0.210 HD
ENDBRANCH  39  40
BRANCH  39  42
ATOM     42  C   UNL     1       5.772  -5.215  22.110  0.00  0.00    +0.076 C 
BRANCH  42  43
ATOM     43  C   UNL     1       4.709  -5.560  23.131  0.00  0.00    -0.044 A 
ATOM     44  C   UNL     1       4.828  -6.767  23.848  0.00  0.00    +0.007 A 
ATOM     45  C   UNL     1       3.870  -7.146  24.791  0.00  0.00    +0.045 A 
ATOM     46  C   UNL     1       2.757  -6.348  24.996  0.00  0.00    +0.117 A 
ATOM     47  C   UNL     1       2.603  -5.160  24.287  0.00  0.00    +0.045 A 
ATOM     48  C   UNL     1       3.579  -4.765  23.362  0.00  0.00    +0.007 A 
BRANCH  46  49
ATOM     49  O   UNL     1       1.874  -6.751  25.954  0.00  0.00    -0.507 OA
ATOM     50  H   UNL     1       1.910  -7.717  26.058  0.00  0.00    +0.292 HD
ENDBRANCH  46  49
ENDBRANCH  42  43
ENDBRANCH  39  42
ENDBRANCH  37  39
ENDBRANCH  34  35
BRANCH  34  51
ATOM     51  C   UNL     1       9.284  -0.865  24.636  0.00  0.00    +0.015 C 
ATOM     52  C   UNL     1      10.094  -1.375  23.431  0.00  0.00    +0.010 C 
BRANCH  51  54
ATOM     53  C   UNL     1      10.789   1.177  24.078  0.00  0.00    +0.004 C 
ATOM     54  C   UNL     1       9.640   0.619  24.905  0.00  0.00    +0.002 C 
ENDBRANCH  51  54
ENDBRANCH  34  51
ENDBRANCH   1  34
TORSDOF 18
ENDMDL
MODEL 6
REMARK VINA RESULT:      -6.3      3.486      6.328
REMARK  Name = 
REMARK  20 active torsions:
REMARK  status: ('A' for Active; 'I' for Inactive)
REMARK    1  A    between atoms: C_1  and  C_2
REMARK    2  A    between atoms: C_2  and  C_3
REMARK    3  A    between atoms: C_3  and  C_5
REMARK    4  A    between atoms: C_3  and  C_6
REMARK    5  A    between atoms: C_6  and  N_8
REMARK    6  A    between atoms: C_6  and  C_22
REMARK    7  A    between atoms: C_9  and  C_11
REMARK    8  A    between atoms: C_11  and  O_13
REMARK    9  A    between atoms: C_11  and  C_14
REMARK   10  A    between atoms: C_14  and  C_15
REMARK   11  A    between atoms: C_18  and  O_19
REMARK   12  A    between atoms: C_28  and  O_48
REMARK   13  A    between atoms: C_35  and  C_37
REMARK   14  A    between atoms: N_39  and  C_40
REMARK   15  A    between atoms: C_40  and  C_41
REMARK   16  A    between atoms: C_41  and  C_42
REMARK   17  A    between atoms: C_42  and  C_43
REMARK   18  A    between atoms: C_43  and  N_44
REMARK   19  A    between atoms: O_48  and  S_49
REMARK   20  A    between atoms: S_49  and  O_50
REMARK                            x       y       z     vdW  Elec       q    Type
REMARK                         _______ _______ _______ _____ _____    ______ ____
ROOT
ATOM      1  C   UNL     1       6.474  -3.606  27.018  0.00  0.00    +0.237 C 
ATOM      2  N   UNL     1       5.397  -3.703  27.890  0.00  0.00    -0.285 N 
ATOM      3  C   UNL     1       5.330  -4.914  28.744  0.00  0.00    +0.162 C 
ATOM      4  C   UNL     1       4.022  -4.777  29.559  0.00  0.00    +0.037 C 
ATOM      5  C   UNL     1       3.710  -3.295  29.454  0.00  0.00    +0.012 C 
ATOM      6  C   UNL     1       2.264  -2.887  29.689  0.00  0.00    +0.008 C 
ATOM      7  C   UNL     1       2.150  -1.369  29.525  0.00  0.00    +0.034 C 
ATOM      8  C   UNL     1       2.729  -0.856  28.195  0.00  0.00    +0.154 C 
ATOM      9  C   UNL     1       4.107  -1.454  27.866  0.00  0.00    +0.057 C 
ATOM     10  C   UNL     1       4.141  -2.958  28.027  0.00  0.00    +0.083 C 
ATOM     11  O   UNL     1       7.271  -4.553  26.939  0.00  0.00    -0.274 OA
ENDROOT
BRANCH   3  12
ATOM     12  C   UNL     1       5.244  -6.235  27.960  0.00  0.00    +0.234 C 
ATOM     13  N   UNL     1       4.489  -6.143  26.814  0.00  0.00    -0.314 N 
ATOM     14  H   UNL     1       4.368  -5.205  26.432  0.00  0.00    +0.149 HD
ATOM     15  O   UNL     1       5.634  -7.288  28.454  0.00  0.00    -0.274 OA
BRANCH  13  16
ATOM     16  C   UNL     1       4.322  -7.203  25.861  0.00  0.00    +0.104 C 
BRANCH  16  17
ATOM     17  C   UNL     1       3.903  -6.793  24.456  0.00  0.00    +0.022 C 
BRANCH  17  18
ATOM     18  C   UNL     1       3.352  -5.361  24.349  0.00  0.00    +0.038 C 
BRANCH  18  19
ATOM     19  C   UNL     1       4.214  -4.468  23.473  0.00  0.00    +0.196 C 
BRANCH  19  20
ATOM     20  N   UNL     1       5.401  -5.143  22.976  0.00  0.00    -0.276 N 
ATOM     21  H   UNL     1       5.392  -6.139  23.146  0.00  0.00    +0.258 HD
ATOM     22  C   UNL     1       5.986  -4.829  21.797  0.00  0.00    +0.376 C 
ATOM     23  N   UNL     1       5.789  -3.807  21.052  0.00  0.00    -0.130 NA
ATOM     24  H   UNL     1       5.083  -3.225  21.487  0.00  0.00    +0.306 HD
ATOM     25  N   UNL     1       6.901  -5.741  21.418  0.00  0.00    -0.289 N 
ATOM     26  H   UNL     1       7.414  -5.380  20.617  0.00  0.00    +0.255 HD
ATOM     27  H   UNL     1       7.541  -5.959  22.171  0.00  0.00    +0.255 HD
ENDBRANCH  19  20
ENDBRANCH  18  19
ENDBRANCH  17  18
ENDBRANCH  16  17
ENDBRANCH  13  16
ENDBRANCH   3  12
BRANCH   8  28
ATOM     28  O   UNL     1       2.832   0.568  28.283  0.00  0.00    -0.212 OA
BRANCH  28  29
ATOM     29  S   UNL     1       2.335   1.476  27.026  0.00  0.00    +0.208 S 
ATOM     30  O   UNL     1       3.394   1.551  26.053  0.00  0.00    -0.118 OA
ATOM     31  O   UNL     1       1.694   2.664  27.554  0.00  0.00    -0.118 OA
BRANCH  29  32
ATOM     32  O   UNL     1       1.135   0.599  26.415  0.00  0.00    -0.231 OA
ATOM     33  H   UNL     1       0.370   1.196  26.291  0.00  0.00    +0.247 HD
ENDBRANCH  29  32
ENDBRANCH  28  29
ENDBRANCH   8  28
BRANCH   1  34
ATOM     34  C   UNL     1       6.675  -2.393  26.076  0.00  0.00    +0.162 C 
BRANCH  34  35
ATOM     35  N   UNL     1       7.597  -2.722  24.960  0.00  0.00    -0.302 N 
ATOM     36  H   UNL     1       8.528  -3.050  25.207  0.00  0.00    +0.150 HD
ATOM     37  C   UNL     1       7.542  -2.214  23.683  0.00  0.00    +0.243 C 
ATOM     38  O   UNL     1       6.599  -1.558  23.256  0.00  0.00    -0.273 OA
BRANCH  37  39
ATOM     39  C   UNL     1       8.769  -2.557  22.806  0.00  0.00    +0.204 C 
BRANCH  39  40
ATOM     40  O   UNL     1       8.487  -2.230  21.432  0.00  0.00    -0.382 OA
ATOM     41  H   UNL     1       9.111  -1.527  21.176  0.00  0.00    +0.210 HD
ENDBRANCH  39  40
BRANCH  39  42
ATOM     42  C   UNL     1      10.049  -1.811  23.215  0.00  0.00    +0.076 C 
BRANCH  42  43
ATOM     43  C   UNL     1      10.079  -0.299  23.144  0.00  0.00    -0.044 A 
ATOM     44  C   UNL     1      10.225   0.429  24.341  0.00  0.00    +0.007 A 
ATOM     45  C   UNL     1      10.244   1.826  24.341  0.00  0.00    +0.045 A 
ATOM     46  C   UNL     1      10.071   2.513  23.150  0.00  0.00    +0.117 A 
ATOM     47  C   UNL     1       9.905   1.819  21.955  0.00  0.00    +0.045 A 
ATOM     48  C   UNL     1       9.915   0.418  21.952  0.00  0.00    +0.007 A 
BRANCH  46  49
ATOM     49  O   UNL     1      10.134   3.874  23.207  0.00  0.00    -0.507 OA
ATOM     50  H   UNL     1      10.804   4.205  22.586  0.00  0.00    +0.292 HD
ENDBRANCH  46  49
ENDBRANCH  42  43
ENDBRANCH  39  42
ENDBRANCH  37  39
ENDBRANCH  34  35
BRANCH  34  51
ATOM     51  C   UNL     1       7.306  -1.207  26.891  0.00  0.00    +0.015 C 
ATOM     52  C   UNL     1       8.836  -1.344  26.990  0.00  0.00    +0.010 C 
BRANCH  51  54
ATOM     53  C   UNL     1       6.685   1.247  27.471  0.00  0.00    +0.004 C 
ATOM     54  C   UNL     1       6.947   0.214  26.386  0.00  0.00    +0.002 C 
ENDBRANCH  51  54
ENDBRANCH  34  51
ENDBRANCH   1  34
TORSDOF 18
ENDMDL
MODEL 7
REMARK VINA RESULT:      -6.3      3.932      8.675
REMARK  Name = 
REMARK  20 active torsions:
REMARK  status: ('A' for Active; 'I' for Inactive)
REMARK    1  A    between atoms: C_1  and  C_2
REMARK    2  A    between atoms: C_2  and  C_3
REMARK    3  A    between atoms: C_3  and  C_5
REMARK    4  A    between atoms: C_3  and  C_6
REMARK    5  A    between atoms: C_6  and  N_8
REMARK    6  A    between atoms: C_6  and  C_22
REMARK    7  A    between atoms: C_9  and  C_11
REMARK    8  A    between atoms: C_11  and  O_13
REMARK    9  A    between atoms: C_11  and  C_14
REMARK   10  A    between atoms: C_14  and  C_15
REMARK   11  A    between atoms: C_18  and  O_19
REMARK   12  A    between atoms: C_28  and  O_48
REMARK   13  A    between atoms: C_35  and  C_37
REMARK   14  A    between atoms: N_39  and  C_40
REMARK   15  A    between atoms: C_40  and  C_41
REMARK   16  A    between atoms: C_41  and  C_42
REMARK   17  A    between atoms: C_42  and  C_43
REMARK   18  A    between atoms: C_43  and  N_44
REMARK   19  A    between atoms: O_48  and  S_49
REMARK   20  A    between atoms: S_49  and  O_50
REMARK                            x       y       z     vdW  Elec       q    Type
REMARK                         _______ _______ _______ _____ _____    ______ ____
ROOT
ATOM      1  C   UNL     1       7.118   1.748  24.272  0.00  0.00    +0.237 C 
ATOM      2  N   UNL     1       5.917   2.257  24.749  0.00  0.00    -0.285 N 
ATOM      3  C   UNL     1       5.807   2.458  26.215  0.00  0.00    +0.162 C 
ATOM      4  C   UNL     1       4.369   2.976  26.458  0.00  0.00    +0.037 C 
ATOM      5  C   UNL     1       3.952   3.477  25.087  0.00  0.00    +0.012 C 
ATOM      6  C   UNL     1       2.457   3.580  24.827  0.00  0.00    +0.008 C 
ATOM      7  C   UNL     1       2.243   4.084  23.397  0.00  0.00    +0.034 C 
ATOM      8  C   UNL     1       3.000   3.259  22.341  0.00  0.00    +0.154 C 
ATOM      9  C   UNL     1       4.460   2.976  22.729  0.00  0.00    +0.057 C 
ATOM     10  C   UNL     1       4.596   2.461  24.144  0.00  0.00    +0.083 C 
ATOM     11  O   UNL     1       7.996   1.416  25.083  0.00  0.00    -0.274 OA
ENDROOT
BRANCH   3  12
ATOM     12  C   UNL     1       5.975   1.172  27.043  0.00  0.00    +0.234 C 
ATOM     13  N   UNL     1       5.217   0.121  26.581  0.00  0.00    -0.314 N 
ATOM     14  H   UNL     1       4.919   0.178  25.607  0.00  0.00    +0.149 HD
ATOM     15  O   UNL     1       6.559   1.187  28.122  0.00  0.00    -0.274 OA
BRANCH  13  16
ATOM     16  C   UNL     1       5.255  -1.209  27.117  0.00  0.00    +0.104 C 
BRANCH  16  17
ATOM     17  C   UNL     1       4.277  -2.211  26.520  0.00  0.00    +0.022 C 
BRANCH  17  18
ATOM     18  C   UNL     1       4.000  -3.436  27.407  0.00  0.00    +0.038 C 
BRANCH  18  19
ATOM     19  C   UNL     1       5.255  -3.965  28.082  0.00  0.00    +0.196 C 
BRANCH  19  20
ATOM     20  N   UNL     1       5.108  -5.333  28.547  0.00  0.00    -0.276 N 
ATOM     21  H   UNL     1       4.179  -5.704  28.407  0.00  0.00    +0.258 HD
ATOM     22  C   UNL     1       6.066  -6.274  28.376  0.00  0.00    +0.376 C 
ATOM     23  N   UNL     1       7.287  -6.119  28.023  0.00  0.00    -0.130 NA
ATOM     24  H   UNL     1       7.454  -5.131  27.871  0.00  0.00    +0.306 HD
ATOM     25  N   UNL     1       5.621  -7.516  28.645  0.00  0.00    -0.289 N 
ATOM     26  H   UNL     1       6.414  -8.154  28.652  0.00  0.00    +0.255 HD
ATOM     27  H   UNL     1       5.137  -7.553  29.533  0.00  0.00    +0.255 HD
ENDBRANCH  19  20
ENDBRANCH  18  19
ENDBRANCH  17  18
ENDBRANCH  16  17
ENDBRANCH  13  16
ENDBRANCH   3  12
BRANCH   8  28
ATOM     28  O   UNL     1       2.961   3.985  21.109  0.00  0.00    -0.212 OA
BRANCH  28  29
ATOM     29  S   UNL     1       1.815   3.618  20.012  0.00  0.00    +0.208 S 
ATOM     30  O   UNL     1       0.727   4.554  20.136  0.00  0.00    -0.118 OA
ATOM     31  O   UNL     1       1.601   2.185  20.046  0.00  0.00    -0.118 OA
BRANCH  29  32
ATOM     32  O   UNL     1       2.569   3.887  18.617  0.00  0.00    -0.231 OA
ATOM     33  H   UNL     1       2.320   3.165  18.007  0.00  0.00    +0.247 HD
ENDBRANCH  29  32
ENDBRANCH  28  29
ENDBRANCH   8  28
BRANCH   1  34
ATOM     34  C   UNL     1       7.374   1.497  22.765  0.00  0.00    +0.162 C 
BRANCH  34  35
ATOM     35  N   UNL     1       7.995   0.168  22.536  0.00  0.00    -0.302 N 
ATOM     36  H   UNL     1       8.753   0.119  21.860  0.00  0.00    +0.150 HD
ATOM     37  C   UNL     1       7.399  -1.054  22.747  0.00  0.00    +0.243 C 
ATOM     38  O   UNL     1       6.332  -1.195  23.330  0.00  0.00    -0.273 OA
BRANCH  37  39
ATOM     39  C   UNL     1       8.203  -2.257  22.199  0.00  0.00    +0.204 C 
BRANCH  39  40
ATOM     40  O   UNL     1       9.492  -1.808  21.741  0.00  0.00    -0.382 OA
ATOM     41  H   UNL     1       9.342  -0.987  21.239  0.00  0.00    +0.210 HD
ENDBRANCH  39  40
BRANCH  39  42
ATOM     42  C   UNL     1       8.431  -3.370  23.233  0.00  0.00    +0.076 C 
BRANCH  42  43
ATOM     43  C   UNL     1       7.369  -4.431  23.428  0.00  0.00    -0.044 A 
ATOM     44  C   UNL     1       7.025  -5.249  22.334  0.00  0.00    +0.007 A 
ATOM     45  C   UNL     1       6.040  -6.234  22.449  0.00  0.00    +0.045 A 
ATOM     46  C   UNL     1       5.356  -6.382  23.645  0.00  0.00    +0.117 A 
ATOM     47  C   UNL     1       5.662  -5.574  24.736  0.00  0.00    +0.045 A 
ATOM     48  C   UNL     1       6.670  -4.606  24.629  0.00  0.00    +0.007 A 
BRANCH  46  49
ATOM     49  O   UNL     1       4.432  -7.383  23.708  0.00  0.00    -0.507 OA
ATOM     50  H   UNL     1       4.340  -7.811  22.841  0.00  0.00    +0.292 HD
ENDBRANCH  46  49
ENDBRANCH  42  43
ENDBRANCH  39  42
ENDBRANCH  37  39
ENDBRANCH  34  35
BRANCH  34  51
ATOM     51  C   UNL     1       8.361   2.593  22.222  0.00  0.00    +0.015 C 
ATOM     52  C   UNL     1       8.115   3.954  22.896  0.00  0.00    +0.010 C 
BRANCH  51  54
ATOM     53  C   UNL     1      10.668   3.036  23.328  0.00  0.00    +0.004 C 
ATOM     54  C   UNL     1       9.867   2.237  22.313  0.00  0.00    +0.002 C 
ENDBRANCH  51  54
ENDBRANCH  34  51
ENDBRANCH   1  34
TORSDOF 18
ENDMDL
MODEL 8
REMARK VINA RESULT:      -6.3      3.806      8.051
REMARK  Name = 
REMARK  20 active torsions:
REMARK  status: ('A' for Active; 'I' for Inactive)
REMARK    1  A    between atoms: C_1  and  C_2
REMARK    2  A    between atoms: C_2  and  C_3
REMARK    3  A    between atoms: C_3  and  C_5
REMARK    4  A    between atoms: C_3  and  C_6
REMARK    5  A    between atoms: C_6  and  N_8
REMARK    6  A    between atoms: C_6  and  C_22
REMARK    7  A    between atoms: C_9  and  C_11
REMARK    8  A    between atoms: C_11  and  O_13
REMARK    9  A    between atoms: C_11  and  C_14
REMARK   10  A    between atoms: C_14  and  C_15
REMARK   11  A    between atoms: C_18  and  O_19
REMARK   12  A    between atoms: C_28  and  O_48
REMARK   13  A    between atoms: C_35  and  C_37
REMARK   14  A    between atoms: N_39  and  C_40
REMARK   15  A    between atoms: C_40  and  C_41
REMARK   16  A    between atoms: C_41  and  C_42
REMARK   17  A    between atoms: C_42  and  C_43
REMARK   18  A    between atoms: C_43  and  N_44
REMARK   19  A    between atoms: O_48  and  S_49
REMARK   20  A    between atoms: S_49  and  O_50
REMARK                            x       y       z     vdW  Elec       q    Type
REMARK                         _______ _______ _______ _____ _____    ______ ____
ROOT
ATOM      1  C   UNL     1       6.996   1.914  24.394  0.00  0.00    +0.237 C 
ATOM      2  N   UNL     1       5.760   2.377  24.828  0.00  0.00    -0.285 N 
ATOM      3  C   UNL     1       5.592   2.578  26.289  0.00  0.00    +0.162 C 
ATOM      4  C   UNL     1       4.128   3.039  26.480  0.00  0.00    +0.037 C 
ATOM      5  C   UNL     1       3.738   3.518  25.093  0.00  0.00    +0.012 C 
ATOM      6  C   UNL     1       2.250   3.561  24.781  0.00  0.00    +0.008 C 
ATOM      7  C   UNL     1       2.065   4.052  23.343  0.00  0.00    +0.034 C 
ATOM      8  C   UNL     1       2.890   3.253  22.317  0.00  0.00    +0.154 C 
ATOM      9  C   UNL     1       4.346   3.031  22.756  0.00  0.00    +0.057 C 
ATOM     10  C   UNL     1       4.453   2.525  24.177  0.00  0.00    +0.083 C 
ATOM     11  O   UNL     1       7.858   1.620  25.237  0.00  0.00    -0.274 OA
ENDROOT
BRANCH   3  12
ATOM     12  C   UNL     1       5.783   1.303  27.127  0.00  0.00    +0.234 C 
ATOM     13  N   UNL     1       5.113   0.211  26.623  0.00  0.00    -0.314 N 
ATOM     14  H   UNL     1       4.871   0.253  25.633  0.00  0.00    +0.149 HD
ATOM     15  O   UNL     1       6.300   1.349  28.239  0.00  0.00    -0.274 OA
BRANCH  13  16
ATOM     16  C   UNL     1       5.195  -1.116  27.164  0.00  0.00    +0.104 C 
BRANCH  16  17
ATOM     17  C   UNL     1       5.595  -2.220  26.195  0.00  0.00    +0.022 C 
BRANCH  17  18
ATOM     18  C   UNL     1       4.759  -3.505  26.315  0.00  0.00    +0.038 C 
BRANCH  18  19
ATOM     19  C   UNL     1       3.861  -3.732  25.110  0.00  0.00    +0.196 C 
BRANCH  19  20
ATOM     20  N   UNL     1       4.242  -4.901  24.337  0.00  0.00    -0.276 N 
ATOM     21  H   UNL     1       3.637  -5.695  24.491  0.00  0.00    +0.258 HD
ATOM     22  C   UNL     1       4.674  -4.827  23.056  0.00  0.00    +0.376 C 
ATOM     23  N   UNL     1       5.038  -3.796  22.392  0.00  0.00    -0.130 NA
ATOM     24  H   UNL     1       4.950  -2.981  22.990  0.00  0.00    +0.306 HD
ATOM     25  N   UNL     1       4.722  -6.033  22.459  0.00  0.00    -0.289 N 
ATOM     26  H   UNL     1       5.195  -5.938  21.563  0.00  0.00    +0.255 HD
ATOM     27  H   UNL     1       5.201  -6.714  23.035  0.00  0.00    +0.255 HD
ENDBRANCH  19  20
ENDBRANCH  18  19
ENDBRANCH  17  18
ENDBRANCH  16  17
ENDBRANCH  13  16
ENDBRANCH   3  12
BRANCH   8  28
ATOM     28  O   UNL     1       2.864   3.973  21.081  0.00  0.00    -0.212 OA
BRANCH  28  29
ATOM     29  S   UNL     1       1.750   3.580  19.961  0.00  0.00    +0.208 S 
ATOM     30  O   UNL     1       0.661   4.521  20.029  0.00  0.00    -0.118 OA
ATOM     31  O   UNL     1       1.531   2.149  20.026  0.00  0.00    -0.118 OA
BRANCH  29  32
ATOM     32  O   UNL     1       2.545   3.811  18.583  0.00  0.00    -0.231 OA
ATOM     33  H   UNL     1       3.457   3.484  18.713  0.00  0.00    +0.247 HD
ENDBRANCH  29  32
ENDBRANCH  28  29
ENDBRANCH   8  28
BRANCH   1  34
ATOM     34  C   UNL     1       7.314   1.669  22.898  0.00  0.00    +0.162 C 
BRANCH  34  35
ATOM     35  N   UNL     1       8.088   0.417  22.708  0.00  0.00    -0.302 N 
ATOM     36  H   UNL     1       8.972   0.488  22.211  0.00  0.00    +0.150 HD
ATOM     37  C   UNL     1       7.575  -0.860  22.689  0.00  0.00    +0.243 C 
ATOM     38  O   UNL     1       6.426  -1.133  23.014  0.00  0.00    -0.273 OA
BRANCH  37  39
ATOM     39  C   UNL     1       8.583  -1.944  22.238  0.00  0.00    +0.204 C 
BRANCH  39  40
ATOM     40  O   UNL     1       9.427  -1.416  21.198  0.00  0.00    -0.382 OA
ATOM     41  H   UNL     1       9.001  -0.601  20.876  0.00  0.00    +0.210 HD
ENDBRANCH  39  40
BRANCH  39  42
ATOM     42  C   UNL     1       9.491  -2.453  23.369  0.00  0.00    +0.076 C 
BRANCH  42  43
ATOM     43  C   UNL     1       8.938  -3.439  24.376  0.00  0.00    -0.044 A 
ATOM     44  C   UNL     1       9.193  -3.221  25.744  0.00  0.00    +0.007 A 
ATOM     45  C   UNL     1       8.724  -4.105  26.718  0.00  0.00    +0.045 A 
ATOM     46  C   UNL     1       8.033  -5.243  26.334  0.00  0.00    +0.117 A 
ATOM     47  C   UNL     1       7.784  -5.494  24.988  0.00  0.00    +0.045 A 
ATOM     48  C   UNL     1       8.230  -4.592  24.013  0.00  0.00    +0.007 A 
BRANCH  46  49
ATOM     49  O   UNL     1       7.568  -6.050  27.330  0.00  0.00    -0.507 OA
ATOM     50  H   UNL     1       8.280  -6.249  27.960  0.00  0.00    +0.292 HD
ENDBRANCH  46  49
ENDBRANCH  42  43
ENDBRANCH  39  42
ENDBRANCH  37  39
ENDBRANCH  34  35
BRANCH  34  51
ATOM     51  C   UNL     1       8.180   2.861  22.354  0.00  0.00    +0.015 C 
ATOM     52  C   UNL     1       7.871   4.169  23.103  0.00  0.00    +0.010 C 
BRANCH  51  54
ATOM     53  C   UNL     1      10.474   3.222  23.518  0.00  0.00    +0.004 C 
ATOM     54  C   UNL     1       9.712   2.622  22.346  0.00  0.00    +0.002 C 
ENDBRANCH  51  54
ENDBRANCH  34  51
ENDBRANCH   1  34
TORSDOF 18
ENDMDL
MODEL 9
REMARK VINA RESULT:      -6.2      1.781      2.297
REMARK  Name = 
REMARK  20 active torsions:
REMARK  status: ('A' for Active; 'I' for Inactive)
REMARK    1  A    between atoms: C_1  and  C_2
REMARK    2  A    between atoms: C_2  and  C_3
REMARK    3  A    between atoms: C_3  and  C_5
REMARK    4  A    between atoms: C_3  and  C_6
REMARK    5  A    between atoms: C_6  and  N_8
REMARK    6  A    between atoms: C_6  and  C_22
REMARK    7  A    between atoms: C_9  and  C_11
REMARK    8  A    between atoms: C_11  and  O_13
REMARK    9  A    between atoms: C_11  and  C_14
REMARK   10  A    between atoms: C_14  and  C_15
REMARK   11  A    between atoms: C_18  and  O_19
REMARK   12  A    between atoms: C_28  and  O_48
REMARK   13  A    between atoms: C_35  and  C_37
REMARK   14  A    between atoms: N_39  and  C_40
REMARK   15  A    between atoms: C_40  and  C_41
REMARK   16  A    between atoms: C_41  and  C_42
REMARK   17  A    between atoms: C_42  and  C_43
REMARK   18  A    between atoms: C_43  and  N_44
REMARK   19  A    between atoms: O_48  and  S_49
REMARK   20  A    between atoms: S_49  and  O_50
REMARK                            x       y       z     vdW  Elec       q    Type
REMARK                         _______ _______ _______ _____ _____    ______ ____
ROOT
ATOM      1  C   UNL     1       5.969  -0.783  25.110  0.00  0.00    +0.237 C 
ATOM      2  N   UNL     1       5.213  -0.790  26.274  0.00  0.00    -0.285 N 
ATOM      3  C   UNL     1       4.416   0.428  26.566  0.00  0.00    +0.162 C 
ATOM      4  C   UNL     1       3.731   0.160  27.927  0.00  0.00    +0.037 C 
ATOM      5  C   UNL     1       3.810  -1.351  28.057  0.00  0.00    +0.012 C 
ATOM      6  C   UNL     1       3.704  -1.919  29.464  0.00  0.00    +0.008 C 
ATOM      7  C   UNL     1       3.821  -3.443  29.386  0.00  0.00    +0.034 C 
ATOM      8  C   UNL     1       5.067  -3.919  28.619  0.00  0.00    +0.154 C 
ATOM      9  C   UNL     1       5.280  -3.173  27.292  0.00  0.00    +0.057 C 
ATOM     10  C   UNL     1       5.173  -1.672  27.446  0.00  0.00    +0.083 C 
ATOM     11  O   UNL     1       6.006   0.249  24.421  0.00  0.00    -0.274 OA
ENDROOT
BRANCH   3  12
ATOM     12  C   UNL     1       5.254   1.708  26.721  0.00  0.00    +0.234 C 
ATOM     13  N   UNL     1       4.987   2.656  25.760  0.00  0.00    -0.314 N 
ATOM     14  H   UNL     1       4.083   2.578  25.293  0.00  0.00    +0.149 HD
ATOM     15  O   UNL     1       6.204   1.752  27.495  0.00  0.00    -0.274 OA
BRANCH  13  16
ATOM     16  C   UNL     1       5.565   3.969  25.727  0.00  0.00    +0.104 C 
BRANCH  16  17
ATOM     17  C   UNL     1       4.641   5.126  26.081  0.00  0.00    +0.022 C 
BRANCH  17  18
ATOM     18  C   UNL     1       3.423   5.274  25.154  0.00  0.00    +0.038 C 
BRANCH  18  19
ATOM     19  C   UNL     1       3.813   5.377  23.688  0.00  0.00    +0.196 C 
BRANCH  19  20
ATOM     20  N   UNL     1       2.959   4.582  22.823  0.00  0.00    -0.276 N 
ATOM     21  H   UNL     1       2.559   5.114  22.063  0.00  0.00    +0.258 HD
ATOM     22  C   UNL     1       3.257   3.313  22.459  0.00  0.00    +0.376 C 
ATOM     23  N   UNL     1       4.142   2.527  22.946  0.00  0.00    -0.130 NA
ATOM     24  H   UNL     1       4.631   3.015  23.689  0.00  0.00    +0.306 HD
ATOM     25  N   UNL     1       2.472   2.866  21.460  0.00  0.00    -0.289 N 
ATOM     26  H   UNL     1       2.633   1.869  21.337  0.00  0.00    +0.255 HD
ATOM     27  H   UNL     1       1.494   3.040  21.650  0.00  0.00    +0.255 HD
ENDBRANCH  19  20
ENDBRANCH  18  19
ENDBRANCH  17  18
ENDBRANCH  16  17
ENDBRANCH  13  16
ENDBRANCH   3  12
BRANCH   8  28
ATOM     28  O   UNL     1       4.915  -5.319  28.365  0.00  0.00    -0.212 OA
BRANCH  28  29
ATOM     29  S   UNL     1       6.030  -6.353  28.947  0.00  0.00    +0.208 S 
ATOM     30  O   UNL     1       5.623  -7.702  28.647  0.00  0.00    -0.118 OA
ATOM     31  O   UNL     1       6.371  -5.937  30.293  0.00  0.00    -0.118 OA
BRANCH  29  32
ATOM     32  O   UNL     1       7.328  -5.999  28.067  0.00  0.00    -0.231 OA
ATOM     33  H   UNL     1       7.228  -5.077  27.757  0.00  0.00    +0.247 HD
ENDBRANCH  29  32
ENDBRANCH  28  29
ENDBRANCH   8  28
BRANCH   1  34
ATOM     34  C   UNL     1       6.841  -1.988  24.676  0.00  0.00    +0.162 C 
BRANCH  34  35
ATOM     35  N   UNL     1       8.054  -1.543  23.945  0.00  0.00    -0.302 N 
ATOM     36  H   UNL     1       7.915  -0.930  23.145  0.00  0.00    +0.150 HD
ATOM     37  C   UNL     1       9.263  -2.198  23.902  0.00  0.00    +0.243 C 
ATOM     38  O   UNL     1       9.544  -3.147  24.623  0.00  0.00    -0.273 OA
BRANCH  37  39
ATOM     39  C   UNL     1      10.264  -1.621  22.873  0.00  0.00    +0.204 C 
BRANCH  39  40
ATOM     40  O   UNL     1       9.717  -1.747  21.546  0.00  0.00    -0.382 OA
ATOM     41  H   UNL     1       8.988  -2.391  21.602  0.00  0.00    +0.210 HD
ENDBRANCH  39  40
BRANCH  39  42
ATOM     42  C   UNL     1      10.605  -0.141  23.104  0.00  0.00    +0.076 C 
BRANCH  42  43
ATOM     43  C   UNL     1       9.583   0.919  22.750  0.00  0.00    -0.044 A 
ATOM     44  C   UNL     1       9.230   1.869  23.728  0.00  0.00    +0.007 A 
ATOM     45  C   UNL     1       8.282   2.860  23.465  0.00  0.00    +0.045 A 
ATOM     46  C   UNL     1       7.641   2.886  22.237  0.00  0.00    +0.117 A 
ATOM     47  C   UNL     1       7.956   1.948  21.259  0.00  0.00    +0.045 A 
ATOM     48  C   UNL     1       8.928   0.971  21.513  0.00  0.00    +0.007 A 
BRANCH  46  49
ATOM     49  O   UNL     1       6.752   3.898  22.025  0.00  0.00    -0.507 OA
ATOM     50  H   UNL     1       6.301   3.776  21.173  0.00  0.00    +0.292 HD
ENDBRANCH  46  49
ENDBRANCH  42  43
ENDBRANCH  39  42
ENDBRANCH  37  39
ENDBRANCH  34  35
BRANCH  34  51
ATOM     51  C   UNL     1       6.005  -2.907  23.714  0.00  0.00    +0.015 C 
ATOM     52  C   UNL     1       6.167  -2.478  22.246  0.00  0.00    +0.010 C 
BRANCH  51  54
ATOM     53  C   UNL     1       6.691  -5.127  22.554  0.00  0.00    +0.004 C 
ATOM     54  C   UNL     1       6.281  -4.428  23.840  0.00  0.00    +0.002 C 
ENDBRANCH  51  54
ENDBRANCH  34  51
ENDBRANCH   1  34
TORSDOF 18
ENDMDL
