MODEL 1
REMARK VINA RESULT:      -4.1      0.000      0.000
REMARK  Name = 
REMARK  4 active torsions:
REMARK  status: ('A' for Active; 'I' for Inactive)
REMARK    1  A    between atoms: O_1  and  C_2
REMARK    2  A    between atoms: C_2  and  C_3
REMARK    3  A    between atoms: C_8  and  O_10
REMARK    4  A    between atoms: C_11  and  O_13
REMARK                            x       y       z     vdW  Elec       q    Type
REMARK                         _______ _______ _______ _____ _____    ______ ____
ROOT
ATOM      1  C   UNL     1      10.065  -0.480  23.617  0.00  0.00    +0.059 C 
ATOM      2  C   UNL     1      10.195  -0.331  22.087  0.00  0.00    +0.151 C 
ATOM      3  C   UNL     1       9.315   0.787  21.497  0.00  0.00    +0.157 C 
ATOM      4  C   UNL     1       7.885   0.750  22.071  0.00  0.00    +0.114 C 
ATOM      5  N   UNL     1       7.852   0.705  23.541  0.00  0.00    -0.313 NA
ATOM      6  H   UNL     1       8.320   1.542  23.903  0.00  0.00    +0.122 HD
ATOM      7  C   UNL     1       8.583  -0.469  24.027  0.00  0.00    +0.089 C 
ENDROOT
BRANCH   2   8
ATOM      8  O   UNL     1       9.833  -1.592  21.501  0.00  0.00    -0.389 OA
ATOM      9  H   UNL     1      10.174  -1.599  20.589  0.00  0.00    +0.210 HD
ENDBRANCH   2   8
BRANCH   3  10
ATOM     10  O   UNL     1       9.903   2.072  21.705  0.00  0.00    -0.388 OA
ATOM     11  H   UNL     1      10.332   2.045  22.589  0.00  0.00    +0.210 HD
ENDBRANCH   3  10
BRANCH   1  12
ATOM     12  C   UNL     1      10.899   0.549  24.398  0.00  0.00    +0.163 C 
BRANCH  12  13
ATOM     13  O   UNL     1      10.142   1.690  24.790  0.00  0.00    -0.395 OA
ATOM     14  H   UNL     1       9.518   1.385  25.477  0.00  0.00    +0.209 HD
ENDBRANCH  12  13
ENDBRANCH   1  12
TORSDOF 4
ENDMDL
MODEL 2
REMARK VINA RESULT:      -4.1      1.815      3.177
REMARK  Name = 
REMARK  4 active torsions:
REMARK  status: ('A' for Active; 'I' for Inactive)
REMARK    1  A    between atoms: O_1  and  C_2
REMARK    2  A    between atoms: C_2  and  C_3
REMARK    3  A    between atoms: C_8  and  O_10
REMARK    4  A    between atoms: C_11  and  O_13
REMARK                            x       y       z     vdW  Elec       q    Type
REMARK                         _______ _______ _______ _____ _____    ______ ____
ROOT
ATOM      1  C   UNL     1      10.005   0.534  23.104  0.00  0.00    +0.059 C 
ATOM      2  C   UNL     1       8.803   0.769  24.042  0.00  0.00    +0.151 C 
ATOM      3  C   UNL     1       7.537   1.259  23.314  0.00  0.00    +0.157 C 
ATOM      4  C   UNL     1       7.856   2.377  22.304  0.00  0.00    +0.114 C 
ATOM      5  N   UNL     1       8.952   2.032  21.385  0.00  0.00    -0.313 NA
ATOM      6  H   UNL     1       8.685   1.194  20.860  0.00  0.00    +0.122 HD
ATOM      7  C   UNL     1      10.168   1.723  22.143  0.00  0.00    +0.089 C 
ENDROOT
BRANCH   2   8
ATOM      8  O   UNL     1       9.206   1.742  25.020  0.00  0.00    -0.389 OA
ATOM      9  H   UNL     1       9.805   1.298  25.646  0.00  0.00    +0.210 HD
ENDBRANCH   2   8
BRANCH   3  10
ATOM     10  O   UNL     1       6.862   0.179  22.667  0.00  0.00    -0.388 OA
ATOM     11  H   UNL     1       5.920   0.444  22.586  0.00  0.00    +0.210 HD
ENDBRANCH   3  10
BRANCH   1  12
ATOM     12  C   UNL     1       9.942  -0.813  22.367  0.00  0.00    +0.163 C 
BRANCH  12  13
ATOM     13  O   UNL     1       9.453  -0.693  21.035  0.00  0.00    -0.395 OA
ATOM     14  H   UNL     1       9.117   0.221  20.946  0.00  0.00    +0.209 HD
ENDBRANCH  12  13
ENDBRANCH   1  12
TORSDOF 4
ENDMDL
MODEL 3
REMARK VINA RESULT:      -4.0      1.351      2.626
REMARK  Name = 
REMARK  4 active torsions:
REMARK  status: ('A' for Active; 'I' for Inactive)
REMARK    1  A    between atoms: O_1  and  C_2
REMARK    2  A    between atoms: C_2  and  C_3
REMARK    3  A    between atoms: C_8  and  O_10
REMARK    4  A    between atoms: C_11  and  O_13
REMARK                            x       y       z     vdW  Elec       q    Type
REMARK                         _______ _______ _______ _____ _____    ______ ____
ROOT
ATOM      1  C   UNL     1       9.360  -0.140  21.990  0.00  0.00    +0.059 C 
ATOM      2  C   UNL     1      10.135   1.173  22.226  0.00  0.00    +0.151 C 
ATOM      3  C   UNL     1      10.192   1.601  23.705  0.00  0.00    +0.157 C 
ATOM      4  C   UNL     1       8.817   1.475  24.388  0.00  0.00    +0.114 C 
ATOM      5  N   UNL     1       8.191   0.158  24.193  0.00  0.00    -0.313 NA
ATOM      6  H   UNL     1       8.809  -0.558  24.585  0.00  0.00    +0.122 HD
ATOM      7  C   UNL     1       8.030  -0.117  22.762  0.00  0.00    +0.089 C 
ENDROOT
BRANCH   2   8
ATOM      8  O   UNL     1       9.490   2.197  21.450  0.00  0.00    -0.389 OA
ATOM      9  H   UNL     1       9.943   2.241  20.590  0.00  0.00    +0.210 HD
ENDBRANCH   2   8
BRANCH   3  10
ATOM     10  O   UNL     1      11.175   0.854  24.421  0.00  0.00    -0.388 OA
ATOM     11  H   UNL     1      11.407   0.081  23.859  0.00  0.00    +0.210 HD
ENDBRANCH   3  10
BRANCH   1  12
ATOM     12  C   UNL     1      10.193  -1.396  22.291  0.00  0.00    +0.163 C 
BRANCH  12  13
ATOM     13  O   UNL     1      10.055  -1.841  23.638  0.00  0.00    -0.395 OA
ATOM     14  H   UNL     1       9.466  -2.620  23.612  0.00  0.00    +0.209 HD
ENDBRANCH  12  13
ENDBRANCH   1  12
TORSDOF 4
ENDMDL
MODEL 4
REMARK VINA RESULT:      -4.0      1.684      2.962
REMARK  Name = 
REMARK  4 active torsions:
REMARK  status: ('A' for Active; 'I' for Inactive)
REMARK    1  A    between atoms: O_1  and  C_2
REMARK    2  A    between atoms: C_2  and  C_3
REMARK    3  A    between atoms: C_8  and  O_10
REMARK    4  A    between atoms: C_11  and  O_13
REMARK                            x       y       z     vdW  Elec       q    Type
REMARK                         _______ _______ _______ _____ _____    ______ ____
ROOT
ATOM      1  C   UNL     1       8.725  -0.292  22.920  0.00  0.00    +0.059 C 
ATOM      2  C   UNL     1       8.313   1.185  22.753  0.00  0.00    +0.151 C 
ATOM      3  C   UNL     1       9.496   2.169  22.816  0.00  0.00    +0.157 C 
ATOM      4  C   UNL     1      10.448   1.843  23.983  0.00  0.00    +0.114 C 
ATOM      5  N   UNL     1      10.868   0.434  24.011  0.00  0.00    -0.313 NA
ATOM      6  H   UNL     1      11.353   0.221  23.134  0.00  0.00    +0.122 HD
ATOM      7  C   UNL     1       9.695  -0.441  24.104  0.00  0.00    +0.089 C 
ENDROOT
BRANCH   2   8
ATOM      8  O   UNL     1       7.374   1.489  23.798  0.00  0.00    -0.389 OA
ATOM      9  H   UNL     1       7.662   2.320  24.216  0.00  0.00    +0.210 HD
ENDBRANCH   2   8
BRANCH   3  10
ATOM     10  O   UNL     1      10.212   2.195  21.580  0.00  0.00    -0.388 OA
ATOM     11  H   UNL     1       9.558   2.414  20.880  0.00  0.00    +0.210 HD
ENDBRANCH   3  10
BRANCH   1  12
ATOM     12  C   UNL     1       9.275  -0.917  21.628  0.00  0.00    +0.163 C 
BRANCH  12  13
ATOM     13  O   UNL     1      10.475  -1.655  21.837  0.00  0.00    -0.395 OA
ATOM     14  H   UNL     1      10.202  -2.564  22.068  0.00  0.00    +0.209 HD
ENDBRANCH  12  13
ENDBRANCH   1  12
TORSDOF 4
ENDMDL
MODEL 5
REMARK VINA RESULT:      -4.0      1.337      2.790
REMARK  Name = 
REMARK  4 active torsions:
REMARK  status: ('A' for Active; 'I' for Inactive)
REMARK    1  A    between atoms: O_1  and  C_2
REMARK    2  A    between atoms: C_2  and  C_3
REMARK    3  A    between atoms: C_8  and  O_10
REMARK    4  A    between atoms: C_11  and  O_13
REMARK                            x       y       z     vdW  Elec       q    Type
REMARK                         _______ _______ _______ _____ _____    ______ ____
ROOT
ATOM      1  C   UNL     1       9.013   0.793  23.201  0.00  0.00    +0.059 C 
ATOM      2  C   UNL     1      10.245  -0.104  23.441  0.00  0.00    +0.151 C 
ATOM      3  C   UNL     1      10.096  -1.526  22.868  0.00  0.00    +0.157 C 
ATOM      4  C   UNL     1       8.720  -2.134  23.201  0.00  0.00    +0.114 C 
ATOM      5  N   UNL     1       7.597  -1.252  22.851  0.00  0.00    -0.313 NA
ATOM      6  H   UNL     1       7.629  -1.066  21.844  0.00  0.00    +0.122 HD
ATOM      7  C   UNL     1       7.725   0.030  23.551  0.00  0.00    +0.089 C 
ENDROOT
BRANCH   2   8
ATOM      8  O   UNL     1      10.454  -0.175  24.862  0.00  0.00    -0.389 OA
ATOM      9  H   UNL     1      11.303   0.260  25.055  0.00  0.00    +0.210 HD
ENDBRANCH   2   8
BRANCH   3  10
ATOM     10  O   UNL     1      10.321  -1.540  21.458  0.00  0.00    -0.388 OA
ATOM     11  H   UNL     1      10.003  -2.410  21.130  0.00  0.00    +0.210 HD
ENDBRANCH   3  10
BRANCH   1  12
ATOM     12  C   UNL     1       8.972   1.399  21.789  0.00  0.00    +0.163 C 
BRANCH  12  13
ATOM     13  O   UNL     1      10.119   2.190  21.494  0.00  0.00    -0.395 OA
ATOM     14  H   UNL     1      10.896   1.617  21.644  0.00  0.00    +0.209 HD
ENDBRANCH  12  13
ENDBRANCH   1  12
TORSDOF 4
ENDMDL
MODEL 6
REMARK VINA RESULT:      -4.0      2.612      3.737
REMARK  Name = 
REMARK  4 active torsions:
REMARK  status: ('A' for Active; 'I' for Inactive)
REMARK    1  A    between atoms: O_1  and  C_2
REMARK    2  A    between atoms: C_2  and  C_3
REMARK    3  A    between atoms: C_8  and  O_10
REMARK    4  A    between atoms: C_11  and  O_13
REMARK                            x       y       z     vdW  Elec       q    Type
REMARK                         _______ _______ _______ _____ _____    ______ ____
ROOT
ATOM      1  C   UNL     1       7.906   2.862  23.702  0.00  0.00    +0.059 C 
ATOM      2  C   UNL     1       9.268   2.690  24.405  0.00  0.00    +0.151 C 
ATOM      3  C   UNL     1      10.470   2.715  23.442  0.00  0.00    +0.157 C 
ATOM      4  C   UNL     1      10.219   1.847  22.194  0.00  0.00    +0.114 C 
ATOM      5  N   UNL     1       8.941   2.143  21.529  0.00  0.00    -0.313 NA
ATOM      6  H   UNL     1       8.945   3.126  21.239  0.00  0.00    +0.122 HD
ATOM      7  C   UNL     1       7.829   1.952  22.465  0.00  0.00    +0.089 C 
ENDROOT
BRANCH   2   8
ATOM      8  O   UNL     1       9.235   1.433  25.103  0.00  0.00    -0.389 OA
ATOM      9  H   UNL     1       9.463   0.737  24.463  0.00  0.00    +0.210 HD
ENDBRANCH   2   8
BRANCH   3  10
ATOM     10  O   UNL     1      10.798   4.052  23.062  0.00  0.00    -0.388 OA
ATOM     11  H   UNL     1      11.758   4.058  22.853  0.00  0.00    +0.210 HD
ENDBRANCH   3  10
BRANCH   1  12
ATOM     12  C   UNL     1       7.575   4.327  23.375  0.00  0.00    +0.163 C 
BRANCH  12  13
ATOM     13  O   UNL     1       7.937   4.692  22.047  0.00  0.00    -0.395 OA
ATOM     14  H   UNL     1       7.719   3.926  21.481  0.00  0.00    +0.209 HD
ENDBRANCH  12  13
ENDBRANCH   1  12
TORSDOF 4
ENDMDL
MODEL 7
REMARK VINA RESULT:      -3.9      1.909      2.684
REMARK  Name = 
REMARK  4 active torsions:
REMARK  status: ('A' for Active; 'I' for Inactive)
REMARK    1  A    between atoms: O_1  and  C_2
REMARK    2  A    between atoms: C_2  and  C_3
REMARK    3  A    between atoms: C_8  and  O_10
REMARK    4  A    between atoms: C_11  and  O_13
REMARK                            x       y       z     vdW  Elec       q    Type
REMARK                         _______ _______ _______ _____ _____    ______ ____
ROOT
ATOM      1  C   UNL     1       9.805   2.131  23.827  0.00  0.00    +0.059 C 
ATOM      2  C   UNL     1       9.292   1.847  22.400  0.00  0.00    +0.151 C 
ATOM      3  C   UNL     1       8.912   0.373  22.161  0.00  0.00    +0.157 C 
ATOM      4  C   UNL     1       9.979  -0.588  22.718  0.00  0.00    +0.114 C 
ATOM      5  N   UNL     1      10.341  -0.306  24.115  0.00  0.00    -0.313 NA
ATOM      6  H   UNL     1       9.500  -0.393  24.693  0.00  0.00    +0.122 HD
ATOM      7  C   UNL     1      10.836   1.068  24.241  0.00  0.00    +0.089 C 
ENDROOT
BRANCH   2   8
ATOM      8  O   UNL     1      10.331   2.233  21.486  0.00  0.00    -0.389 OA
ATOM      9  H   UNL     1      11.134   2.400  22.009  0.00  0.00    +0.210 HD
ENDBRANCH   2   8
BRANCH   3  10
ATOM     10  O   UNL     1       7.631   0.074  22.717  0.00  0.00    -0.388 OA
ATOM     11  H   UNL     1       6.963   0.469  22.114  0.00  0.00    +0.210 HD
ENDBRANCH   3  10
BRANCH   1  12
ATOM     12  C   UNL     1       8.675   2.285  24.857  0.00  0.00    +0.163 C 
BRANCH  12  13
ATOM     13  O   UNL     1       8.484   1.116  25.649  0.00  0.00    -0.395 OA
ATOM     14  H   UNL     1       9.351   0.668  25.691  0.00  0.00    +0.209 HD
ENDBRANCH  12  13
ENDBRANCH   1  12
TORSDOF 4
ENDMDL
MODEL 8
REMARK VINA RESULT:      -3.9      1.813      2.688
REMARK  Name = 
REMARK  4 active torsions:
REMARK  status: ('A' for Active; 'I' for Inactive)
REMARK    1  A    between atoms: O_1  and  C_2
REMARK    2  A    between atoms: C_2  and  C_3
REMARK    3  A    between atoms: C_8  and  O_10
REMARK    4  A    between atoms: C_11  and  O_13
REMARK                            x       y       z     vdW  Elec       q    Type
REMARK                         _______ _______ _______ _____ _____    ______ ____
ROOT
ATOM      1  C   UNL     1      10.079   0.604  22.291  0.00  0.00    +0.059 C 
ATOM      2  C   UNL     1       9.333  -0.664  21.828  0.00  0.00    +0.151 C 
ATOM      3  C   UNL     1       8.306  -1.186  22.851  0.00  0.00    +0.157 C 
ATOM      4  C   UNL     1       8.881  -1.203  24.280  0.00  0.00    +0.114 C 
ATOM      5  N   UNL     1       9.489   0.077  24.675  0.00  0.00    -0.313 NA
ATOM      6  H   UNL     1       8.771   0.806  24.628  0.00  0.00    +0.122 HD
ATOM      7  C   UNL     1      10.561   0.436  23.742  0.00  0.00    +0.089 C 
ENDROOT
BRANCH   2   8
ATOM      8  O   UNL     1      10.322  -1.677  21.577  0.00  0.00    -0.389 OA
ATOM      9  H   UNL     1      11.134  -1.414  22.045  0.00  0.00    +0.210 HD
ENDBRANCH   2   8
BRANCH   3  10
ATOM     10  O   UNL     1       7.100  -0.422  22.807  0.00  0.00    -0.388 OA
ATOM     11  H   UNL     1       6.590  -0.653  23.615  0.00  0.00    +0.210 HD
ENDBRANCH   3  10
BRANCH   1  12
ATOM     12  C   UNL     1       9.266   1.892  22.087  0.00  0.00    +0.163 C 
BRANCH  12  13
ATOM     13  O   UNL     1       8.301   1.778  21.045  0.00  0.00    -0.395 OA
ATOM     14  H   UNL     1       7.934   0.874  21.108  0.00  0.00    +0.209 HD
ENDBRANCH  12  13
ENDBRANCH   1  12
TORSDOF 4
ENDMDL
MODEL 9
REMARK VINA RESULT:      -3.8      2.170      3.069
REMARK  Name = 
REMARK  4 active torsions:
REMARK  status: ('A' for Active; 'I' for Inactive)
REMARK    1  A    between atoms: O_1  and  C_2
REMARK    2  A    between atoms: C_2  and  C_3
REMARK    3  A    between atoms: C_8  and  O_10
REMARK    4  A    between atoms: C_11  and  O_13
REMARK                            x       y       z     vdW  Elec       q    Type
REMARK                         _______ _______ _______ _____ _____    ______ ____
ROOT
ATOM      1  C   UNL     1       8.252  -1.625  23.989  0.00  0.00    +0.059 C 
ATOM      2  C   UNL     1       8.093  -0.994  22.590  0.00  0.00    +0.151 C 
ATOM      3  C   UNL     1       9.413  -0.468  21.994  0.00  0.00    +0.157 C 
ATOM      4  C   UNL     1      10.226   0.334  23.028  0.00  0.00    +0.114 C 
ATOM      5  N   UNL     1      10.412  -0.381  24.300  0.00  0.00    -0.313 NA
ATOM      6  H   UNL     1      10.910  -1.256  24.112  0.00  0.00    +0.122 HD
ATOM      7  C   UNL     1       9.111  -0.718  24.885  0.00  0.00    +0.089 C 
ENDROOT
BRANCH   2   8
ATOM      8  O   UNL     1       7.153   0.087  22.711  0.00  0.00    -0.389 OA
ATOM      9  H   UNL     1       6.605  -0.089  23.497  0.00  0.00    +0.210 HD
ENDBRANCH   2   8
BRANCH   3  10
ATOM     10  O   UNL     1      10.198  -1.534  21.460  0.00  0.00    -0.388 OA
ATOM     11  H   UNL     1       9.955  -1.615  20.511  0.00  0.00    +0.210 HD
ENDBRANCH   3  10
BRANCH   1  12
ATOM     12  C   UNL     1       8.774  -3.070  23.944  0.00  0.00    +0.163 C 
BRANCH  12  13
ATOM     13  O   UNL     1      10.196  -3.145  23.946  0.00  0.00    -0.395 OA
ATOM     14  H   UNL     1      10.502  -2.571  24.675  0.00  0.00    +0.209 HD
ENDBRANCH  12  13
ENDBRANCH   1  12
TORSDOF 4
ENDMDL
