MODEL 1
REMARK VINA RESULT:      -6.1      0.000      0.000
REMARK  Name = 
REMARK  6 active torsions:
REMARK  status: ('A' for Active; 'I' for Inactive)
REMARK    1  A    between atoms: O_1  and  C_2
REMARK    2  A    between atoms: C_2  and  C_4
REMARK    3  A    between atoms: C_4  and  O_5
REMARK    4  A    between atoms: C_6  and  C_8
REMARK    5  A    between atoms: C_9  and  C_10
REMARK    6  A    between atoms: C_10  and  C_12
REMARK                            x       y       z     vdW  Elec       q    Type
REMARK                         _______ _______ _______ _____ _____    ______ ____
ROOT
ATOM      1  C   UNL     1       7.313  -3.382  23.181  0.00  0.00    +0.027 C 
ATOM      2  C   UNL     1       7.936  -2.525  24.002  0.00  0.00    +0.053 C 
ENDROOT
BRANCH   1   4
ATOM      3  C   UNL     1       5.252  -4.708  22.615  0.00  0.00    +0.220 C 
ATOM      4  C   UNL     1       5.913  -3.744  23.286  0.00  0.00    +0.090 C 
ATOM      5 CL   UNL     1       5.030  -2.733  24.410  0.00  0.00    -0.080 Cl
BRANCH   3   6
ATOM      6  C   UNL     1       5.905  -5.566  21.579  0.00  0.00    +0.373 C 
ATOM      7  O   UNL     1       6.028  -5.320  20.395  0.00  0.00    -0.242 OA
BRANCH   6   8
ATOM      8  O   UNL     1       6.320  -6.729  22.141  0.00  0.00    -0.475 OA
ATOM      9  H   UNL     1       7.285  -6.866  22.042  0.00  0.00    +0.296 HD
ENDBRANCH   6   8
ENDBRANCH   3   6
BRANCH   3  10
ATOM     10  O   UNL     1       3.894  -4.951  22.844  0.00  0.00    -0.500 OA
ATOM     11  H   UNL     1       3.768  -5.918  22.778  0.00  0.00    +0.292 HD
ENDBRANCH   3  10
ENDBRANCH   1   4
BRANCH   2  12
ATOM     12  C   UNL     1       9.380  -2.215  23.804  0.00  0.00    +0.186 C 
ATOM     13  O   UNL     1      10.242  -3.084  23.839  0.00  0.00    -0.287 OA
BRANCH  12  14
ATOM     14  C   UNL     1       9.730  -0.796  23.503  0.00  0.00    +0.022 A 
ATOM     15  C   UNL     1       9.564  -0.321  22.197  0.00  0.00    +0.012 A 
ATOM     16  C   UNL     1       9.870   1.008  21.895  0.00  0.00    +0.001 A 
ATOM     17  C   UNL     1      10.348   1.861  22.890  0.00  0.00    +0.000 A 
ATOM     18  C   UNL     1      10.536   1.384  24.186  0.00  0.00    +0.001 A 
ATOM     19  C   UNL     1      10.236   0.056  24.493  0.00  0.00    +0.012 A 
ENDBRANCH  12  14
ENDBRANCH   2  12
TORSDOF 6
ENDMDL
MODEL 2
REMARK VINA RESULT:      -6.0      5.625      8.960
REMARK  Name = 
REMARK  6 active torsions:
REMARK  status: ('A' for Active; 'I' for Inactive)
REMARK    1  A    between atoms: O_1  and  C_2
REMARK    2  A    between atoms: C_2  and  C_4
REMARK    3  A    between atoms: C_4  and  O_5
REMARK    4  A    between atoms: C_6  and  C_8
REMARK    5  A    between atoms: C_9  and  C_10
REMARK    6  A    between atoms: C_10  and  C_12
REMARK                            x       y       z     vdW  Elec       q    Type
REMARK                         _______ _______ _______ _____ _____    ______ ____
ROOT
ATOM      1  C   UNL     1      10.098   4.809  23.433  0.00  0.00    +0.027 C 
ATOM      2  C   UNL     1       9.888   3.520  23.736  0.00  0.00    +0.053 C 
ENDROOT
BRANCH   1   4
ATOM      3  C   UNL     1      12.230   6.024  23.984  0.00  0.00    +0.220 C 
ATOM      4  C   UNL     1      10.939   5.704  24.203  0.00  0.00    +0.090 C 
ATOM      5 CL   UNL     1      10.120   6.381  25.594  0.00  0.00    -0.080 Cl
BRANCH   3   6
ATOM      6  C   UNL     1      13.032   5.434  22.868  0.00  0.00    +0.373 C 
ATOM      7  O   UNL     1      12.709   5.349  21.699  0.00  0.00    -0.242 OA
BRANCH   6   8
ATOM      8  O   UNL     1      14.198   4.939  23.353  0.00  0.00    -0.475 OA
ATOM      9  H   UNL     1      14.205   3.959  23.378  0.00  0.00    +0.296 HD
ENDBRANCH   6   8
ENDBRANCH   3   6
BRANCH   3  10
ATOM     10  O   UNL     1      12.904   6.927  24.812  0.00  0.00    -0.500 OA
ATOM     11  H   UNL     1      13.604   7.337  24.266  0.00  0.00    +0.292 HD
ENDBRANCH   3  10
ENDBRANCH   1   4
BRANCH   2  12
ATOM     12  C   UNL     1       9.008   2.682  22.875  0.00  0.00    +0.186 C 
ATOM     13  O   UNL     1       8.069   3.156  22.248  0.00  0.00    -0.287 OA
BRANCH  12  14
ATOM     14  C   UNL     1       9.356   1.235  22.761  0.00  0.00    +0.022 A 
ATOM     15  C   UNL     1       9.202   0.597  21.526  0.00  0.00    +0.012 A 
ATOM     16  C   UNL     1       9.536  -0.753  21.392  0.00  0.00    +0.001 A 
ATOM     17  C   UNL     1      10.017  -1.468  22.489  0.00  0.00    +0.000 A 
ATOM     18  C   UNL     1      10.149  -0.841  23.727  0.00  0.00    +0.001 A 
ATOM     19  C   UNL     1       9.813   0.507  23.867  0.00  0.00    +0.012 A 
ENDBRANCH  12  14
ENDBRANCH   2  12
TORSDOF 6
ENDMDL
MODEL 3
REMARK VINA RESULT:      -5.9      2.026      2.521
REMARK  Name = 
REMARK  6 active torsions:
REMARK  status: ('A' for Active; 'I' for Inactive)
REMARK    1  A    between atoms: O_1  and  C_2
REMARK    2  A    between atoms: C_2  and  C_4
REMARK    3  A    between atoms: C_4  and  O_5
REMARK    4  A    between atoms: C_6  and  C_8
REMARK    5  A    between atoms: C_9  and  C_10
REMARK    6  A    between atoms: C_10  and  C_12
REMARK                            x       y       z     vdW  Elec       q    Type
REMARK                         _______ _______ _______ _____ _____    ______ ____
ROOT
ATOM      1  C   UNL     1       7.719  -4.715  23.490  0.00  0.00    +0.027 C 
ATOM      2  C   UNL     1       8.043  -3.488  23.057  0.00  0.00    +0.053 C 
ENDROOT
BRANCH   1   4
ATOM      3  C   UNL     1       5.513  -5.877  23.819  0.00  0.00    +0.220 C 
ATOM      4  C   UNL     1       6.544  -5.449  23.064  0.00  0.00    +0.090 C 
ATOM      5 CL   UNL     1       6.558  -5.825  21.354  0.00  0.00    -0.080 Cl
BRANCH   3   6
ATOM      6  C   UNL     1       5.455  -5.671  25.300  0.00  0.00    +0.373 C 
ATOM      7  O   UNL     1       5.918  -6.396  26.159  0.00  0.00    -0.242 OA
BRANCH   6   8
ATOM      8  O   UNL     1       4.747  -4.548  25.579  0.00  0.00    -0.475 OA
ATOM      9  H   UNL     1       3.963  -4.732  26.137  0.00  0.00    +0.296 HD
ENDBRANCH   6   8
ENDBRANCH   3   6
BRANCH   3  10
ATOM     10  O   UNL     1       4.433  -6.561  23.253  0.00  0.00    -0.500 OA
ATOM     11  H   UNL     1       3.624  -6.173  23.639  0.00  0.00    +0.292 HD
ENDBRANCH   3  10
ENDBRANCH   1   4
BRANCH   2  12
ATOM     12  C   UNL     1       9.279  -2.821  23.553  0.00  0.00    +0.186 C 
ATOM     13  O   UNL     1      10.084  -3.397  24.274  0.00  0.00    -0.287 OA
BRANCH  12  14
ATOM     14  C   UNL     1       9.527  -1.426  23.085  0.00  0.00    +0.022 A 
ATOM     15  C   UNL     1       9.125  -1.063  21.795  0.00  0.00    +0.012 A 
ATOM     16  C   UNL     1       9.333   0.241  21.340  0.00  0.00    +0.001 A 
ATOM     17  C   UNL     1       9.947   1.182  22.168  0.00  0.00    +0.000 A 
ATOM     18  C   UNL     1      10.371   0.817  23.444  0.00  0.00    +0.001 A 
ATOM     19  C   UNL     1      10.169  -0.486  23.902  0.00  0.00    +0.012 A 
ENDBRANCH  12  14
ENDBRANCH   2  12
TORSDOF 6
ENDMDL
MODEL 4
REMARK VINA RESULT:      -5.9      2.893      3.486
REMARK  Name = 
REMARK  6 active torsions:
REMARK  status: ('A' for Active; 'I' for Inactive)
REMARK    1  A    between atoms: O_1  and  C_2
REMARK    2  A    between atoms: C_2  and  C_4
REMARK    3  A    between atoms: C_4  and  O_5
REMARK    4  A    between atoms: C_6  and  C_8
REMARK    5  A    between atoms: C_9  and  C_10
REMARK    6  A    between atoms: C_10  and  C_12
REMARK                            x       y       z     vdW  Elec       q    Type
REMARK                         _______ _______ _______ _____ _____    ______ ____
ROOT
ATOM      1  C   UNL     1       8.539  -2.265  24.532  0.00  0.00    +0.027 C 
ATOM      2  C   UNL     1       9.810  -1.923  24.277  0.00  0.00    +0.053 C 
ENDROOT
BRANCH   1   4
ATOM      3  C   UNL     1       8.385  -4.274  26.037  0.00  0.00    +0.220 C 
ATOM      4  C   UNL     1       8.108  -2.997  25.706  0.00  0.00    +0.090 C 
ATOM      5 CL   UNL     1       7.070  -2.054  26.755  0.00  0.00    -0.080 Cl
BRANCH   3   6
ATOM      6  C   UNL     1       9.195  -5.178  25.164  0.00  0.00    +0.373 C 
ATOM      7  O   UNL     1       8.878  -5.629  24.080  0.00  0.00    -0.242 OA
BRANCH   6   8
ATOM      8  O   UNL     1      10.364  -5.485  25.781  0.00  0.00    -0.475 OA
ATOM      9  H   UNL     1      11.063  -5.743  25.145  0.00  0.00    +0.296 HD
ENDBRANCH   6   8
ENDBRANCH   3   6
BRANCH   3  10
ATOM     10  O   UNL     1       7.908  -4.836  27.225  0.00  0.00    -0.500 OA
ATOM     11  H   UNL     1       7.453  -4.120  27.710  0.00  0.00    +0.292 HD
ENDBRANCH   3  10
ENDBRANCH   1   4
BRANCH   2  12
ATOM     12  C   UNL     1      10.148  -1.163  23.041  0.00  0.00    +0.186 C 
ATOM     13  O   UNL     1      10.714  -1.687  22.090  0.00  0.00    -0.287 OA
BRANCH  12  14
ATOM     14  C   UNL     1       9.712   0.264  22.987  0.00  0.00    +0.022 A 
ATOM     15  C   UNL     1      10.040   1.112  24.050  0.00  0.00    +0.012 A 
ATOM     16  C   UNL     1       9.657   2.455  24.015  0.00  0.00    +0.001 A 
ATOM     17  C   UNL     1       8.941   2.950  22.924  0.00  0.00    +0.000 A 
ATOM     18  C   UNL     1       8.592   2.102  21.875  0.00  0.00    +0.001 A 
ATOM     19  C   UNL     1       8.969   0.758  21.908  0.00  0.00    +0.012 A 
ENDBRANCH  12  14
ENDBRANCH   2  12
TORSDOF 6
ENDMDL
MODEL 5
REMARK VINA RESULT:      -5.8      2.460      2.959
REMARK  Name = 
REMARK  6 active torsions:
REMARK  status: ('A' for Active; 'I' for Inactive)
REMARK    1  A    between atoms: O_1  and  C_2
REMARK    2  A    between atoms: C_2  and  C_4
REMARK    3  A    between atoms: C_4  and  O_5
REMARK    4  A    between atoms: C_6  and  C_8
REMARK    5  A    between atoms: C_9  and  C_10
REMARK    6  A    between atoms: C_10  and  C_12
REMARK                            x       y       z     vdW  Elec       q    Type
REMARK                         _______ _______ _______ _____ _____    ______ ____
ROOT
ATOM      1  C   UNL     1       8.167  -4.367  23.996  0.00  0.00    +0.027 C 
ATOM      2  C   UNL     1       8.313  -3.039  23.888  0.00  0.00    +0.053 C 
ENDROOT
BRANCH   1   4
ATOM      3  C   UNL     1       6.380  -5.377  25.450  0.00  0.00    +0.220 C 
ATOM      4  C   UNL     1       6.906  -5.033  24.258  0.00  0.00    +0.090 C 
ATOM      5 CL   UNL     1       6.037  -5.446  22.795  0.00  0.00    -0.080 Cl
BRANCH   3   6
ATOM      6  C   UNL     1       7.087  -5.136  26.746  0.00  0.00    +0.373 C 
ATOM      7  O   UNL     1       6.917  -4.207  27.512  0.00  0.00    -0.242 OA
BRANCH   6   8
ATOM      8  O   UNL     1       8.018  -6.102  26.947  0.00  0.00    -0.475 OA
ATOM      9  H   UNL     1       8.158  -6.655  26.151  0.00  0.00    +0.296 HD
ENDBRANCH   6   8
ENDBRANCH   3   6
BRANCH   3  10
ATOM     10  O   UNL     1       5.133  -6.002  25.540  0.00  0.00    -0.500 OA
ATOM     11  H   UNL     1       4.507  -5.453  25.028  0.00  0.00    +0.292 HD
ENDBRANCH   3  10
ENDBRANCH   1   4
BRANCH   2  12
ATOM     12  C   UNL     1       9.654  -2.453  23.611  0.00  0.00    +0.186 C 
ATOM     13  O   UNL     1      10.686  -3.096  23.753  0.00  0.00    -0.287 OA
BRANCH  12  14
ATOM     14  C   UNL     1       9.685  -1.054  23.093  0.00  0.00    +0.022 A 
ATOM     15  C   UNL     1       9.199  -0.797  21.807  0.00  0.00    +0.012 A 
ATOM     16  C   UNL     1       9.204   0.508  21.307  0.00  0.00    +0.001 A 
ATOM     17  C   UNL     1       9.699   1.554  22.085  0.00  0.00    +0.000 A 
ATOM     18  C   UNL     1      10.206   1.298  23.358  0.00  0.00    +0.001 A 
ATOM     19  C   UNL     1      10.207  -0.004  23.860  0.00  0.00    +0.012 A 
ENDBRANCH  12  14
ENDBRANCH   2  12
TORSDOF 6
ENDMDL
MODEL 6
REMARK VINA RESULT:      -5.7      1.315      1.839
REMARK  Name = 
REMARK  6 active torsions:
REMARK  status: ('A' for Active; 'I' for Inactive)
REMARK    1  A    between atoms: O_1  and  C_2
REMARK    2  A    between atoms: C_2  and  C_4
REMARK    3  A    between atoms: C_4  and  O_5
REMARK    4  A    between atoms: C_6  and  C_8
REMARK    5  A    between atoms: C_9  and  C_10
REMARK    6  A    between atoms: C_10  and  C_12
REMARK                            x       y       z     vdW  Elec       q    Type
REMARK                         _______ _______ _______ _____ _____    ______ ____
ROOT
ATOM      1  C   UNL     1       8.397  -3.762  23.789  0.00  0.00    +0.027 C 
ATOM      2  C   UNL     1       8.455  -2.439  23.578  0.00  0.00    +0.053 C 
ENDROOT
BRANCH   1   4
ATOM      3  C   UNL     1       6.297  -5.080  23.364  0.00  0.00    +0.220 C 
ATOM      4  C   UNL     1       7.196  -4.478  24.169  0.00  0.00    +0.090 C 
ATOM      5 CL   UNL     1       6.924  -4.483  25.899  0.00  0.00    -0.080 Cl
BRANCH   3   6
ATOM      6  C   UNL     1       6.405  -5.058  21.873  0.00  0.00    +0.373 C 
ATOM      7  O   UNL     1       7.083  -5.788  21.176  0.00  0.00    -0.242 OA
BRANCH   6   8
ATOM      8  O   UNL     1       5.655  -4.044  21.373  0.00  0.00    -0.475 OA
ATOM      9  H   UNL     1       5.840  -3.190  21.817  0.00  0.00    +0.296 HD
ENDBRANCH   6   8
ENDBRANCH   3   6
BRANCH   3  10
ATOM     10  O   UNL     1       5.190  -5.754  23.888  0.00  0.00    -0.500 OA
ATOM     11  H   UNL     1       4.957  -5.301  24.722  0.00  0.00    +0.292 HD
ENDBRANCH   3  10
ENDBRANCH   1   4
BRANCH   2  12
ATOM     12  C   UNL     1       9.741  -1.799  23.183  0.00  0.00    +0.186 C 
ATOM     13  O   UNL     1      10.712  -2.456  22.830  0.00  0.00    -0.287 OA
BRANCH  12  14
ATOM     14  C   UNL     1       9.779  -0.307  23.183  0.00  0.00    +0.022 A 
ATOM     15  C   UNL     1       9.679   0.373  24.401  0.00  0.00    +0.012 A 
ATOM     16  C   UNL     1       9.728   1.769  24.427  0.00  0.00    +0.001 A 
ATOM     17  C   UNL     1       9.869   2.486  23.239  0.00  0.00    +0.000 A 
ATOM     18  C   UNL     1       9.946   1.812  22.021  0.00  0.00    +0.001 A 
ATOM     19  C   UNL     1       9.893   0.418  21.990  0.00  0.00    +0.012 A 
ENDBRANCH  12  14
ENDBRANCH   2  12
TORSDOF 6
ENDMDL
MODEL 7
REMARK VINA RESULT:      -5.6      2.352      3.361
REMARK  Name = 
REMARK  6 active torsions:
REMARK  status: ('A' for Active; 'I' for Inactive)
REMARK    1  A    between atoms: O_1  and  C_2
REMARK    2  A    between atoms: C_2  and  C_4
REMARK    3  A    between atoms: C_4  and  O_5
REMARK    4  A    between atoms: C_6  and  C_8
REMARK    5  A    between atoms: C_9  and  C_10
REMARK    6  A    between atoms: C_10  and  C_12
REMARK                            x       y       z     vdW  Elec       q    Type
REMARK                         _______ _______ _______ _____ _____    ______ ____
ROOT
ATOM      1  C   UNL     1       7.998  -2.504  24.541  0.00  0.00    +0.027 C 
ATOM      2  C   UNL     1       9.107  -1.763  24.679  0.00  0.00    +0.053 C 
ENDROOT
BRANCH   1   4
ATOM      3  C   UNL     1       8.236  -4.923  23.899  0.00  0.00    +0.220 C 
ATOM      4  C   UNL     1       7.882  -3.646  23.656  0.00  0.00    +0.090 C 
ATOM      5 CL   UNL     1       7.233  -3.228  22.085  0.00  0.00    -0.080 Cl
BRANCH   3   6
ATOM      6  C   UNL     1       8.870  -5.358  25.182  0.00  0.00    +0.373 C 
ATOM      7  O   UNL     1       8.303  -5.690  26.204  0.00  0.00    -0.242 OA
BRANCH   6   8
ATOM      8  O   UNL     1      10.221  -5.285  25.074  0.00  0.00    -0.475 OA
ATOM      9  H   UNL     1      10.614  -6.126  24.759  0.00  0.00    +0.296 HD
ENDBRANCH   6   8
ENDBRANCH   3   6
BRANCH   3  10
ATOM     10  O   UNL     1       8.041  -5.925  22.943  0.00  0.00    -0.500 OA
ATOM     11  H   UNL     1       7.246  -6.422  23.217  0.00  0.00    +0.292 HD
ENDBRANCH   3  10
ENDBRANCH   1   4
BRANCH   2  12
ATOM     12  C   UNL     1       9.124  -0.610  25.622  0.00  0.00    +0.186 C 
ATOM     13  O   UNL     1       9.046  -0.761  26.835  0.00  0.00    -0.287 OA
BRANCH  12  14
ATOM     14  C   UNL     1       9.299   0.747  25.026  0.00  0.00    +0.022 A 
ATOM     15  C   UNL     1      10.465   1.023  24.304  0.00  0.00    +0.012 A 
ATOM     16  C   UNL     1      10.645   2.281  23.723  0.00  0.00    +0.001 A 
ATOM     17  C   UNL     1       9.666   3.265  23.868  0.00  0.00    +0.000 A 
ATOM     18  C   UNL     1       8.514   3.000  24.607  0.00  0.00    +0.001 A 
ATOM     19  C   UNL     1       8.332   1.746  25.192  0.00  0.00    +0.012 A 
ENDBRANCH  12  14
ENDBRANCH   2  12
TORSDOF 6
ENDMDL
MODEL 8
REMARK VINA RESULT:      -5.5      2.877      6.083
REMARK  Name = 
REMARK  6 active torsions:
REMARK  status: ('A' for Active; 'I' for Inactive)
REMARK    1  A    between atoms: O_1  and  C_2
REMARK    2  A    between atoms: C_2  and  C_4
REMARK    3  A    between atoms: C_4  and  O_5
REMARK    4  A    between atoms: C_6  and  C_8
REMARK    5  A    between atoms: C_9  and  C_10
REMARK    6  A    between atoms: C_10  and  C_12
REMARK                            x       y       z     vdW  Elec       q    Type
REMARK                         _______ _______ _______ _____ _____    ______ ____
ROOT
ATOM      1  C   UNL     1       8.010  -2.707  25.298  0.00  0.00    +0.027 C 
ATOM      2  C   UNL     1       8.415  -3.940  25.636  0.00  0.00    +0.053 C 
ENDROOT
BRANCH   1   4
ATOM      3  C   UNL     1       9.574  -0.945  24.419  0.00  0.00    +0.220 C 
ATOM      4  C   UNL     1       8.837  -1.521  25.390  0.00  0.00    +0.090 C 
ATOM      5 CL   UNL     1       8.866  -0.833  26.999  0.00  0.00    -0.080 Cl
BRANCH   3   6
ATOM      6  C   UNL     1       9.672  -1.508  23.037  0.00  0.00    +0.373 C 
ATOM      7  O   UNL     1       8.998  -1.204  22.072  0.00  0.00    -0.242 OA
BRANCH   6   8
ATOM      8  O   UNL     1      10.619  -2.479  23.003  0.00  0.00    -0.475 OA
ATOM      9  H   UNL     1      10.859  -2.732  22.087  0.00  0.00    +0.296 HD
ENDBRANCH   6   8
ENDBRANCH   3   6
BRANCH   3  10
ATOM     10  O   UNL     1      10.309   0.219  24.659  0.00  0.00    -0.500 OA
ATOM     11  H   UNL     1      11.250  -0.015  24.540  0.00  0.00    +0.292 HD
ENDBRANCH   3  10
ENDBRANCH   1   4
BRANCH   2  12
ATOM     12  C   UNL     1       7.487  -5.097  25.499  0.00  0.00    +0.186 C 
ATOM     13  O   UNL     1       7.170  -5.794  26.454  0.00  0.00    -0.287 OA
BRANCH  12  14
ATOM     14  C   UNL     1       6.908  -5.340  24.144  0.00  0.00    +0.022 A 
ATOM     15  C   UNL     1       5.518  -5.386  24.001  0.00  0.00    +0.012 A 
ATOM     16  C   UNL     1       4.953  -5.597  22.740  0.00  0.00    +0.001 A 
ATOM     17  C   UNL     1       5.774  -5.768  21.625  0.00  0.00    +0.000 A 
ATOM     18  C   UNL     1       7.160  -5.746  21.769  0.00  0.00    +0.001 A 
ATOM     19  C   UNL     1       7.729  -5.540  23.027  0.00  0.00    +0.012 A 
ENDBRANCH  12  14
ENDBRANCH   2  12
TORSDOF 6
ENDMDL
MODEL 9
REMARK VINA RESULT:      -5.5      2.944      6.441
REMARK  Name = 
REMARK  6 active torsions:
REMARK  status: ('A' for Active; 'I' for Inactive)
REMARK    1  A    between atoms: O_1  and  C_2
REMARK    2  A    between atoms: C_2  and  C_4
REMARK    3  A    between atoms: C_4  and  O_5
REMARK    4  A    between atoms: C_6  and  C_8
REMARK    5  A    between atoms: C_9  and  C_10
REMARK    6  A    between atoms: C_10  and  C_12
REMARK                            x       y       z     vdW  Elec       q    Type
REMARK                         _______ _______ _______ _____ _____    ______ ____
ROOT
ATOM      1  C   UNL     1       7.075  -0.032  23.244  0.00  0.00    +0.027 C 
ATOM      2  C   UNL     1       6.726  -1.218  22.725  0.00  0.00    +0.053 C 
ENDROOT
BRANCH   1   4
ATOM      3  C   UNL     1       9.033   1.025  22.073  0.00  0.00    +0.220 C 
ATOM      4  C   UNL     1       7.758   1.014  22.510  0.00  0.00    +0.090 C 
ATOM      5 CL   UNL     1       6.752   2.420  22.232  0.00  0.00    -0.080 Cl
BRANCH   3   6
ATOM      6  C   UNL     1       9.987  -0.096  22.333  0.00  0.00    +0.373 C 
ATOM      7  O   UNL     1      10.712  -0.232  23.300  0.00  0.00    -0.242 OA
BRANCH   6   8
ATOM      8  O   UNL     1       9.980  -0.958  21.286  0.00  0.00    -0.475 OA
ATOM      9  H   UNL     1       9.800  -0.507  20.435  0.00  0.00    +0.296 HD
ENDBRANCH   6   8
ENDBRANCH   3   6
BRANCH   3  10
ATOM     10  O   UNL     1       9.544   2.110  21.354  0.00  0.00    -0.500 OA
ATOM     11  H   UNL     1      10.498   1.939  21.231  0.00  0.00    +0.292 HD
ENDBRANCH   3  10
ENDBRANCH   1   4
BRANCH   2  12
ATOM     12  C   UNL     1       6.020  -2.225  23.565  0.00  0.00    +0.186 C 
ATOM     13  O   UNL     1       5.412  -1.913  24.580  0.00  0.00    -0.287 OA
BRANCH  12  14
ATOM     14  C   UNL     1       6.037  -3.637  23.082  0.00  0.00    +0.022 A 
ATOM     15  C   UNL     1       7.152  -4.097  22.373  0.00  0.00    +0.012 A 
ATOM     16  C   UNL     1       7.197  -5.419  21.924  0.00  0.00    +0.001 A 
ATOM     17  C   UNL     1       6.129  -6.280  22.175  0.00  0.00    +0.000 A 
ATOM     18  C   UNL     1       5.006  -5.819  22.861  0.00  0.00    +0.001 A 
ATOM     19  C   UNL     1       4.955  -4.497  23.307  0.00  0.00    +0.012 A 
ENDBRANCH  12  14
ENDBRANCH   2  12
TORSDOF 6
ENDMDL
