MODEL 1
REMARK VINA RESULT:      -5.4      0.000      0.000
REMARK  Name = 
REMARK  6 active torsions:
REMARK  status: ('A' for Active; 'I' for Inactive)
REMARK    1  A    between atoms: C_1  and  C_2
REMARK    2  A    between atoms: C_6  and  C_7
REMARK    3  A    between atoms: C_7  and  CA_8
REMARK    4  A    between atoms: CA_8  and  N_10
REMARK    5  A    between atoms: CA_8  and  C_11
REMARK    6  A    between atoms: C_11  and  O_12
REMARK                            x       y       z     vdW  Elec       q    Type
REMARK                         _______ _______ _______ _____ _____    ______ ____
ROOT
ATOM      1  C   UNL     1       8.597  -3.869  24.106  0.00  0.00    +0.065 C 
ENDROOT
BRANCH   1   5
ATOM      2  C   UNL     1      10.878   0.575  24.746  0.00  0.00    +0.044 C 
ATOM      3  C   UNL     1      10.162  -0.392  23.849  0.00  0.00    -0.050 A 
ATOM      4  C   UNL     1       9.743  -1.629  24.354  0.00  0.00    +0.007 A 
ATOM      5  C   UNL     1       9.058  -2.546  23.542  0.00  0.00    -0.045 A 
ATOM      6  C   UNL     1       8.807  -2.215  22.206  0.00  0.00    +0.004 A 
ATOM      7  C   UNL     1       9.241  -0.994  21.691  0.00  0.00    +0.001 A 
ATOM      8  C   UNL     1       9.914  -0.086  22.508  0.00  0.00    +0.003 A 
ENDBRANCH   1   5
BRANCH   1   9
ATOM      9  CA  UNL     1       9.319  -4.284  25.399  0.00  0.00    +0.165 C 
BRANCH   9  10
ATOM     10  N   UNL     1      10.115  -5.544  25.246  0.00  0.00    -0.318 NA
ATOM     11  H1  UNL     1      11.103  -5.287  25.357  0.00  0.00    +0.119 HD
ATOM     12  H2  UNL     1       9.927  -6.127  26.070  0.00  0.00    +0.119 HD
ENDBRANCH   9  10
BRANCH   9  13
ATOM     13  C   UNL     1       8.244  -4.539  26.466  0.00  0.00    +0.322 C 
ATOM     14  OXT UNL     1       7.431  -3.719  26.857  0.00  0.00    -0.249 OA
BRANCH  13  15
ATOM     15  O   UNL     1       8.282  -5.828  26.900  0.00  0.00    -0.480 OA
ATOM     16  H   UNL     1       9.136  -6.202  26.567  0.00  0.00    +0.295 HD
ENDBRANCH  13  15
ENDBRANCH   9  13
ENDBRANCH   1   9
TORSDOF 5
ENDMDL
MODEL 2
REMARK VINA RESULT:      -5.3      4.735      6.373
REMARK  Name = 
REMARK  6 active torsions:
REMARK  status: ('A' for Active; 'I' for Inactive)
REMARK    1  A    between atoms: C_1  and  C_2
REMARK    2  A    between atoms: C_6  and  C_7
REMARK    3  A    between atoms: C_7  and  CA_8
REMARK    4  A    between atoms: CA_8  and  N_10
REMARK    5  A    between atoms: CA_8  and  C_11
REMARK    6  A    between atoms: C_11  and  O_12
REMARK                            x       y       z     vdW  Elec       q    Type
REMARK                         _______ _______ _______ _____ _____    ______ ____
ROOT
ATOM      1  C   UNL     1       9.655   1.807  23.512  0.00  0.00    +0.065 C 
ENDROOT
BRANCH   1   5
ATOM      2  C   UNL     1      13.283   5.259  22.983  0.00  0.00    +0.044 C 
ATOM      3  C   UNL     1      11.881   4.910  23.391  0.00  0.00    -0.050 A 
ATOM      4  C   UNL     1      11.426   3.594  23.258  0.00  0.00    +0.007 A 
ATOM      5  C   UNL     1      10.125   3.236  23.645  0.00  0.00    -0.045 A 
ATOM      6  C   UNL     1       9.275   4.221  24.160  0.00  0.00    +0.004 A 
ATOM      7  C   UNL     1       9.714   5.539  24.274  0.00  0.00    +0.001 A 
ATOM      8  C   UNL     1      11.012   5.883  23.893  0.00  0.00    +0.003 A 
ENDBRANCH   1   5
BRANCH   1   9
ATOM      9  CA  UNL     1       9.938   1.180  22.136  0.00  0.00    +0.165 C 
BRANCH   9  10
ATOM     10  N   UNL     1       8.866   1.470  21.130  0.00  0.00    -0.318 NA
ATOM     11  H1  UNL     1       8.208   0.683  21.159  0.00  0.00    +0.119 HD
ATOM     12  H2  UNL     1       8.312   2.257  21.490  0.00  0.00    +0.119 HD
ENDBRANCH   9  10
BRANCH   9  13
ATOM     13  C   UNL     1       9.999  -0.342  22.326  0.00  0.00    +0.322 C 
ATOM     14  OXT UNL     1      10.153  -0.913  23.393  0.00  0.00    -0.249 OA
BRANCH  13  15
ATOM     15  O   UNL     1       9.814  -0.990  21.144  0.00  0.00    -0.480 OA
ATOM     16  H   UNL     1       9.879  -1.956  21.350  0.00  0.00    +0.295 HD
ENDBRANCH  13  15
ENDBRANCH   9  13
ENDBRANCH   1   9
TORSDOF 5
ENDMDL
MODEL 3
REMARK VINA RESULT:      -5.1      1.635      1.923
REMARK  Name = 
REMARK  6 active torsions:
REMARK  status: ('A' for Active; 'I' for Inactive)
REMARK    1  A    between atoms: C_1  and  C_2
REMARK    2  A    between atoms: C_6  and  C_7
REMARK    3  A    between atoms: C_7  and  CA_8
REMARK    4  A    between atoms: CA_8  and  N_10
REMARK    5  A    between atoms: CA_8  and  C_11
REMARK    6  A    between atoms: C_11  and  O_12
REMARK                            x       y       z     vdW  Elec       q    Type
REMARK                         _______ _______ _______ _____ _____    ______ ____
ROOT
ATOM      1  C   UNL     1      10.008  -2.783  24.042  0.00  0.00    +0.065 C 
ENDROOT
BRANCH   1   5
ATOM      2  C   UNL     1      10.590   2.214  23.816  0.00  0.00    +0.044 C 
ATOM      3  C   UNL     1      10.181   0.930  23.155  0.00  0.00    -0.050 A 
ATOM      4  C   UNL     1      10.290  -0.277  23.855  0.00  0.00    +0.007 A 
ATOM      5  C   UNL     1       9.901  -1.491  23.267  0.00  0.00    -0.045 A 
ATOM      6  C   UNL     1       9.410  -1.484  21.957  0.00  0.00    +0.004 A 
ATOM      7  C   UNL     1       9.319  -0.288  21.246  0.00  0.00    +0.001 A 
ATOM      8  C   UNL     1       9.702   0.914  21.842  0.00  0.00    +0.003 A 
ENDBRANCH   1   5
BRANCH   1   9
ATOM      9  CA  UNL     1       8.656  -3.461  24.319  0.00  0.00    +0.165 C 
BRANCH   9  10
ATOM     10  N   UNL     1       7.745  -2.623  25.163  0.00  0.00    -0.318 NA
ATOM     11  H1  UNL     1       6.993  -2.288  24.550  0.00  0.00    +0.119 HD
ATOM     12  H2  UNL     1       7.259  -3.256  25.810  0.00  0.00    +0.119 HD
ENDBRANCH   9  10
BRANCH   9  13
ATOM     13  C   UNL     1       8.940  -4.760  25.086  0.00  0.00    +0.322 C 
ATOM     14  OXT UNL     1       8.117  -5.396  25.724  0.00  0.00    -0.249 OA
BRANCH  13  15
ATOM     15  O   UNL     1      10.236  -5.145  24.933  0.00  0.00    -0.480 OA
ATOM     16  H   UNL     1      10.225  -6.135  24.918  0.00  0.00    +0.295 HD
ENDBRANCH  13  15
ENDBRANCH   9  13
ENDBRANCH   1   9
TORSDOF 5
ENDMDL
MODEL 4
REMARK VINA RESULT:      -5.0      3.535      5.571
REMARK  Name = 
REMARK  6 active torsions:
REMARK  status: ('A' for Active; 'I' for Inactive)
REMARK    1  A    between atoms: C_1  and  C_2
REMARK    2  A    between atoms: C_6  and  C_7
REMARK    3  A    between atoms: C_7  and  CA_8
REMARK    4  A    between atoms: CA_8  and  N_10
REMARK    5  A    between atoms: CA_8  and  C_11
REMARK    6  A    between atoms: C_11  and  O_12
REMARK                            x       y       z     vdW  Elec       q    Type
REMARK                         _______ _______ _______ _____ _____    ______ ____
ROOT
ATOM      1  C   UNL     1       8.098  -0.765  22.625  0.00  0.00    +0.065 C 
ENDROOT
BRANCH   1   5
ATOM      2  C   UNL     1       6.921  -5.639  22.150  0.00  0.00    +0.044 C 
ATOM      3  C   UNL     1       7.607  -4.544  22.914  0.00  0.00    -0.050 A 
ATOM      4  C   UNL     1       7.557  -3.228  22.440  0.00  0.00    +0.007 A 
ATOM      5  C   UNL     1       8.176  -2.183  23.141  0.00  0.00    -0.045 A 
ATOM      6  C   UNL     1       8.863  -2.473  24.326  0.00  0.00    +0.004 A 
ATOM      7  C   UNL     1       8.936  -3.785  24.792  0.00  0.00    +0.001 A 
ATOM      8  C   UNL     1       8.310  -4.816  24.091  0.00  0.00    +0.003 A 
ENDBRANCH   1   5
BRANCH   1   9
ATOM      9  CA  UNL     1       9.247  -0.379  21.680  0.00  0.00    +0.165 C 
BRANCH   9  10
ATOM     10  N   UNL     1      10.271  -1.463  21.531  0.00  0.00    -0.318 NA
ATOM     11  H1  UNL     1      11.044  -1.233  22.166  0.00  0.00    +0.119 HD
ATOM     12  H2  UNL     1       9.874  -2.317  21.939  0.00  0.00    +0.119 HD
ENDBRANCH   9  10
BRANCH   9  13
ATOM     13  C   UNL     1       9.950   0.845  22.285  0.00  0.00    +0.322 C 
ATOM     14  OXT UNL     1      10.535   0.865  23.354  0.00  0.00    -0.249 OA
BRANCH  13  15
ATOM     15  O   UNL     1       9.875   1.915  21.447  0.00  0.00    -0.480 OA
ATOM     16  H   UNL     1      10.443   1.691  20.668  0.00  0.00    +0.295 HD
ENDBRANCH  13  15
ENDBRANCH   9  13
ENDBRANCH   1   9
TORSDOF 5
ENDMDL
MODEL 5
REMARK VINA RESULT:      -4.9      3.668      5.245
REMARK  Name = 
REMARK  6 active torsions:
REMARK  status: ('A' for Active; 'I' for Inactive)
REMARK    1  A    between atoms: C_1  and  C_2
REMARK    2  A    between atoms: C_6  and  C_7
REMARK    3  A    between atoms: C_7  and  CA_8
REMARK    4  A    between atoms: CA_8  and  N_10
REMARK    5  A    between atoms: CA_8  and  C_11
REMARK    6  A    between atoms: C_11  and  O_12
REMARK                            x       y       z     vdW  Elec       q    Type
REMARK                         _______ _______ _______ _____ _____    ______ ____
ROOT
ATOM      1  C   UNL     1      10.340  -0.416  22.556  0.00  0.00    +0.065 C 
ENDROOT
BRANCH   1   5
ATOM      2  C   UNL     1       9.511  -4.564  25.289  0.00  0.00    +0.044 C 
ATOM      3  C   UNL     1       9.078  -3.627  24.200  0.00  0.00    -0.050 A 
ATOM      4  C   UNL     1       9.854  -2.501  23.901  0.00  0.00    +0.007 A 
ATOM      5  C   UNL     1       9.482  -1.617  22.877  0.00  0.00    -0.045 A 
ATOM      6  C   UNL     1       8.307  -1.866  22.159  0.00  0.00    +0.004 A 
ATOM      7  C   UNL     1       7.516  -2.973  22.466  0.00  0.00    +0.001 A 
ATOM      8  C   UNL     1       7.900  -3.850  23.481  0.00  0.00    +0.003 A 
ENDBRANCH   1   5
BRANCH   1   9
ATOM      9  CA  UNL     1       9.628   0.933  22.748  0.00  0.00    +0.165 C 
BRANCH   9  10
ATOM     10  N   UNL     1       9.674   1.798  21.526  0.00  0.00    -0.318 NA
ATOM     11  H1  UNL     1       8.702   1.969  21.244  0.00  0.00    +0.119 HD
ATOM     12  H2  UNL     1      10.004   2.726  21.820  0.00  0.00    +0.119 HD
ENDBRANCH   9  10
BRANCH   9  13
ATOM     13  C   UNL     1      10.353   1.680  23.876  0.00  0.00    +0.322 C 
ATOM     14  OXT UNL     1      11.020   2.692  23.737  0.00  0.00    -0.249 OA
BRANCH  13  15
ATOM     15  O   UNL     1      10.122   1.090  25.081  0.00  0.00    -0.480 OA
ATOM     16  H   UNL     1       9.139   1.009  25.161  0.00  0.00    +0.295 HD
ENDBRANCH  13  15
ENDBRANCH   9  13
ENDBRANCH   1   9
TORSDOF 5
ENDMDL
MODEL 6
REMARK VINA RESULT:      -4.9      3.804      5.569
REMARK  Name = 
REMARK  6 active torsions:
REMARK  status: ('A' for Active; 'I' for Inactive)
REMARK    1  A    between atoms: C_1  and  C_2
REMARK    2  A    between atoms: C_6  and  C_7
REMARK    3  A    between atoms: C_7  and  CA_8
REMARK    4  A    between atoms: CA_8  and  N_10
REMARK    5  A    between atoms: CA_8  and  C_11
REMARK    6  A    between atoms: C_11  and  O_12
REMARK                            x       y       z     vdW  Elec       q    Type
REMARK                         _______ _______ _______ _____ _____    ______ ____
ROOT
ATOM      1  C   UNL     1      10.238  -0.491  22.271  0.00  0.00    +0.065 C 
ENDROOT
BRANCH   1   5
ATOM      2  C   UNL     1       6.040  -3.264  22.043  0.00  0.00    +0.044 C 
ATOM      3  C   UNL     1       7.379  -2.997  22.665  0.00  0.00    -0.050 A 
ATOM      4  C   UNL     1       8.163  -1.935  22.200  0.00  0.00    +0.007 A 
ATOM      5  C   UNL     1       9.412  -1.653  22.773  0.00  0.00    -0.045 A 
ATOM      6  C   UNL     1       9.878  -2.460  23.817  0.00  0.00    +0.004 A 
ATOM      7  C   UNL     1       9.113  -3.534  24.270  0.00  0.00    +0.001 A 
ATOM      8  C   UNL     1       7.869  -3.801  23.698  0.00  0.00    +0.003 A 
ENDBRANCH   1   5
BRANCH   1   9
ATOM      9  CA  UNL     1       9.686   0.887  22.671  0.00  0.00    +0.165 C 
BRANCH   9  10
ATOM     10  N   UNL     1       9.735   1.883  21.552  0.00  0.00    -0.318 NA
ATOM     11  H1  UNL     1      10.445   2.580  21.804  0.00  0.00    +0.119 HD
ATOM     12  H2  UNL     1      10.145   1.409  20.738  0.00  0.00    +0.119 HD
ENDBRANCH   9  10
BRANCH   9  13
ATOM     13  C   UNL     1      10.565   1.423  23.810  0.00  0.00    +0.322 C 
ATOM     14  OXT UNL     1      10.983   0.764  24.748  0.00  0.00    -0.249 OA
BRANCH  13  15
ATOM     15  O   UNL     1      10.863   2.738  23.621  0.00  0.00    -0.480 OA
ATOM     16  H   UNL     1      11.582   2.759  22.941  0.00  0.00    +0.295 HD
ENDBRANCH  13  15
ENDBRANCH   9  13
ENDBRANCH   1   9
TORSDOF 5
ENDMDL
MODEL 7
REMARK VINA RESULT:      -4.9      3.667      5.370
REMARK  Name = 
REMARK  6 active torsions:
REMARK  status: ('A' for Active; 'I' for Inactive)
REMARK    1  A    between atoms: C_1  and  C_2
REMARK    2  A    between atoms: C_6  and  C_7
REMARK    3  A    between atoms: C_7  and  CA_8
REMARK    4  A    between atoms: CA_8  and  N_10
REMARK    5  A    between atoms: CA_8  and  C_11
REMARK    6  A    between atoms: C_11  and  O_12
REMARK                            x       y       z     vdW  Elec       q    Type
REMARK                         _______ _______ _______ _____ _____    ______ ____
ROOT
ATOM      1  C   UNL     1       8.280  -1.035  22.993  0.00  0.00    +0.065 C 
ENDROOT
BRANCH   1   5
ATOM      2  C   UNL     1       9.239  -5.379  25.354  0.00  0.00    +0.044 C 
ATOM      3  C   UNL     1       8.526  -4.630  24.266  0.00  0.00    -0.050 A 
ATOM      4  C   UNL     1       8.705  -3.247  24.142  0.00  0.00    +0.007 A 
ATOM      5  C   UNL     1       8.063  -2.524  23.125  0.00  0.00    -0.045 A 
ATOM      6  C   UNL     1       7.224  -3.203  22.235  0.00  0.00    +0.004 A 
ATOM      7  C   UNL     1       7.023  -4.577  22.366  0.00  0.00    +0.001 A 
ATOM      8  C   UNL     1       7.672  -5.288  23.377  0.00  0.00    +0.003 A 
ENDBRANCH   1   5
BRANCH   1   9
ATOM      9  CA  UNL     1       9.107  -0.629  21.761  0.00  0.00    +0.165 C 
BRANCH   9  10
ATOM     10  N   UNL     1      10.325  -1.481  21.569  0.00  0.00    -0.318 NA
ATOM     11  H1  UNL     1      11.013  -0.907  21.068  0.00  0.00    +0.119 HD
ATOM     12  H2  UNL     1      10.753  -1.616  22.492  0.00  0.00    +0.119 HD
ENDBRANCH   9  10
BRANCH   9  13
ATOM     13  C   UNL     1       9.578   0.816  21.977  0.00  0.00    +0.322 C 
ATOM     14  OXT UNL     1      10.352   1.182  22.845  0.00  0.00    -0.249 OA
BRANCH  13  15
ATOM     15  O   UNL     1       9.050   1.648  21.039  0.00  0.00    -0.480 OA
ATOM     16  H   UNL     1       9.078   1.148  20.185  0.00  0.00    +0.295 HD
ENDBRANCH  13  15
ENDBRANCH   9  13
ENDBRANCH   1   9
TORSDOF 5
ENDMDL
MODEL 8
REMARK VINA RESULT:      -4.8      4.981      6.653
REMARK  Name = 
REMARK  6 active torsions:
REMARK  status: ('A' for Active; 'I' for Inactive)
REMARK    1  A    between atoms: C_1  and  C_2
REMARK    2  A    between atoms: C_6  and  C_7
REMARK    3  A    between atoms: C_7  and  CA_8
REMARK    4  A    between atoms: CA_8  and  N_10
REMARK    5  A    between atoms: CA_8  and  C_11
REMARK    6  A    between atoms: C_11  and  O_12
REMARK                            x       y       z     vdW  Elec       q    Type
REMARK                         _______ _______ _______ _____ _____    ______ ____
ROOT
ATOM      1  C   UNL     1       9.880   2.003  23.492  0.00  0.00    +0.065 C 
ENDROOT
BRANCH   1   5
ATOM      2  C   UNL     1       8.899   6.813  24.620  0.00  0.00    +0.044 C 
ATOM      3  C   UNL     1       9.874   5.764  24.170  0.00  0.00    -0.050 A 
ATOM      4  C   UNL     1       9.460   4.432  24.058  0.00  0.00    +0.007 A 
ATOM      5  C   UNL     1      10.346   3.434  23.624  0.00  0.00    -0.045 A 
ATOM      6  C   UNL     1      11.665   3.785  23.313  0.00  0.00    +0.004 A 
ATOM      7  C   UNL     1      12.090   5.106  23.444  0.00  0.00    +0.001 A 
ATOM      8  C   UNL     1      11.199   6.093  23.869  0.00  0.00    +0.003 A 
ENDBRANCH   1   5
BRANCH   1   9
ATOM      9  CA  UNL     1       9.959   1.449  22.060  0.00  0.00    +0.165 C 
BRANCH   9  10
ATOM     10  N   UNL     1       8.831   1.914  21.190  0.00  0.00    -0.318 NA
ATOM     11  H1  UNL     1       8.100   2.272  21.815  0.00  0.00    +0.119 HD
ATOM     12  H2  UNL     1       9.153   2.754  20.694  0.00  0.00    +0.119 HD
ENDBRANCH   9  10
BRANCH   9  13
ATOM     13  C   UNL     1       9.875  -0.081  22.153  0.00  0.00    +0.322 C 
ATOM     14  OXT UNL     1       9.301  -0.805  21.356  0.00  0.00    -0.249 OA
BRANCH  13  15
ATOM     15  O   UNL     1      10.566  -0.545  23.229  0.00  0.00    -0.480 OA
ATOM     16  H   UNL     1      10.874  -1.453  22.985  0.00  0.00    +0.295 HD
ENDBRANCH  13  15
ENDBRANCH   9  13
ENDBRANCH   1   9
TORSDOF 5
ENDMDL
MODEL 9
REMARK VINA RESULT:      -4.8      4.457      6.034
REMARK  Name = 
REMARK  6 active torsions:
REMARK  status: ('A' for Active; 'I' for Inactive)
REMARK    1  A    between atoms: C_1  and  C_2
REMARK    2  A    between atoms: C_6  and  C_7
REMARK    3  A    between atoms: C_7  and  CA_8
REMARK    4  A    between atoms: CA_8  and  N_10
REMARK    5  A    between atoms: CA_8  and  C_11
REMARK    6  A    between atoms: C_11  and  O_12
REMARK                            x       y       z     vdW  Elec       q    Type
REMARK                         _______ _______ _______ _____ _____    ______ ____
ROOT
ATOM      1  C   UNL     1      10.637   1.839  24.087  0.00  0.00    +0.065 C 
ENDROOT
BRANCH   1   5
ATOM      2  C   UNL     1       9.604  -3.089  24.168  0.00  0.00    +0.044 C 
ATOM      3  C   UNL     1       9.680  -1.798  23.407  0.00  0.00    -0.050 A 
ATOM      4  C   UNL     1      10.086  -0.629  24.061  0.00  0.00    +0.007 A 
ATOM      5  C   UNL     1      10.181   0.590  23.371  0.00  0.00    -0.045 A 
ATOM      6  C   UNL     1       9.851   0.628  22.012  0.00  0.00    +0.004 A 
ATOM      7  C   UNL     1       9.425  -0.528  21.359  0.00  0.00    +0.001 A 
ATOM      8  C   UNL     1       9.341  -1.736  22.053  0.00  0.00    +0.003 A 
ENDBRANCH   1   5
BRANCH   1   9
ATOM      9  CA  UNL     1      10.108   3.144  23.469  0.00  0.00    +0.165 C 
BRANCH   9  10
ATOM     10  N   UNL     1      11.194   4.130  23.167  0.00  0.00    -0.318 NA
ATOM     11  H1  UNL     1      11.555   3.900  22.234  0.00  0.00    +0.119 HD
ATOM     12  H2  UNL     1      10.748   5.045  23.030  0.00  0.00    +0.119 HD
ENDBRANCH   9  10
BRANCH   9  13
ATOM     13  C   UNL     1       9.164   3.789  24.494  0.00  0.00    +0.322 C 
ATOM     14  OXT UNL     1       8.884   4.975  24.544  0.00  0.00    -0.249 OA
BRANCH  13  15
ATOM     15  O   UNL     1       8.635   2.854  25.329  0.00  0.00    -0.480 OA
ATOM     16  H   UNL     1       9.194   2.872  26.146  0.00  0.00    +0.295 HD
ENDBRANCH  13  15
ENDBRANCH   9  13
ENDBRANCH   1   9
TORSDOF 5
ENDMDL
