MODEL 1
REMARK VINA RESULT:      -5.0      0.000      0.000
REMARK  Name = 
REMARK  9 active torsions:
REMARK  status: ('A' for Active; 'I' for Inactive)
REMARK    1  A    between atoms: C_2  and  O_3
REMARK    2  A    between atoms: C_2  and  C_4
REMARK    3  A    between atoms: C_2  and  C_8
REMARK    4  A    between atoms: N_6  and  O_7
REMARK    5  A    between atoms: C_8  and  C_10
REMARK    6  A    between atoms: C_8  and  C_14
REMARK    7  A    between atoms: C_10  and  C_11
REMARK    8  A    between atoms: C_11  and  C_12
REMARK    9  A    between atoms: C_11  and  C_13
REMARK                            x       y       z     vdW  Elec       q    Type
REMARK                         _______ _______ _______ _____ _____    ______ ____
ROOT
ATOM      1  C   UNL     1       9.254  -4.312  25.341  0.00  0.00    +0.212 C 
ENDROOT
BRANCH   1   2
ATOM      2  C   UNL     1       8.243  -4.590  26.464  0.00  0.00    +0.265 C 
ATOM      3  N   UNL     1       8.227  -5.894  26.894  0.00  0.00    -0.195 N 
ATOM      4  H   UNL     1       8.991  -6.535  26.696  0.00  0.00    +0.182 HD
ATOM      5  O   UNL     1       7.512  -3.725  26.941  0.00  0.00    -0.271 OA
BRANCH   3   6
ATOM      6  O   UNL     1       7.428  -6.169  28.026  0.00  0.00    -0.295 OA
ATOM      7  H   UNL     1       7.449  -5.318  28.516  0.00  0.00    +0.241 HD
ENDBRANCH   3   6
ENDBRANCH   1   2
BRANCH   1   8
ATOM      8  O   UNL     1       9.658  -5.516  24.679  0.00  0.00    -0.382 OA
ATOM      9  H   UNL     1       9.318  -6.260  25.210  0.00  0.00    +0.210 HD
ENDBRANCH   1   8
BRANCH   1  10
ATOM     10  C   UNL     1       8.725  -3.285  24.330  0.00  0.00    +0.090 C 
BRANCH  10  11
ATOM     11  C   UNL     1       8.022  -4.005  23.203  0.00  0.00    +0.229 C 
ATOM     12  O   UNL     1       7.075  -4.763  23.383  0.00  0.00    -0.301 OA
ENDBRANCH  10  11
BRANCH  10  13
ATOM     13  C   UNL     1       9.880  -2.437  23.762  0.00  0.00    +0.016 C 
BRANCH  13  14
ATOM     14  C   UNL     1       9.582  -0.937  23.558  0.00  0.00    -0.016 C 
ATOM     15  C   UNL     1       9.923  -0.546  22.115  0.00  0.00    +0.007 C 
ATOM     16  C   UNL     1      10.345  -0.041  24.532  0.00  0.00    +0.007 C 
ENDBRANCH  13  14
ENDBRANCH  10  13
ENDBRANCH   1  10
TORSDOF 7
ENDMDL
MODEL 2
REMARK VINA RESULT:      -4.8      4.131      5.855
REMARK  Name = 
REMARK  9 active torsions:
REMARK  status: ('A' for Active; 'I' for Inactive)
REMARK    1  A    between atoms: C_2  and  O_3
REMARK    2  A    between atoms: C_2  and  C_4
REMARK    3  A    between atoms: C_2  and  C_8
REMARK    4  A    between atoms: N_6  and  O_7
REMARK    5  A    between atoms: C_8  and  C_10
REMARK    6  A    between atoms: C_8  and  C_14
REMARK    7  A    between atoms: C_10  and  C_11
REMARK    8  A    between atoms: C_11  and  C_12
REMARK    9  A    between atoms: C_11  and  C_13
REMARK                            x       y       z     vdW  Elec       q    Type
REMARK                         _______ _______ _______ _____ _____    ______ ____
ROOT
ATOM      1  C   UNL     1       8.891  -1.366  21.911  0.00  0.00    +0.212 C 
ENDROOT
BRANCH   1   2
ATOM      2  C   UNL     1       8.671   0.141  22.113  0.00  0.00    +0.265 C 
ATOM      3  N   UNL     1       9.574   0.933  21.448  0.00  0.00    -0.195 N 
ATOM      4  H   UNL     1      10.141   0.577  20.683  0.00  0.00    +0.182 HD
ATOM      5  O   UNL     1       7.768   0.602  22.806  0.00  0.00    -0.271 OA
BRANCH   3   6
ATOM      6  O   UNL     1       9.324   2.324  21.476  0.00  0.00    -0.295 OA
ATOM      7  H   UNL     1       9.678   2.588  22.353  0.00  0.00    +0.241 HD
ENDBRANCH   3   6
ENDBRANCH   1   2
BRANCH   1   8
ATOM      8  O   UNL     1      10.265  -1.673  21.652  0.00  0.00    -0.382 OA
ATOM      9  H   UNL     1      10.522  -1.174  20.854  0.00  0.00    +0.210 HD
ENDBRANCH   1   8
BRANCH   1  10
ATOM     10  C   UNL     1       8.362  -2.190  23.093  0.00  0.00    +0.090 C 
BRANCH  10  11
ATOM     11  C   UNL     1       9.460  -2.366  24.116  0.00  0.00    +0.229 C 
ATOM     12  O   UNL     1      10.231  -3.319  24.109  0.00  0.00    -0.301 OA
ENDBRANCH  10  11
BRANCH  10  13
ATOM     13  C   UNL     1       7.873  -3.572  22.616  0.00  0.00    +0.016 C 
BRANCH  13  14
ATOM     14  C   UNL     1       6.485  -3.603  21.941  0.00  0.00    -0.016 C 
ATOM     15  C   UNL     1       5.425  -3.132  22.943  0.00  0.00    +0.007 C 
ATOM     16  C   UNL     1       6.115  -4.987  21.407  0.00  0.00    +0.007 C 
ENDBRANCH  13  14
ENDBRANCH  10  13
ENDBRANCH   1  10
TORSDOF 7
ENDMDL
MODEL 3
REMARK VINA RESULT:      -4.7      1.762      3.595
REMARK  Name = 
REMARK  9 active torsions:
REMARK  status: ('A' for Active; 'I' for Inactive)
REMARK    1  A    between atoms: C_2  and  O_3
REMARK    2  A    between atoms: C_2  and  C_4
REMARK    3  A    between atoms: C_2  and  C_8
REMARK    4  A    between atoms: N_6  and  O_7
REMARK    5  A    between atoms: C_8  and  C_10
REMARK    6  A    between atoms: C_8  and  C_14
REMARK    7  A    between atoms: C_10  and  C_11
REMARK    8  A    between atoms: C_11  and  C_12
REMARK    9  A    between atoms: C_11  and  C_13
REMARK                            x       y       z     vdW  Elec       q    Type
REMARK                         _______ _______ _______ _____ _____    ______ ____
ROOT
ATOM      1  C   UNL     1       9.253  -4.715  25.275  0.00  0.00    +0.212 C 
ENDROOT
BRANCH   1   2
ATOM      2  C   UNL     1       8.345  -4.755  26.513  0.00  0.00    +0.265 C 
ATOM      3  N   UNL     1       8.025  -6.023  26.933  0.00  0.00    -0.195 N 
ATOM      4  H   UNL     1       8.556  -6.837  26.638  0.00  0.00    +0.182 HD
ATOM      5  O   UNL     1       7.939  -3.745  27.083  0.00  0.00    -0.271 OA
BRANCH   3   6
ATOM      6  O   UNL     1       7.319  -6.117  28.153  0.00  0.00    -0.295 OA
ATOM      7  H   UNL     1       7.832  -5.523  28.744  0.00  0.00    +0.241 HD
ENDBRANCH   3   6
ENDBRANCH   1   2
BRANCH   1   8
ATOM      8  O   UNL     1       9.918  -5.965  25.062  0.00  0.00    -0.382 OA
ATOM      9  H   UNL     1       9.227  -6.620  24.846  0.00  0.00    +0.210 HD
ENDBRANCH   1   8
BRANCH   1  10
ATOM     10  C   UNL     1       8.493  -4.280  24.014  0.00  0.00    +0.090 C 
BRANCH  10  11
ATOM     11  C   UNL     1       8.776  -2.823  23.734  0.00  0.00    +0.229 C 
ATOM     12  O   UNL     1       9.829  -2.277  24.045  0.00  0.00    -0.301 OA
ENDBRANCH  10  11
BRANCH  10  13
ATOM     13  C   UNL     1       6.976  -4.487  24.196  0.00  0.00    +0.016 C 
BRANCH  13  14
ATOM     14  C   UNL     1       6.250  -5.218  23.047  0.00  0.00    -0.016 C 
ATOM     15  C   UNL     1       5.243  -6.211  23.637  0.00  0.00    +0.007 C 
ATOM     16  C   UNL     1       7.209  -5.949  22.108  0.00  0.00    +0.007 C 
ENDBRANCH  13  14
ENDBRANCH  10  13
ENDBRANCH   1  10
TORSDOF 7
ENDMDL
MODEL 4
REMARK VINA RESULT:      -4.7      2.098      3.901
REMARK  Name = 
REMARK  9 active torsions:
REMARK  status: ('A' for Active; 'I' for Inactive)
REMARK    1  A    between atoms: C_2  and  O_3
REMARK    2  A    between atoms: C_2  and  C_4
REMARK    3  A    between atoms: C_2  and  C_8
REMARK    4  A    between atoms: N_6  and  O_7
REMARK    5  A    between atoms: C_8  and  C_10
REMARK    6  A    between atoms: C_8  and  C_14
REMARK    7  A    between atoms: C_10  and  C_11
REMARK    8  A    between atoms: C_11  and  C_12
REMARK    9  A    between atoms: C_11  and  C_13
REMARK                            x       y       z     vdW  Elec       q    Type
REMARK                         _______ _______ _______ _____ _____    ______ ____
ROOT
ATOM      1  C   UNL     1       8.906  -3.455  24.334  0.00  0.00    +0.212 C 
ENDROOT
BRANCH   1   2
ATOM      2  C   UNL     1       8.967  -4.712  25.215  0.00  0.00    +0.265 C 
ATOM      3  N   UNL     1       8.422  -4.547  26.465  0.00  0.00    -0.195 N 
ATOM      4  H   UNL     1       7.795  -3.777  26.681  0.00  0.00    +0.182 HD
ATOM      5  O   UNL     1       9.457  -5.774  24.839  0.00  0.00    -0.271 OA
BRANCH   3   6
ATOM      6  O   UNL     1       8.315  -5.712  27.257  0.00  0.00    -0.295 OA
ATOM      7  H   UNL     1       7.558  -5.501  27.847  0.00  0.00    +0.241 HD
ENDBRANCH   3   6
ENDBRANCH   1   2
BRANCH   1   8
ATOM      8  O   UNL     1      10.209  -3.027  23.925  0.00  0.00    -0.382 OA
ATOM      9  H   UNL     1      10.258  -2.066  24.092  0.00  0.00    +0.210 HD
ENDBRANCH   1   8
BRANCH   1  10
ATOM     10  C   UNL     1       7.989  -3.646  23.117  0.00  0.00    +0.090 C 
BRANCH  10  11
ATOM     11  C   UNL     1       7.853  -2.334  22.379  0.00  0.00    +0.229 C 
ATOM     12  O   UNL     1       8.794  -1.785  21.816  0.00  0.00    -0.301 OA
ENDBRANCH  10  11
BRANCH  10  13
ATOM     13  C   UNL     1       6.597  -4.140  23.557  0.00  0.00    +0.016 C 
BRANCH  13  14
ATOM     14  C   UNL     1       6.209  -5.564  23.105  0.00  0.00    -0.016 C 
ATOM     15  C   UNL     1       7.090  -5.974  21.919  0.00  0.00    +0.007 C 
ATOM     16  C   UNL     1       4.735  -5.685  22.723  0.00  0.00    +0.007 C 
ENDBRANCH  13  14
ENDBRANCH  10  13
ENDBRANCH   1  10
TORSDOF 7
ENDMDL
MODEL 5
REMARK VINA RESULT:      -4.6      5.476      6.981
REMARK  Name = 
REMARK  9 active torsions:
REMARK  status: ('A' for Active; 'I' for Inactive)
REMARK    1  A    between atoms: C_2  and  O_3
REMARK    2  A    between atoms: C_2  and  C_4
REMARK    3  A    between atoms: C_2  and  C_8
REMARK    4  A    between atoms: N_6  and  O_7
REMARK    5  A    between atoms: C_8  and  C_10
REMARK    6  A    between atoms: C_8  and  C_14
REMARK    7  A    between atoms: C_10  and  C_11
REMARK    8  A    between atoms: C_11  and  C_12
REMARK    9  A    between atoms: C_11  and  C_13
REMARK                            x       y       z     vdW  Elec       q    Type
REMARK                         _______ _______ _______ _____ _____    ______ ____
ROOT
ATOM      1  C   UNL     1       8.992   1.557  21.798  0.00  0.00    +0.212 C 
ENDROOT
BRANCH   1   2
ATOM      2  C   UNL     1       7.723   2.397  22.009  0.00  0.00    +0.265 C 
ATOM      3  N   UNL     1       7.932   3.753  21.940  0.00  0.00    -0.195 N 
ATOM      4  H   UNL     1       8.766   4.148  21.515  0.00  0.00    +0.182 HD
ATOM      5  O   UNL     1       6.618   1.905  22.219  0.00  0.00    -0.271 OA
BRANCH   3   6
ATOM      6  O   UNL     1       6.776   4.564  21.974  0.00  0.00    -0.295 OA
ATOM      7  H   UNL     1       6.674   4.754  22.933  0.00  0.00    +0.241 HD
ENDBRANCH   3   6
ENDBRANCH   1   2
BRANCH   1   8
ATOM      8  O   UNL     1      10.153   2.378  21.632  0.00  0.00    -0.382 OA
ATOM      9  H   UNL     1      10.909   1.775  21.493  0.00  0.00    +0.210 HD
ENDBRANCH   1   8
BRANCH   1  10
ATOM     10  C   UNL     1       9.203   0.536  22.926  0.00  0.00    +0.090 C 
BRANCH  10  11
ATOM     11  C   UNL     1       9.870   1.215  24.099  0.00  0.00    +0.229 C 
ATOM     12  O   UNL     1      11.082   1.179  24.289  0.00  0.00    -0.301 OA
ENDBRANCH  10  11
BRANCH  10  13
ATOM     13  C   UNL     1      10.077  -0.637  22.440  0.00  0.00    +0.016 C 
BRANCH  13  14
ATOM     14  C   UNL     1       9.485  -2.049  22.639  0.00  0.00    -0.016 C 
ATOM     15  C   UNL     1       7.967  -1.994  22.432  0.00  0.00    +0.007 C 
ATOM     16  C   UNL     1       9.800  -2.637  24.014  0.00  0.00    +0.007 C 
ENDBRANCH  13  14
ENDBRANCH  10  13
ENDBRANCH   1  10
TORSDOF 7
ENDMDL
MODEL 6
REMARK VINA RESULT:      -4.5      2.325      4.328
REMARK  Name = 
REMARK  9 active torsions:
REMARK  status: ('A' for Active; 'I' for Inactive)
REMARK    1  A    between atoms: C_2  and  O_3
REMARK    2  A    between atoms: C_2  and  C_4
REMARK    3  A    between atoms: C_2  and  C_8
REMARK    4  A    between atoms: N_6  and  O_7
REMARK    5  A    between atoms: C_8  and  C_10
REMARK    6  A    between atoms: C_8  and  C_14
REMARK    7  A    between atoms: C_10  and  C_11
REMARK    8  A    between atoms: C_11  and  C_12
REMARK    9  A    between atoms: C_11  and  C_13
REMARK                            x       y       z     vdW  Elec       q    Type
REMARK                         _______ _______ _______ _____ _____    ______ ____
ROOT
ATOM      1  C   UNL     1       8.847  -4.702  24.664  0.00  0.00    +0.212 C 
ENDROOT
BRANCH   1   2
ATOM      2  C   UNL     1       9.410  -3.281  24.509  0.00  0.00    +0.265 C 
ATOM      3  N   UNL     1       8.772  -2.339  25.278  0.00  0.00    -0.195 N 
ATOM      4  H   UNL     1       8.190  -2.595  26.070  0.00  0.00    +0.182 HD
ATOM      5  O   UNL     1      10.349  -3.007  23.765  0.00  0.00    -0.271 OA
BRANCH   3   6
ATOM      6  O   UNL     1       9.348  -1.048  25.289  0.00  0.00    -0.295 OA
ATOM      7  H   UNL     1      10.091  -1.149  25.923  0.00  0.00    +0.241 HD
ENDBRANCH   3   6
ENDBRANCH   1   2
BRANCH   1   8
ATOM      8  O   UNL     1       9.668  -5.511  25.512  0.00  0.00    -0.382 OA
ATOM      9  H   UNL     1      10.388  -4.939  25.840  0.00  0.00    +0.210 HD
ENDBRANCH   1   8
BRANCH   1  10
ATOM     10  C   UNL     1       7.393  -4.696  25.159  0.00  0.00    +0.090 C 
BRANCH  10  11
ATOM     11  C   UNL     1       7.284  -5.539  26.408  0.00  0.00    +0.229 C 
ATOM     12  O   UNL     1       7.621  -5.135  27.516  0.00  0.00    -0.301 OA
ENDBRANCH  10  11
BRANCH  10  13
ATOM     13  C   UNL     1       6.447  -5.251  24.076  0.00  0.00    +0.016 C 
BRANCH  13  14
ATOM     14  C   UNL     1       6.867  -4.991  22.613  0.00  0.00    -0.016 C 
ATOM     15  C   UNL     1       6.203  -3.702  22.118  0.00  0.00    +0.007 C 
ATOM     16  C   UNL     1       6.514  -6.148  21.679  0.00  0.00    +0.007 C 
ENDBRANCH  13  14
ENDBRANCH  10  13
ENDBRANCH   1  10
TORSDOF 7
ENDMDL
MODEL 7
REMARK VINA RESULT:      -4.4      4.180      5.908
REMARK  Name = 
REMARK  9 active torsions:
REMARK  status: ('A' for Active; 'I' for Inactive)
REMARK    1  A    between atoms: C_2  and  O_3
REMARK    2  A    between atoms: C_2  and  C_4
REMARK    3  A    between atoms: C_2  and  C_8
REMARK    4  A    between atoms: N_6  and  O_7
REMARK    5  A    between atoms: C_8  and  C_10
REMARK    6  A    between atoms: C_8  and  C_14
REMARK    7  A    between atoms: C_10  and  C_11
REMARK    8  A    between atoms: C_11  and  C_12
REMARK    9  A    between atoms: C_11  and  C_13
REMARK                            x       y       z     vdW  Elec       q    Type
REMARK                         _______ _______ _______ _____ _____    ______ ____
ROOT
ATOM      1  C   UNL     1      10.194  -0.302  24.245  0.00  0.00    +0.212 C 
ENDROOT
BRANCH   1   2
ATOM      2  C   UNL     1      10.112   0.326  22.846  0.00  0.00    +0.265 C 
ATOM      3  N   UNL     1      10.176   1.698  22.843  0.00  0.00    -0.195 N 
ATOM      4  H   UNL     1      10.526   2.222  23.640  0.00  0.00    +0.182 HD
ATOM      5  O   UNL     1      10.001  -0.336  21.817  0.00  0.00    -0.271 OA
BRANCH   3   6
ATOM      6  O   UNL     1      10.259   2.316  21.575  0.00  0.00    -0.295 OA
ATOM      7  H   UNL     1      10.989   2.962  21.697  0.00  0.00    +0.241 HD
ENDBRANCH   3   6
ENDBRANCH   1   2
BRANCH   1   8
ATOM      8  O   UNL     1      10.571   0.658  25.238  0.00  0.00    -0.382 OA
ATOM      9  H   UNL     1       9.907   1.373  25.208  0.00  0.00    +0.210 HD
ENDBRANCH   1   8
BRANCH   1  10
ATOM     10  C   UNL     1       8.889  -1.009  24.638  0.00  0.00    +0.090 C 
BRANCH  10  11
ATOM     11  C   UNL     1       8.461  -0.547  26.011  0.00  0.00    +0.229 C 
ATOM     12  O   UNL     1       8.979  -0.957  27.045  0.00  0.00    -0.301 OA
ENDBRANCH  10  11
BRANCH  10  13
ATOM     13  C   UNL     1       9.079  -2.539  24.643  0.00  0.00    +0.016 C 
BRANCH  13  14
ATOM     14  C   UNL     1       7.955  -3.363  23.979  0.00  0.00    -0.016 C 
ATOM     15  C   UNL     1       8.264  -4.856  24.137  0.00  0.00    +0.007 C 
ATOM     16  C   UNL     1       7.766  -3.026  22.501  0.00  0.00    +0.007 C 
ENDBRANCH  13  14
ENDBRANCH  10  13
ENDBRANCH   1  10
TORSDOF 7
ENDMDL
MODEL 8
REMARK VINA RESULT:      -4.4      1.444      2.401
REMARK  Name = 
REMARK  9 active torsions:
REMARK  status: ('A' for Active; 'I' for Inactive)
REMARK    1  A    between atoms: C_2  and  O_3
REMARK    2  A    between atoms: C_2  and  C_4
REMARK    3  A    between atoms: C_2  and  C_8
REMARK    4  A    between atoms: N_6  and  O_7
REMARK    5  A    between atoms: C_8  and  C_10
REMARK    6  A    between atoms: C_8  and  C_14
REMARK    7  A    between atoms: C_10  and  C_11
REMARK    8  A    between atoms: C_11  and  C_12
REMARK    9  A    between atoms: C_11  and  C_13
REMARK                            x       y       z     vdW  Elec       q    Type
REMARK                         _______ _______ _______ _____ _____    ______ ____
ROOT
ATOM      1  C   UNL     1       7.833  -4.252  23.576  0.00  0.00    +0.212 C 
ENDROOT
BRANCH   1   2
ATOM      2  C   UNL     1       8.565  -4.876  24.774  0.00  0.00    +0.265 C 
ATOM      3  N   UNL     1       7.740  -5.220  25.817  0.00  0.00    -0.195 N 
ATOM      4  H   UNL     1       6.736  -5.318  25.698  0.00  0.00    +0.182 HD
ATOM      5  O   UNL     1       9.780  -5.054  24.801  0.00  0.00    -0.271 OA
BRANCH   3   6
ATOM      6  O   UNL     1       8.340  -5.935  26.877  0.00  0.00    -0.295 OA
ATOM      7  H   UNL     1       8.827  -5.233  27.362  0.00  0.00    +0.241 HD
ENDBRANCH   3   6
ENDBRANCH   1   2
BRANCH   1   8
ATOM      8  O   UNL     1       6.474  -4.697  23.492  0.00  0.00    -0.382 OA
ATOM      9  H   UNL     1       5.942  -4.089  24.040  0.00  0.00    +0.210 HD
ENDBRANCH   1   8
BRANCH   1  10
ATOM     10  C   UNL     1       7.904  -2.718  23.591  0.00  0.00    +0.090 C 
BRANCH  10  11
ATOM     11  C   UNL     1       6.626  -2.161  24.174  0.00  0.00    +0.229 C 
ATOM     12  O   UNL     1       6.238  -2.429  25.306  0.00  0.00    -0.301 OA
ENDBRANCH  10  11
BRANCH  10  13
ATOM     13  C   UNL     1       8.103  -2.170  22.164  0.00  0.00    +0.016 C 
BRANCH  13  14
ATOM     14  C   UNL     1       9.463  -1.495  21.882  0.00  0.00    -0.016 C 
ATOM     15  C   UNL     1      10.375  -1.668  23.102  0.00  0.00    +0.007 C 
ATOM     16  C   UNL     1       9.331  -0.012  21.540  0.00  0.00    +0.007 C 
ENDBRANCH  13  14
ENDBRANCH  10  13
ENDBRANCH   1  10
TORSDOF 7
ENDMDL
MODEL 9
REMARK VINA RESULT:      -4.3      1.638      2.039
REMARK  Name = 
REMARK  9 active torsions:
REMARK  status: ('A' for Active; 'I' for Inactive)
REMARK    1  A    between atoms: C_2  and  O_3
REMARK    2  A    between atoms: C_2  and  C_4
REMARK    3  A    between atoms: C_2  and  C_8
REMARK    4  A    between atoms: N_6  and  O_7
REMARK    5  A    between atoms: C_8  and  C_10
REMARK    6  A    between atoms: C_8  and  C_14
REMARK    7  A    between atoms: C_10  and  C_11
REMARK    8  A    between atoms: C_11  and  C_12
REMARK    9  A    between atoms: C_11  and  C_13
REMARK                            x       y       z     vdW  Elec       q    Type
REMARK                         _______ _______ _______ _____ _____    ______ ____
ROOT
ATOM      1  C   UNL     1       8.553  -3.710  25.286  0.00  0.00    +0.212 C 
ENDROOT
BRANCH   1   2
ATOM      2  C   UNL     1       7.798  -4.369  26.450  0.00  0.00    +0.265 C 
ATOM      3  N   UNL     1       8.200  -5.653  26.724  0.00  0.00    -0.195 N 
ATOM      4  H   UNL     1       9.087  -6.022  26.390  0.00  0.00    +0.182 HD
ATOM      5  O   UNL     1       6.912  -3.801  27.084  0.00  0.00    -0.271 OA
BRANCH   3   6
ATOM      6  O   UNL     1       7.646  -6.248  27.880  0.00  0.00    -0.295 OA
ATOM      7  H   UNL     1       8.302  -6.021  28.574  0.00  0.00    +0.241 HD
ENDBRANCH   3   6
ENDBRANCH   1   2
BRANCH   1   8
ATOM      8  O   UNL     1       9.249  -4.675  24.489  0.00  0.00    -0.382 OA
ATOM      9  H   UNL     1       8.584  -5.316  24.175  0.00  0.00    +0.210 HD
ENDBRANCH   1   8
BRANCH   1  10
ATOM     10  C   UNL     1       7.631  -2.847  24.413  0.00  0.00    +0.090 C 
BRANCH  10  11
ATOM     11  C   UNL     1       8.020  -3.004  22.962  0.00  0.00    +0.229 C 
ATOM     12  O   UNL     1       8.976  -2.421  22.461  0.00  0.00    -0.301 OA
ENDBRANCH  10  11
BRANCH  10  13
ATOM     13  C   UNL     1       7.731  -1.363  24.819  0.00  0.00    +0.016 C 
BRANCH  13  14
ATOM     14  C   UNL     1       8.937  -0.983  25.703  0.00  0.00    -0.016 C 
ATOM     15  C   UNL     1       8.430  -0.462  27.052  0.00  0.00    +0.007 C 
ATOM     16  C   UNL     1       9.845   0.060  25.053  0.00  0.00    +0.007 C 
ENDBRANCH  13  14
ENDBRANCH  10  13
ENDBRANCH   1  10
TORSDOF 7
ENDMDL
