MODEL 1
REMARK VINA RESULT:      -7.8      0.000      0.000
REMARK  Name = 
REMARK  9 active torsions:
REMARK  status: ('A' for Active; 'I' for Inactive)
REMARK    1  A    between atoms: C_1  and  O_2
REMARK    2  A    between atoms: O_2  and  C_3
REMARK    3  A    between atoms: C_4  and  C_10
REMARK    4  A    between atoms: N_12  and  C_13
REMARK    5  A    between atoms: C_13  and  C_14
REMARK    6  A    between atoms: C_14  and  C_15
REMARK    7  A    between atoms: C_18  and  S_21
REMARK    8  A    between atoms: S_21  and  N_24
REMARK    9  A    between atoms: N_27  and  C_28
REMARK                            x       y       z     vdW  Elec       q    Type
REMARK                         _______ _______ _______ _____ _____    ______ ____
ROOT
ATOM      1  C   UNL     1       9.045  -0.935  22.284  0.00  0.00    -0.046 A 
ATOM      2  C   UNL     1       8.153  -2.009  22.101  0.00  0.00    +0.005 A 
ATOM      3  C   UNL     1       8.080  -3.058  23.030  0.00  0.00    +0.029 A 
ATOM      4  C   UNL     1       8.902  -3.041  24.159  0.00  0.00    +0.109 A 
ATOM      5  C   UNL     1       9.802  -1.992  24.344  0.00  0.00    +0.029 A 
ATOM      6  C   UNL     1       9.862  -0.941  23.422  0.00  0.00    +0.005 A 
ENDROOT
BRANCH   4   7
ATOM      7  S   UNL     1       8.892  -4.406  25.303  0.00  0.00    +0.076 S 
ATOM      8  O   UNL     1       8.775  -3.886  26.647  0.00  0.00    -0.150 OA
ATOM      9  O   UNL     1      10.000  -5.271  24.950  0.00  0.00    -0.150 OA
BRANCH   7  10
ATOM     10  N   UNL     1       7.526  -5.278  24.917  0.00  0.00    -0.169 N 
ATOM     11  H   UNL     1       7.722  -6.142  24.431  0.00  0.00    +0.178 HD
ATOM     12  C   UNL     1       6.243  -4.885  25.249  0.00  0.00    +0.319 C 
ATOM     13  N   UNL     1       5.259  -5.771  24.889  0.00  0.00    -0.295 N 
ATOM     14  H   UNL     1       5.531  -6.702  24.610  0.00  0.00    +0.151 HD
ATOM     15  O   UNL     1       5.999  -3.826  25.809  0.00  0.00    -0.251 OA
BRANCH  13  16
ATOM     16  C   UNL     1       3.888  -5.531  25.334  0.00  0.00    +0.074 C 
ATOM     17  C   UNL     1       3.270  -6.809  25.916  0.00  0.00    +0.022 C 
ATOM     18  C   UNL     1       2.911  -7.816  24.827  0.00  0.00    +0.002 C 
ATOM     19  C   UNL     1       1.965  -7.198  23.804  0.00  0.00    +0.000 C 
ATOM     20  C   UNL     1       2.549  -5.932  23.185  0.00  0.00    +0.002 C 
ATOM     21  C   UNL     1       3.008  -4.925  24.237  0.00  0.00    +0.022 C 
ENDBRANCH  13  16
ENDBRANCH   7  10
ENDBRANCH   4   7
BRANCH   1  22
ATOM     22  C   UNL     1       9.087   0.170  21.241  0.00  0.00    +0.054 C 
BRANCH  22  23
ATOM     23  C   UNL     1       8.214   1.405  21.511  0.00  0.00    +0.109 C 
BRANCH  23  25
ATOM     24  C   UNL     1       9.197   2.845  23.278  0.00  0.00    +0.248 C 
ATOM     25  N   UNL     1       8.985   2.566  21.935  0.00  0.00    -0.311 N 
ATOM     26  H   UNL     1       9.296   3.208  21.220  0.00  0.00    +0.149 HD
ATOM     27  O   UNL     1       8.746   2.130  24.165  0.00  0.00    -0.270 OA
BRANCH  24  34
ATOM     28  C   UNL     1       9.493   5.150  24.309  0.00  0.00    +0.132 A 
ATOM     29  C   UNL     1      10.299   6.270  24.570  0.00  0.00    +0.048 A 
ATOM     30  C   UNL     1      11.636   6.290  24.179  0.00  0.00    +0.023 A 
ATOM     31  C   UNL     1      12.175   5.191  23.521  0.00  0.00    +0.042 A 
ATOM     32 CL   UNL     1      13.835   5.207  23.067  0.00  0.00    -0.084 Cl
ATOM     33  C   UNL     1      11.384   4.080  23.227  0.00  0.00    +0.036 A 
ATOM     34  C   UNL     1      10.026   4.056  23.596  0.00  0.00    +0.080 A 
BRANCH  28  36
ATOM     35  C   UNL     1       7.923   4.996  26.071  0.00  0.00    +0.277 C 
ATOM     36  O   UNL     1       8.169   5.134  24.671  0.00  0.00    -0.494 OA
ENDBRANCH  28  36
ENDBRANCH  24  34
ENDBRANCH  23  25
ENDBRANCH  22  23
ENDBRANCH   1  22
TORSDOF 8
ENDMDL
MODEL 2
REMARK VINA RESULT:      -7.8      1.974      2.728
REMARK  Name = 
REMARK  9 active torsions:
REMARK  status: ('A' for Active; 'I' for Inactive)
REMARK    1  A    between atoms: C_1  and  O_2
REMARK    2  A    between atoms: O_2  and  C_3
REMARK    3  A    between atoms: C_4  and  C_10
REMARK    4  A    between atoms: N_12  and  C_13
REMARK    5  A    between atoms: C_13  and  C_14
REMARK    6  A    between atoms: C_14  and  C_15
REMARK    7  A    between atoms: C_18  and  S_21
REMARK    8  A    between atoms: S_21  and  N_24
REMARK    9  A    between atoms: N_27  and  C_28
REMARK                            x       y       z     vdW  Elec       q    Type
REMARK                         _______ _______ _______ _____ _____    ______ ____
ROOT
ATOM      1  C   UNL     1       8.861  -0.428  22.392  0.00  0.00    -0.046 A 
ATOM      2  C   UNL     1      10.000  -1.185  22.728  0.00  0.00    +0.005 A 
ATOM      3  C   UNL     1       9.895  -2.342  23.516  0.00  0.00    +0.029 A 
ATOM      4  C   UNL     1       8.643  -2.755  23.975  0.00  0.00    +0.109 A 
ATOM      5  C   UNL     1       7.510  -2.005  23.663  0.00  0.00    +0.029 A 
ATOM      6  C   UNL     1       7.616  -0.860  22.866  0.00  0.00    +0.005 A 
ENDROOT
BRANCH   4   7
ATOM      7  S   UNL     1       8.497  -4.166  25.051  0.00  0.00    +0.076 S 
ATOM      8  O   UNL     1       8.811  -3.757  26.402  0.00  0.00    -0.150 OA
ATOM      9  O   UNL     1       9.225  -5.256  24.432  0.00  0.00    -0.150 OA
BRANCH   7  10
ATOM     10  N   UNL     1       6.894  -4.612  24.957  0.00  0.00    -0.169 N 
ATOM     11  H   UNL     1       6.387  -4.141  24.221  0.00  0.00    +0.178 HD
ATOM     12  C   UNL     1       6.308  -5.556  25.780  0.00  0.00    +0.319 C 
ATOM     13  N   UNL     1       4.990  -5.820  25.504  0.00  0.00    -0.295 N 
ATOM     14  H   UNL     1       4.607  -5.487  24.633  0.00  0.00    +0.151 HD
ATOM     15  O   UNL     1       6.911  -6.104  26.691  0.00  0.00    -0.251 OA
BRANCH  13  16
ATOM     16  C   UNL     1       4.323  -6.914  26.207  0.00  0.00    +0.074 C 
ATOM     17  C   UNL     1       3.306  -7.610  25.293  0.00  0.00    +0.022 C 
ATOM     18  C   UNL     1       2.053  -6.764  25.085  0.00  0.00    +0.002 C 
ATOM     19  C   UNL     1       1.403  -6.416  26.420  0.00  0.00    +0.000 C 
ATOM     20  C   UNL     1       2.376  -5.704  27.354  0.00  0.00    +0.002 C 
ATOM     21  C   UNL     1       3.687  -6.468  27.526  0.00  0.00    +0.022 C 
ENDBRANCH  13  16
ENDBRANCH   7  10
ENDBRANCH   4   7
BRANCH   1  22
ATOM     22  C   UNL     1       9.036   0.821  21.542  0.00  0.00    +0.054 C 
BRANCH  22  23
ATOM     23  C   UNL     1      10.218   1.736  21.898  0.00  0.00    +0.109 C 
BRANCH  23  25
ATOM     24  C   UNL     1       9.606   3.064  23.903  0.00  0.00    +0.248 C 
ATOM     25  N   UNL     1       9.805   2.980  22.532  0.00  0.00    -0.311 N 
ATOM     26  H   UNL     1       9.590   3.763  21.931  0.00  0.00    +0.149 HD
ATOM     27  O   UNL     1       9.770   2.099  24.640  0.00  0.00    -0.270 OA
BRANCH  24  34
ATOM     28  C   UNL     1       9.954   5.568  24.180  0.00  0.00    +0.132 A 
ATOM     29  C   UNL     1       9.549   6.798  24.723  0.00  0.00    +0.048 A 
ATOM     30  C   UNL     1       8.383   6.892  25.480  0.00  0.00    +0.023 A 
ATOM     31  C   UNL     1       7.615   5.754  25.702  0.00  0.00    +0.042 A 
ATOM     32 CL   UNL     1       6.160   5.880  26.610  0.00  0.00    -0.084 Cl
ATOM     33  C   UNL     1       8.015   4.517  25.194  0.00  0.00    +0.036 A 
ATOM     34  C   UNL     1       9.202   4.404  24.448  0.00  0.00    +0.080 A 
BRANCH  28  36
ATOM     35  C   UNL     1      12.268   6.038  24.067  0.00  0.00    +0.277 C 
ATOM     36  O   UNL     1      11.114   5.465  23.454  0.00  0.00    -0.494 OA
ENDBRANCH  28  36
ENDBRANCH  24  34
ENDBRANCH  23  25
ENDBRANCH  22  23
ENDBRANCH   1  22
TORSDOF 8
ENDMDL
MODEL 3
REMARK VINA RESULT:      -7.7      2.341      2.912
REMARK  Name = 
REMARK  9 active torsions:
REMARK  status: ('A' for Active; 'I' for Inactive)
REMARK    1  A    between atoms: C_1  and  O_2
REMARK    2  A    between atoms: O_2  and  C_3
REMARK    3  A    between atoms: C_4  and  C_10
REMARK    4  A    between atoms: N_12  and  C_13
REMARK    5  A    between atoms: C_13  and  C_14
REMARK    6  A    between atoms: C_14  and  C_15
REMARK    7  A    between atoms: C_18  and  S_21
REMARK    8  A    between atoms: S_21  and  N_24
REMARK    9  A    between atoms: N_27  and  C_28
REMARK                            x       y       z     vdW  Elec       q    Type
REMARK                         _______ _______ _______ _____ _____    ______ ____
ROOT
ATOM      1  C   UNL     1       7.453  -1.851  24.372  0.00  0.00    -0.046 A 
ATOM      2  C   UNL     1       6.778  -1.747  23.140  0.00  0.00    +0.005 A 
ATOM      3  C   UNL     1       6.467  -2.888  22.384  0.00  0.00    +0.029 A 
ATOM      4  C   UNL     1       6.828  -4.151  22.857  0.00  0.00    +0.109 A 
ATOM      5  C   UNL     1       7.511  -4.267  24.068  0.00  0.00    +0.029 A 
ATOM      6  C   UNL     1       7.807  -3.128  24.824  0.00  0.00    +0.005 A 
ENDROOT
BRANCH   4   7
ATOM      7  S   UNL     1       6.526  -5.604  21.873  0.00  0.00    +0.076 S 
ATOM      8  O   UNL     1       7.747  -6.374  21.790  0.00  0.00    -0.150 OA
ATOM      9  O   UNL     1       5.853  -5.172  20.664  0.00  0.00    -0.150 OA
BRANCH   7  10
ATOM     10  N   UNL     1       5.377  -6.463  22.721  0.00  0.00    -0.169 N 
ATOM     11  H   UNL     1       5.684  -7.385  22.996  0.00  0.00    +0.178 HD
ATOM     12  C   UNL     1       4.130  -5.964  23.050  0.00  0.00    +0.319 C 
ATOM     13  N   UNL     1       3.352  -6.809  23.799  0.00  0.00    -0.295 N 
ATOM     14  H   UNL     1       3.789  -7.614  24.223  0.00  0.00    +0.151 HD
ATOM     15  O   UNL     1       3.744  -4.860  22.692  0.00  0.00    -0.251 OA
BRANCH  13  16
ATOM     16  C   UNL     1       2.084  -6.320  24.336  0.00  0.00    +0.074 C 
ATOM     17  C   UNL     1       2.256  -5.821  25.777  0.00  0.00    +0.022 C 
ATOM     18  C   UNL     1       2.416  -6.973  26.765  0.00  0.00    +0.002 C 
ATOM     19  C   UNL     1       1.230  -7.928  26.682  0.00  0.00    +0.000 C 
ATOM     20  C   UNL     1       1.034  -8.465  25.268  0.00  0.00    +0.002 C 
ATOM     21  C   UNL     1       0.958  -7.352  24.226  0.00  0.00    +0.022 C 
ENDBRANCH  13  16
ENDBRANCH   7  10
ENDBRANCH   4   7
BRANCH   1  22
ATOM     22  C   UNL     1       7.771  -0.581  25.143  0.00  0.00    +0.054 C 
BRANCH  22  23
ATOM     23  C   UNL     1       9.258  -0.264  25.364  0.00  0.00    +0.109 C 
BRANCH  23  25
ATOM     24  C   UNL     1       9.907   1.638  23.908  0.00  0.00    +0.248 C 
ATOM     25  N   UNL     1       9.577   1.143  25.162  0.00  0.00    -0.311 N 
ATOM     26  H   UNL     1       9.628   1.734  25.979  0.00  0.00    +0.149 HD
ATOM     27  O   UNL     1       9.945   0.917  22.918  0.00  0.00    -0.270 OA
BRANCH  24  34
ATOM     28  C   UNL     1       9.248   4.074  24.219  0.00  0.00    +0.132 A 
ATOM     29  C   UNL     1       9.553   5.440  24.099  0.00  0.00    +0.048 A 
ATOM     30  C   UNL     1      10.801   5.852  23.638  0.00  0.00    +0.023 A 
ATOM     31  C   UNL     1      11.753   4.901  23.289  0.00  0.00    +0.042 A 
ATOM     32 CL   UNL     1      13.304   5.414  22.750  0.00  0.00    -0.084 Cl
ATOM     33  C   UNL     1      11.460   3.539  23.373  0.00  0.00    +0.036 A 
ATOM     34  C   UNL     1      10.195   3.109  23.815  0.00  0.00    +0.080 A 
BRANCH  28  36
ATOM     35  C   UNL     1       7.647   4.103  25.958  0.00  0.00    +0.277 C 
ATOM     36  O   UNL     1       8.012   3.663  24.650  0.00  0.00    -0.494 OA
ENDBRANCH  28  36
ENDBRANCH  24  34
ENDBRANCH  23  25
ENDBRANCH  22  23
ENDBRANCH   1  22
TORSDOF 8
ENDMDL
MODEL 4
REMARK VINA RESULT:      -7.5      2.540      3.100
REMARK  Name = 
REMARK  9 active torsions:
REMARK  status: ('A' for Active; 'I' for Inactive)
REMARK    1  A    between atoms: C_1  and  O_2
REMARK    2  A    between atoms: O_2  and  C_3
REMARK    3  A    between atoms: C_4  and  C_10
REMARK    4  A    between atoms: N_12  and  C_13
REMARK    5  A    between atoms: C_13  and  C_14
REMARK    6  A    between atoms: C_14  and  C_15
REMARK    7  A    between atoms: C_18  and  S_21
REMARK    8  A    between atoms: S_21  and  N_24
REMARK    9  A    between atoms: N_27  and  C_28
REMARK                            x       y       z     vdW  Elec       q    Type
REMARK                         _______ _______ _______ _____ _____    ______ ____
ROOT
ATOM      1  C   UNL     1       9.231  -0.648  22.512  0.00  0.00    -0.046 A 
ATOM      2  C   UNL     1       7.970  -0.904  23.086  0.00  0.00    +0.005 A 
ATOM      3  C   UNL     1       7.773  -1.991  23.950  0.00  0.00    +0.029 A 
ATOM      4  C   UNL     1       8.842  -2.838  24.251  0.00  0.00    +0.109 A 
ATOM      5  C   UNL     1      10.092  -2.606  23.677  0.00  0.00    +0.029 A 
ATOM      6  C   UNL     1      10.287  -1.512  22.827  0.00  0.00    +0.005 A 
ENDROOT
BRANCH   4   7
ATOM      7  S   UNL     1       8.595  -4.277  25.271  0.00  0.00    +0.076 S 
ATOM      8  O   UNL     1       8.842  -3.919  26.650  0.00  0.00    -0.150 OA
ATOM      9  O   UNL     1       9.325  -5.368  24.659  0.00  0.00    -0.150 OA
BRANCH   7  10
ATOM     10  N   UNL     1       6.988  -4.670  25.072  0.00  0.00    -0.169 N 
ATOM     11  H   UNL     1       6.545  -4.184  24.305  0.00  0.00    +0.178 HD
ATOM     12  C   UNL     1       6.319  -5.593  25.855  0.00  0.00    +0.319 C 
ATOM     13  N   UNL     1       5.014  -5.815  25.494  0.00  0.00    -0.295 N 
ATOM     14  H   UNL     1       4.700  -5.471  24.599  0.00  0.00    +0.151 HD
ATOM     15  O   UNL     1       6.843  -6.159  26.803  0.00  0.00    -0.251 OA
BRANCH  13  16
ATOM     16  C   UNL     1       4.267  -6.885  26.150  0.00  0.00    +0.074 C 
ATOM     17  C   UNL     1       3.328  -7.585  25.159  0.00  0.00    +0.022 C 
ATOM     18  C   UNL     1       2.114  -6.726  24.819  0.00  0.00    +0.002 C 
ATOM     19  C   UNL     1       1.348  -6.343  26.081  0.00  0.00    +0.000 C 
ATOM     20  C   UNL     1       2.241  -5.626  27.089  0.00  0.00    +0.002 C 
ATOM     21  C   UNL     1       3.518  -6.404  27.396  0.00  0.00    +0.022 C 
ENDBRANCH  13  16
ENDBRANCH   7  10
ENDBRANCH   4   7
BRANCH   1  22
ATOM     22  C   UNL     1       9.384   0.541  21.577  0.00  0.00    +0.054 C 
BRANCH  22  23
ATOM     23  C   UNL     1      10.000   1.814  22.177  0.00  0.00    +0.109 C 
BRANCH  23  25
ATOM     24  C   UNL     1       8.387   3.362  23.255  0.00  0.00    +0.248 C 
ATOM     25  N   UNL     1       9.099   2.958  22.134  0.00  0.00    -0.311 N 
ATOM     26  H   UNL     1       8.948   3.401  21.240  0.00  0.00    +0.149 HD
ATOM     27  O   UNL     1       8.483   2.777  24.328  0.00  0.00    -0.270 OA
BRANCH  24  34
ATOM     28  C   UNL     1       8.041   5.871  23.029  0.00  0.00    +0.132 A 
ATOM     29  C   UNL     1       7.179   6.971  22.899  0.00  0.00    +0.048 A 
ATOM     30  C   UNL     1       5.803   6.787  22.782  0.00  0.00    +0.023 A 
ATOM     31  C   UNL     1       5.279   5.500  22.798  0.00  0.00    +0.042 A 
ATOM     32 CL   UNL     1       3.583   5.274  22.622  0.00  0.00    -0.084 Cl
ATOM     33  C   UNL     1       6.116   4.394  22.955  0.00  0.00    +0.036 A 
ATOM     34  C   UNL     1       7.505   4.568  23.098  0.00  0.00    +0.080 A 
BRANCH  28  36
ATOM     35  C   UNL     1       9.807   6.640  24.400  0.00  0.00    +0.277 C 
ATOM     36  O   UNL     1       9.395   6.048  23.169  0.00  0.00    -0.494 OA
ENDBRANCH  28  36
ENDBRANCH  24  34
ENDBRANCH  23  25
ENDBRANCH  22  23
ENDBRANCH   1  22
TORSDOF 8
ENDMDL
MODEL 5
REMARK VINA RESULT:      -7.5      2.605      3.706
REMARK  Name = 
REMARK  9 active torsions:
REMARK  status: ('A' for Active; 'I' for Inactive)
REMARK    1  A    between atoms: C_1  and  O_2
REMARK    2  A    between atoms: O_2  and  C_3
REMARK    3  A    between atoms: C_4  and  C_10
REMARK    4  A    between atoms: N_12  and  C_13
REMARK    5  A    between atoms: C_13  and  C_14
REMARK    6  A    between atoms: C_14  and  C_15
REMARK    7  A    between atoms: C_18  and  S_21
REMARK    8  A    between atoms: S_21  and  N_24
REMARK    9  A    between atoms: N_27  and  C_28
REMARK                            x       y       z     vdW  Elec       q    Type
REMARK                         _______ _______ _______ _____ _____    ______ ____
ROOT
ATOM      1  C   UNL     1       7.894  -2.622  25.352  0.00  0.00    -0.046 A 
ATOM      2  C   UNL     1       7.504  -2.059  24.121  0.00  0.00    +0.005 A 
ATOM      3  C   UNL     1       7.035  -2.863  23.071  0.00  0.00    +0.029 A 
ATOM      4  C   UNL     1       6.949  -4.246  23.244  0.00  0.00    +0.109 A 
ATOM      5  C   UNL     1       7.347  -4.818  24.452  0.00  0.00    +0.029 A 
ATOM      6  C   UNL     1       7.801  -4.012  25.501  0.00  0.00    +0.005 A 
ENDROOT
BRANCH   4   7
ATOM      7  S   UNL     1       6.445  -5.295  21.897  0.00  0.00    +0.076 S 
ATOM      8  O   UNL     1       7.573  -6.100  21.484  0.00  0.00    -0.150 OA
ATOM      9  O   UNL     1       5.758  -4.457  20.934  0.00  0.00    -0.150 OA
BRANCH   7  10
ATOM     10  N   UNL     1       5.260  -6.275  22.537  0.00  0.00    -0.169 N 
ATOM     11  H   UNL     1       5.537  -7.243  22.620  0.00  0.00    +0.178 HD
ATOM     12  C   UNL     1       4.022  -5.817  22.950  0.00  0.00    +0.319 C 
ATOM     13  N   UNL     1       3.209  -6.775  23.501  0.00  0.00    -0.295 N 
ATOM     14  H   UNL     1       3.618  -7.662  23.754  0.00  0.00    +0.151 HD
ATOM     15  O   UNL     1       3.672  -4.653  22.823  0.00  0.00    -0.251 OA
BRANCH  13  16
ATOM     16  C   UNL     1       1.947  -6.369  24.114  0.00  0.00    +0.074 C 
ATOM     17  C   UNL     1       2.147  -6.015  25.594  0.00  0.00    +0.022 C 
ATOM     18  C   UNL     1       2.352  -7.257  26.456  0.00  0.00    +0.002 C 
ATOM     19  C   UNL     1       1.182  -8.224  26.304  0.00  0.00    +0.000 C 
ATOM     20  C   UNL     1       0.960  -8.618  24.847  0.00  0.00    +0.002 C 
ATOM     21  C   UNL     1       0.837  -7.407  23.926  0.00  0.00    +0.022 C 
ENDBRANCH  13  16
ENDBRANCH   7  10
ENDBRANCH   4   7
BRANCH   1  22
ATOM     22  C   UNL     1       8.401  -1.703  26.451  0.00  0.00    +0.054 C 
BRANCH  22  23
ATOM     23  C   UNL     1       7.726  -0.326  26.564  0.00  0.00    +0.109 C 
BRANCH  23  25
ATOM     24  C   UNL     1       8.038   1.605  25.037  0.00  0.00    +0.248 C 
ATOM     25  N   UNL     1       8.535   0.752  26.012  0.00  0.00    -0.311 N 
ATOM     26  H   UNL     1       9.500   0.810  26.305  0.00  0.00    +0.149 HD
ATOM     27  O   UNL     1       6.899   1.492  24.599  0.00  0.00    -0.270 OA
BRANCH  24  34
ATOM     28  C   UNL     1      10.089   2.410  23.769  0.00  0.00    +0.132 A 
ATOM     29  C   UNL     1      10.929   3.457  23.357  0.00  0.00    +0.048 A 
ATOM     30  C   UNL     1      10.626   4.780  23.674  0.00  0.00    +0.023 A 
ATOM     31  C   UNL     1       9.481   5.064  24.409  0.00  0.00    +0.042 A 
ATOM     32 CL   UNL     1       9.093   6.700  24.772  0.00  0.00    -0.084 Cl
ATOM     33  C   UNL     1       8.648   4.036  24.852  0.00  0.00    +0.036 A 
ATOM     34  C   UNL     1       8.955   2.694  24.559  0.00  0.00    +0.080 A 
BRANCH  28  36
ATOM     35  C   UNL     1      10.017   0.665  22.175  0.00  0.00    +0.277 C 
ATOM     36  O   UNL     1      10.396   1.105  23.480  0.00  0.00    -0.494 OA
ENDBRANCH  28  36
ENDBRANCH  24  34
ENDBRANCH  23  25
ENDBRANCH  22  23
ENDBRANCH   1  22
TORSDOF 8
ENDMDL
MODEL 6
REMARK VINA RESULT:      -7.4      2.593      3.342
REMARK  Name = 
REMARK  9 active torsions:
REMARK  status: ('A' for Active; 'I' for Inactive)
REMARK    1  A    between atoms: C_1  and  O_2
REMARK    2  A    between atoms: O_2  and  C_3
REMARK    3  A    between atoms: C_4  and  C_10
REMARK    4  A    between atoms: N_12  and  C_13
REMARK    5  A    between atoms: C_13  and  C_14
REMARK    6  A    between atoms: C_14  and  C_15
REMARK    7  A    between atoms: C_18  and  S_21
REMARK    8  A    between atoms: S_21  and  N_24
REMARK    9  A    between atoms: N_27  and  C_28
REMARK                            x       y       z     vdW  Elec       q    Type
REMARK                         _______ _______ _______ _____ _____    ______ ____
ROOT
ATOM      1  C   UNL     1       9.086  -1.593  24.139  0.00  0.00    -0.046 A 
ATOM      2  C   UNL     1       9.111  -2.918  24.616  0.00  0.00    +0.005 A 
ATOM      3  C   UNL     1       8.396  -3.936  23.969  0.00  0.00    +0.029 A 
ATOM      4  C   UNL     1       7.645  -3.638  22.830  0.00  0.00    +0.109 A 
ATOM      5  C   UNL     1       7.598  -2.327  22.357  0.00  0.00    +0.029 A 
ATOM      6  C   UNL     1       8.324  -1.318  22.997  0.00  0.00    +0.005 A 
ENDROOT
BRANCH   4   7
ATOM      7  S   UNL     1       6.656  -4.894  22.046  0.00  0.00    +0.076 S 
ATOM      8  O   UNL     1       7.534  -5.897  21.486  0.00  0.00    -0.150 OA
ATOM      9  O   UNL     1       5.691  -4.218  21.203  0.00  0.00    -0.150 OA
BRANCH   7  10
ATOM     10  N   UNL     1       5.756  -5.561  23.280  0.00  0.00    -0.169 N 
ATOM     11  H   UNL     1       5.967  -6.534  23.453  0.00  0.00    +0.178 HD
ATOM     12  C   UNL     1       4.829  -4.856  24.024  0.00  0.00    +0.319 C 
ATOM     13  N   UNL     1       4.234  -5.574  25.031  0.00  0.00    -0.295 N 
ATOM     14  H   UNL     1       4.639  -6.461  25.291  0.00  0.00    +0.151 HD
ATOM     15  O   UNL     1       4.549  -3.688  23.797  0.00  0.00    -0.251 OA
BRANCH  13  16
ATOM     16  C   UNL     1       3.360  -4.883  25.976  0.00  0.00    +0.074 C 
ATOM     17  C   UNL     1       3.918  -4.974  27.403  0.00  0.00    +0.022 C 
ATOM     18  C   UNL     1       3.732  -6.366  28.000  0.00  0.00    +0.002 C 
ATOM     19  C   UNL     1       2.262  -6.772  27.987  0.00  0.00    +0.000 C 
ATOM     20  C   UNL     1       1.672  -6.714  26.582  0.00  0.00    +0.002 C 
ATOM     21  C   UNL     1       1.910  -5.367  25.903  0.00  0.00    +0.022 C 
ENDBRANCH  13  16
ENDBRANCH   7  10
ENDBRANCH   4   7
BRANCH   1  22
ATOM     22  C   UNL     1       9.874  -0.529  24.885  0.00  0.00    +0.054 C 
BRANCH  22  23
ATOM     23  C   UNL     1      10.831   0.334  24.047  0.00  0.00    +0.109 C 
BRANCH  23  25
ATOM     24  C   UNL     1       9.896   2.446  23.141  0.00  0.00    +0.248 C 
ATOM     25  N   UNL     1      10.553   1.759  24.153  0.00  0.00    -0.311 N 
ATOM     26  H   UNL     1      10.924   2.251  24.953  0.00  0.00    +0.149 HD
ATOM     27  O   UNL     1       9.521   1.887  22.118  0.00  0.00    -0.270 OA
BRANCH  24  34
ATOM     28  C   UNL     1      10.705   4.824  23.541  0.00  0.00    +0.132 A 
ATOM     29  C   UNL     1      10.424   6.180  23.768  0.00  0.00    +0.048 A 
ATOM     30  C   UNL     1       9.109   6.643  23.774  0.00  0.00    +0.023 A 
ATOM     31  C   UNL     1       8.067   5.751  23.555  0.00  0.00    +0.042 A 
ATOM     32 CL   UNL     1       6.447   6.331  23.531  0.00  0.00    -0.084 Cl
ATOM     33  C   UNL     1       8.323   4.394  23.354  0.00  0.00    +0.036 A 
ATOM     34  C   UNL     1       9.644   3.909  23.370  0.00  0.00    +0.080 A 
BRANCH  28  36
ATOM     35  C   UNL     1      12.965   5.232  22.978  0.00  0.00    +0.277 C 
ATOM     36  O   UNL     1      11.996   4.359  23.558  0.00  0.00    -0.494 OA
ENDBRANCH  28  36
ENDBRANCH  24  34
ENDBRANCH  23  25
ENDBRANCH  22  23
ENDBRANCH   1  22
TORSDOF 8
ENDMDL
MODEL 7
REMARK VINA RESULT:      -7.4      1.792      2.526
REMARK  Name = 
REMARK  9 active torsions:
REMARK  status: ('A' for Active; 'I' for Inactive)
REMARK    1  A    between atoms: C_1  and  O_2
REMARK    2  A    between atoms: O_2  and  C_3
REMARK    3  A    between atoms: C_4  and  C_10
REMARK    4  A    between atoms: N_12  and  C_13
REMARK    5  A    between atoms: C_13  and  C_14
REMARK    6  A    between atoms: C_14  and  C_15
REMARK    7  A    between atoms: C_18  and  S_21
REMARK    8  A    between atoms: S_21  and  N_24
REMARK    9  A    between atoms: N_27  and  C_28
REMARK                            x       y       z     vdW  Elec       q    Type
REMARK                         _______ _______ _______ _____ _____    ______ ____
ROOT
ATOM      1  C   UNL     1       8.186  -2.754  23.479  0.00  0.00    -0.046 A 
ATOM      2  C   UNL     1       8.043  -2.133  24.734  0.00  0.00    +0.005 A 
ATOM      3  C   UNL     1       7.612  -2.855  25.857  0.00  0.00    +0.029 A 
ATOM      4  C   UNL     1       7.319  -4.215  25.734  0.00  0.00    +0.109 A 
ATOM      5  C   UNL     1       7.441  -4.839  24.493  0.00  0.00    +0.029 A 
ATOM      6  C   UNL     1       7.885  -4.119  23.379  0.00  0.00    +0.005 A 
ENDROOT
BRANCH   4   7
ATOM      7  S   UNL     1       6.683  -5.131  27.122  0.00  0.00    +0.076 S 
ATOM      8  O   UNL     1       5.990  -4.218  28.005  0.00  0.00    -0.150 OA
ATOM      9  O   UNL     1       7.764  -5.953  27.627  0.00  0.00    -0.150 OA
BRANCH   7  10
ATOM     10  N   UNL     1       5.596  -6.207  26.462  0.00  0.00    -0.169 N 
ATOM     11  H   UNL     1       5.963  -7.143  26.364  0.00  0.00    +0.178 HD
ATOM     12  C   UNL     1       4.302  -5.874  26.107  0.00  0.00    +0.319 C 
ATOM     13  N   UNL     1       3.549  -6.918  25.632  0.00  0.00    -0.295 N 
ATOM     14  H   UNL     1       3.895  -7.857  25.762  0.00  0.00    +0.151 HD
ATOM     15  O   UNL     1       3.863  -4.736  26.195  0.00  0.00    -0.251 OA
BRANCH  13  16
ATOM     16  C   UNL     1       2.125  -6.711  25.380  0.00  0.00    +0.074 C 
ATOM     17  C   UNL     1       1.330  -7.996  25.646  0.00  0.00    +0.022 C 
ATOM     18  C   UNL     1       1.538  -9.034  24.547  0.00  0.00    +0.002 C 
ATOM     19  C   UNL     1       1.167  -8.464  23.182  0.00  0.00    +0.000 C 
ATOM     20  C   UNL     1       1.949  -7.193  22.868  0.00  0.00    +0.002 C 
ATOM     21  C   UNL     1       1.847  -6.153  23.981  0.00  0.00    +0.022 C 
ENDBRANCH  13  16
ENDBRANCH   7  10
ENDBRANCH   4   7
BRANCH   1  22
ATOM     22  C   UNL     1       8.650  -1.920  22.296  0.00  0.00    +0.054 C 
BRANCH  22  23
ATOM     23  C   UNL     1      10.036  -1.266  22.415  0.00  0.00    +0.109 C 
BRANCH  23  25
ATOM     24  C   UNL     1      10.307   0.787  23.783  0.00  0.00    +0.248 C 
ATOM     25  N   UNL     1       9.972   0.179  22.581  0.00  0.00    -0.311 N 
ATOM     26  H   UNL     1       9.598   0.722  21.815  0.00  0.00    +0.149 HD
ATOM     27  O   UNL     1      10.672   0.137  24.756  0.00  0.00    -0.270 OA
BRANCH  24  34
ATOM     28  C   UNL     1       9.075   2.947  24.314  0.00  0.00    +0.132 A 
ATOM     29  C   UNL     1       9.034   4.351  24.324  0.00  0.00    +0.048 A 
ATOM     30  C   UNL     1      10.135   5.098  23.913  0.00  0.00    +0.023 A 
ATOM     31  C   UNL     1      11.286   4.446  23.484  0.00  0.00    +0.042 A 
ATOM     32 CL   UNL     1      12.655   5.372  23.007  0.00  0.00    -0.084 Cl
ATOM     33  C   UNL     1      11.338   3.053  23.440  0.00  0.00    +0.036 A 
ATOM     34  C   UNL     1      10.224   2.286  23.830  0.00  0.00    +0.080 A 
BRANCH  28  36
ATOM     35  C   UNL     1       6.861   2.282  23.818  0.00  0.00    +0.277 C 
ATOM     36  O   UNL     1       7.985   2.207  24.695  0.00  0.00    -0.494 OA
ENDBRANCH  28  36
ENDBRANCH  24  34
ENDBRANCH  23  25
ENDBRANCH  22  23
ENDBRANCH   1  22
TORSDOF 8
ENDMDL
MODEL 8
REMARK VINA RESULT:      -7.3      3.727      7.628
REMARK  Name = 
REMARK  9 active torsions:
REMARK  status: ('A' for Active; 'I' for Inactive)
REMARK    1  A    between atoms: C_1  and  O_2
REMARK    2  A    between atoms: O_2  and  C_3
REMARK    3  A    between atoms: C_4  and  C_10
REMARK    4  A    between atoms: N_12  and  C_13
REMARK    5  A    between atoms: C_13  and  C_14
REMARK    6  A    between atoms: C_14  and  C_15
REMARK    7  A    between atoms: C_18  and  S_21
REMARK    8  A    between atoms: S_21  and  N_24
REMARK    9  A    between atoms: N_27  and  C_28
REMARK                            x       y       z     vdW  Elec       q    Type
REMARK                         _______ _______ _______ _____ _____    ______ ____
ROOT
ATOM      1  C   UNL     1       3.829  -5.506  25.689  0.00  0.00    -0.046 A 
ATOM      2  C   UNL     1       3.408  -4.788  24.553  0.00  0.00    +0.005 A 
ATOM      3  C   UNL     1       4.158  -4.800  23.367  0.00  0.00    +0.029 A 
ATOM      4  C   UNL     1       5.343  -5.536  23.305  0.00  0.00    +0.109 A 
ATOM      5  C   UNL     1       5.780  -6.238  24.428  0.00  0.00    +0.029 A 
ATOM      6  C   UNL     1       5.022  -6.235  25.604  0.00  0.00    +0.005 A 
ENDROOT
BRANCH   4   7
ATOM      7  S   UNL     1       6.358  -5.492  21.843  0.00  0.00    +0.076 S 
ATOM      8  O   UNL     1       5.578  -5.961  20.719  0.00  0.00    -0.150 OA
ATOM      9  O   UNL     1       7.616  -6.131  22.173  0.00  0.00    -0.150 OA
BRANCH   7  10
ATOM     10  N   UNL     1       6.735  -3.883  21.633  0.00  0.00    -0.169 N 
ATOM     11  H   UNL     1       6.350  -3.485  20.788  0.00  0.00    +0.178 HD
ATOM     12  C   UNL     1       7.477  -3.142  22.535  0.00  0.00    +0.319 C 
ATOM     13  N   UNL     1       7.630  -1.819  22.204  0.00  0.00    -0.295 N 
ATOM     14  H   UNL     1       7.046  -1.438  21.475  0.00  0.00    +0.151 HD
ATOM     15  O   UNL     1       7.971  -3.628  23.542  0.00  0.00    -0.251 OA
BRANCH  13  16
ATOM     16  C   UNL     1       8.257  -0.915  23.164  0.00  0.00    +0.074 C 
ATOM     17  C   UNL     1       7.356   0.295  23.445  0.00  0.00    +0.022 C 
ATOM     18  C   UNL     1       7.343   1.281  22.280  0.00  0.00    +0.002 C 
ATOM     19  C   UNL     1       8.756   1.748  21.948  0.00  0.00    +0.000 C 
ATOM     20  C   UNL     1       9.683   0.576  21.642  0.00  0.00    +0.002 C 
ATOM     21  C   UNL     1       9.664  -0.485  22.739  0.00  0.00    +0.022 C 
ENDBRANCH  13  16
ENDBRANCH   7  10
ENDBRANCH   4   7
BRANCH   1  22
ATOM     22  C   UNL     1       2.980  -5.451  26.948  0.00  0.00    +0.054 C 
BRANCH  22  23
ATOM     23  C   UNL     1       2.933  -4.104  27.688  0.00  0.00    +0.109 C 
BRANCH  23  25
ATOM     24  C   UNL     1       4.313  -2.192  26.914  0.00  0.00    +0.248 C 
ATOM     25  N   UNL     1       4.193  -3.377  27.628  0.00  0.00    -0.311 N 
ATOM     26  H   UNL     1       5.001  -3.804  28.058  0.00  0.00    +0.149 HD
ATOM     27  O   UNL     1       3.368  -1.706  26.305  0.00  0.00    -0.270 OA
BRANCH  24  34
ATOM     28  C   UNL     1       6.848  -2.239  26.723  0.00  0.00    +0.132 A 
ATOM     29  C   UNL     1       8.083  -1.572  26.774  0.00  0.00    +0.048 A 
ATOM     30  C   UNL     1       8.140  -0.196  26.985  0.00  0.00    +0.023 A 
ATOM     31  C   UNL     1       6.962   0.522  27.151  0.00  0.00    +0.042 A 
ATOM     32 CL   UNL     1       7.034   2.226  27.380  0.00  0.00    -0.084 Cl
ATOM     33  C   UNL     1       5.726  -0.126  27.131  0.00  0.00    +0.036 A 
ATOM     34  C   UNL     1       5.655  -1.518  26.942  0.00  0.00    +0.080 A 
BRANCH  28  36
ATOM     35  C   UNL     1       8.009  -4.298  26.775  0.00  0.00    +0.277 C 
ATOM     36  O   UNL     1       6.788  -3.597  26.539  0.00  0.00    -0.494 OA
ENDBRANCH  28  36
ENDBRANCH  24  34
ENDBRANCH  23  25
ENDBRANCH  22  23
ENDBRANCH   1  22
TORSDOF 8
ENDMDL
MODEL 9
REMARK VINA RESULT:      -7.3      2.748      3.574
REMARK  Name = 
REMARK  9 active torsions:
REMARK  status: ('A' for Active; 'I' for Inactive)
REMARK    1  A    between atoms: C_1  and  O_2
REMARK    2  A    between atoms: O_2  and  C_3
REMARK    3  A    between atoms: C_4  and  C_10
REMARK    4  A    between atoms: N_12  and  C_13
REMARK    5  A    between atoms: C_13  and  C_14
REMARK    6  A    between atoms: C_14  and  C_15
REMARK    7  A    between atoms: C_18  and  S_21
REMARK    8  A    between atoms: S_21  and  N_24
REMARK    9  A    between atoms: N_27  and  C_28
REMARK                            x       y       z     vdW  Elec       q    Type
REMARK                         _______ _______ _______ _____ _____    ______ ____
ROOT
ATOM      1  C   UNL     1       9.089  -0.535  22.264  0.00  0.00    -0.046 A 
ATOM      2  C   UNL     1       7.810  -0.994  22.635  0.00  0.00    +0.005 A 
ATOM      3  C   UNL     1       7.652  -2.148  23.417  0.00  0.00    +0.029 A 
ATOM      4  C   UNL     1       8.778  -2.857  23.839  0.00  0.00    +0.109 A 
ATOM      5  C   UNL     1      10.049  -2.423  23.465  0.00  0.00    +0.029 A 
ATOM      6  C   UNL     1      10.203  -1.264  22.697  0.00  0.00    +0.005 A 
ENDROOT
BRANCH   4   7
ATOM      7  S   UNL     1       8.598  -4.374  24.754  0.00  0.00    +0.076 S 
ATOM      8  O   UNL     1       9.864  -4.697  25.375  0.00  0.00    -0.150 OA
ATOM      9  O   UNL     1       7.951  -5.330  23.878  0.00  0.00    -0.150 OA
BRANCH   7  10
ATOM     10  N   UNL     1       7.467  -4.033  25.929  0.00  0.00    -0.169 N 
ATOM     11  H   UNL     1       7.128  -3.083  25.900  0.00  0.00    +0.178 HD
ATOM     12  C   UNL     1       7.005  -4.961  26.845  0.00  0.00    +0.319 C 
ATOM     13  N   UNL     1       6.033  -4.496  27.694  0.00  0.00    -0.295 N 
ATOM     14  H   UNL     1       5.586  -3.618  27.475  0.00  0.00    +0.151 HD
ATOM     15  O   UNL     1       7.436  -6.103  26.904  0.00  0.00    -0.251 OA
BRANCH  13  16
ATOM     16  C   UNL     1       5.364  -5.435  28.591  0.00  0.00    +0.074 C 
ATOM     17  C   UNL     1       4.123  -6.040  27.921  0.00  0.00    +0.022 C 
ATOM     18  C   UNL     1       2.971  -5.042  27.845  0.00  0.00    +0.002 C 
ATOM     19  C   UNL     1       2.613  -4.518  29.231  0.00  0.00    +0.000 C 
ATOM     20  C   UNL     1       3.816  -3.889  29.927  0.00  0.00    +0.002 C 
ATOM     21  C   UNL     1       5.028  -4.817  29.951  0.00  0.00    +0.022 C 
ENDBRANCH  13  16
ENDBRANCH   7  10
ENDBRANCH   4   7
BRANCH   1  22
ATOM     22  C   UNL     1       9.200   0.717  21.408  0.00  0.00    +0.054 C 
BRANCH  22  23
ATOM     23  C   UNL     1      10.054   1.863  21.973  0.00  0.00    +0.109 C 
BRANCH  23  25
ATOM     24  C   UNL     1       9.335   2.502  24.261  0.00  0.00    +0.248 C 
ATOM     25  N   UNL     1       9.319   2.723  22.891  0.00  0.00    -0.311 N 
ATOM     26  H   UNL     1       8.730   3.440  22.491  0.00  0.00    +0.149 HD
ATOM     27  O   UNL     1       9.967   1.578  24.759  0.00  0.00    -0.270 OA
BRANCH  24  34
ATOM     28  C   UNL     1       8.793   4.856  25.055  0.00  0.00    +0.132 A 
ATOM     29  C   UNL     1       8.055   5.720  25.880  0.00  0.00    +0.048 A 
ATOM     30  C   UNL     1       7.054   5.225  26.713  0.00  0.00    +0.023 A 
ATOM     31  C   UNL     1       6.787   3.861  26.731  0.00  0.00    +0.042 A 
ATOM     32 CL   UNL     1       5.530   3.257  27.738  0.00  0.00    -0.084 Cl
ATOM     33  C   UNL     1       7.528   2.982  25.940  0.00  0.00    +0.036 A 
ATOM     34  C   UNL     1       8.558   3.466  25.111  0.00  0.00    +0.080 A 
BRANCH  28  36
ATOM     35  C   UNL     1       9.446   6.466  23.451  0.00  0.00    +0.277 C 
ATOM     36  O   UNL     1       9.796   5.335  24.250  0.00  0.00    -0.494 OA
ENDBRANCH  28  36
ENDBRANCH  24  34
ENDBRANCH  23  25
ENDBRANCH  22  23
ENDBRANCH   1  22
TORSDOF 8
ENDMDL
