MODEL 1
REMARK VINA RESULT:      -5.9      0.000      0.000
REMARK  Name = 
REMARK  16 active torsions:
REMARK  status: ('A' for Active; 'I' for Inactive)
REMARK    1  A    between atoms: O_1  and  C_2
REMARK    2  A    between atoms: C_2  and  C_3
REMARK    3  A    between atoms: C_3  and  N_4
REMARK    4  A    between atoms: N_4  and  C_5
REMARK    5  A    between atoms: C_5  and  C_6
REMARK    6  A    between atoms: C_6  and  N_7
REMARK    7  A    between atoms: N_7  and  C_8
REMARK    8  A    between atoms: C_13  and  O_14
REMARK    9  A    between atoms: C_17  and  O_18
REMARK   10  A    between atoms: C_23  and  N_24
REMARK   11  A    between atoms: N_24  and  C_25
REMARK   12  A    between atoms: C_25  and  C_26
REMARK   13  A    between atoms: C_26  and  N_27
REMARK   14  A    between atoms: N_27  and  C_28
REMARK   15  A    between atoms: C_28  and  C_29
REMARK   16  A    between atoms: C_29  and  O_30
REMARK                            x       y       z     vdW  Elec       q    Type
REMARK                         _______ _______ _______ _____ _____    ______ ____
ROOT
ATOM      1  C   UNL     1       7.864   3.889  25.712  0.00  0.00    +0.039 A 
ATOM      2  C   UNL     1       7.222   4.043  26.937  0.00  0.00    +0.025 A 
ATOM      3  C   UNL     1       6.822   2.945  27.678  0.00  0.00    +0.025 A 
ATOM      4  C   UNL     1       7.014   1.628  27.229  0.00  0.00    +0.039 A 
ATOM      5  C   UNL     1       7.698   1.445  25.995  0.00  0.00    +0.056 A 
ATOM      6  C   UNL     1       8.031   0.079  25.478  0.00  0.00    +0.200 C 
ATOM      7  O   UNL     1       7.972  -0.882  26.242  0.00  0.00    -0.286 OA
ATOM      8  C   UNL     1       8.526  -0.094  24.083  0.00  0.00    +0.078 A 
ATOM      9  C   UNL     1       8.941   1.032  23.365  0.00  0.00    +0.078 A 
ATOM     10  C   UNL     1       9.511   0.891  22.082  0.00  0.00    +0.129 A 
ATOM     11  C   UNL     1       9.662  -0.362  21.501  0.00  0.00    +0.050 A 
ATOM     12  C   UNL     1       9.233  -1.487  22.189  0.00  0.00    +0.050 A 
ATOM     13  C   UNL     1       8.803   2.370  23.956  0.00  0.00    +0.200 C 
ATOM     14  O   UNL     1       9.286   3.321  23.340  0.00  0.00    -0.286 OA
ATOM     15  C   UNL     1       8.666  -1.355  23.464  0.00  0.00    +0.129 A 
ATOM     16  C   UNL     1       8.096   2.567  25.244  0.00  0.00    +0.056 A 
ENDROOT
BRANCH   4  17
ATOM     17  N   UNL     1       6.412   0.583  27.935  0.00  0.00    -0.342 N 
ATOM     18  H   UNL     1       6.833   0.373  28.847  0.00  0.00    +0.146 HD
BRANCH  17  19
ATOM     19  C   UNL     1       4.994   0.278  27.757  0.00  0.00    +0.116 C 
BRANCH  19  20
ATOM     20  C   UNL     1       4.705  -1.227  27.687  0.00  0.00    +0.099 C 
BRANCH  20  21
ATOM     21  N   UNL     1       5.202  -1.814  26.435  0.00  0.00    -0.312 NA
ATOM     22  H   UNL     1       6.195  -1.602  26.357  0.00  0.00    +0.122 HD
BRANCH  21  23
ATOM     23  C   UNL     1       5.035  -3.275  26.458  0.00  0.00    +0.108 C 
BRANCH  23  24
ATOM     24  C   UNL     1       6.167  -3.923  27.260  0.00  0.00    +0.171 C 
BRANCH  24  25
ATOM     25  O   UNL     1       7.433  -3.582  26.696  0.00  0.00    -0.394 OA
ATOM     26  H   UNL     1       7.829  -2.941  27.314  0.00  0.00    +0.209 HD
ENDBRANCH  24  25
ENDBRANCH  23  24
ENDBRANCH  21  23
ENDBRANCH  20  21
ENDBRANCH  19  20
ENDBRANCH  17  19
ENDBRANCH   4  17
BRANCH  15  27
ATOM     27  O   UNL     1       8.227  -2.490  24.084  0.00  0.00    -0.506 OA
ATOM     28  H   UNL     1       8.922  -3.168  24.078  0.00  0.00    +0.292 HD
ENDBRANCH  15  27
BRANCH  10  29
ATOM     29  O   UNL     1       9.951   1.947  21.328  0.00  0.00    -0.506 OA
ATOM     30  H   UNL     1       9.479   2.755  21.635  0.00  0.00    +0.292 HD
ENDBRANCH  10  29
BRANCH   1  31
ATOM     31  N   UNL     1       8.158   5.025  24.943  0.00  0.00    -0.342 N 
ATOM     32  H   UNL     1       8.376   4.769  23.969  0.00  0.00    +0.146 HD
BRANCH  31  33
ATOM     33  C   UNL     1       9.124   6.010  25.452  0.00  0.00    +0.116 C 
BRANCH  33  34
ATOM     34  C   UNL     1       9.867   6.755  24.322  0.00  0.00    +0.099 C 
BRANCH  34  35
ATOM     35  N   UNL     1      10.601   5.827  23.456  0.00  0.00    -0.312 NA
ATOM     36  H   UNL     1      10.165   4.900  23.496  0.00  0.00    +0.122 HD
BRANCH  35  37
ATOM     37  C   UNL     1      11.994   5.684  23.898  0.00  0.00    +0.108 C 
BRANCH  37  38
ATOM     38  C   UNL     1      12.881   5.286  22.716  0.00  0.00    +0.171 C 
BRANCH  38  39
ATOM     39  O   UNL     1      14.232   5.132  23.149  0.00  0.00    -0.394 OA
ATOM     40  H   UNL     1      14.704   5.936  22.872  0.00  0.00    +0.209 HD
ENDBRANCH  38  39
ENDBRANCH  37  38
ENDBRANCH  35  37
ENDBRANCH  34  35
ENDBRANCH  33  34
ENDBRANCH  31  33
ENDBRANCH   1  31
TORSDOF 16
ENDMDL
MODEL 2
REMARK VINA RESULT:      -5.7      2.372      4.526
REMARK  Name = 
REMARK  16 active torsions:
REMARK  status: ('A' for Active; 'I' for Inactive)
REMARK    1  A    between atoms: O_1  and  C_2
REMARK    2  A    between atoms: C_2  and  C_3
REMARK    3  A    between atoms: C_3  and  N_4
REMARK    4  A    between atoms: N_4  and  C_5
REMARK    5  A    between atoms: C_5  and  C_6
REMARK    6  A    between atoms: C_6  and  N_7
REMARK    7  A    between atoms: N_7  and  C_8
REMARK    8  A    between atoms: C_13  and  O_14
REMARK    9  A    between atoms: C_17  and  O_18
REMARK   10  A    between atoms: C_23  and  N_24
REMARK   11  A    between atoms: N_24  and  C_25
REMARK   12  A    between atoms: C_25  and  C_26
REMARK   13  A    between atoms: C_26  and  N_27
REMARK   14  A    between atoms: N_27  and  C_28
REMARK   15  A    between atoms: C_28  and  C_29
REMARK   16  A    between atoms: C_29  and  O_30
REMARK                            x       y       z     vdW  Elec       q    Type
REMARK                         _______ _______ _______ _____ _____    ______ ____
ROOT
ATOM      1  C   UNL     1       8.874   0.863  22.061  0.00  0.00    +0.039 A 
ATOM      2  C   UNL     1       9.575  -0.199  21.498  0.00  0.00    +0.025 A 
ATOM      3  C   UNL     1       9.274  -1.509  21.827  0.00  0.00    +0.025 A 
ATOM      4  C   UNL     1       8.273  -1.837  22.758  0.00  0.00    +0.039 A 
ATOM      5  C   UNL     1       7.522  -0.768  23.320  0.00  0.00    +0.056 A 
ATOM      6  C   UNL     1       6.375  -1.022  24.251  0.00  0.00    +0.200 C 
ATOM      7  O   UNL     1       5.892  -2.150  24.315  0.00  0.00    -0.286 OA
ATOM      8  C   UNL     1       5.763   0.105  25.011  0.00  0.00    +0.078 A 
ATOM      9  C   UNL     1       6.071   1.418  24.643  0.00  0.00    +0.078 A 
ATOM     10  C   UNL     1       5.431   2.506  25.273  0.00  0.00    +0.129 A 
ATOM     11  C   UNL     1       4.492   2.299  26.276  0.00  0.00    +0.050 A 
ATOM     12  C   UNL     1       4.191   1.003  26.670  0.00  0.00    +0.050 A 
ATOM     13  C   UNL     1       7.054   1.671  23.581  0.00  0.00    +0.200 C 
ATOM     14  O   UNL     1       7.211   2.835  23.209  0.00  0.00    -0.286 OA
ATOM     15  C   UNL     1       4.824  -0.083  26.048  0.00  0.00    +0.129 A 
ATOM     16  C   UNL     1       7.838   0.562  22.986  0.00  0.00    +0.056 A 
ENDROOT
BRANCH   4  17
ATOM     17  N   UNL     1       8.160  -3.162  23.182  0.00  0.00    -0.342 N 
ATOM     18  H   UNL     1       7.797  -3.817  22.480  0.00  0.00    +0.146 HD
BRANCH  17  19
ATOM     19  C   UNL     1       9.049  -3.699  24.211  0.00  0.00    +0.116 C 
BRANCH  19  20
ATOM     20  C   UNL     1       8.408  -4.821  25.037  0.00  0.00    +0.099 C 
BRANCH  20  21
ATOM     21  N   UNL     1       7.396  -4.298  25.966  0.00  0.00    -0.312 NA
ATOM     22  H   UNL     1       6.966  -3.479  25.539  0.00  0.00    +0.122 HD
BRANCH  21  23
ATOM     23  C   UNL     1       6.353  -5.307  26.203  0.00  0.00    +0.108 C 
BRANCH  23  24
ATOM     24  C   UNL     1       6.234  -5.601  27.701  0.00  0.00    +0.171 C 
BRANCH  24  25
ATOM     25  O   UNL     1       7.387  -6.306  28.161  0.00  0.00    -0.394 OA
ATOM     26  H   UNL     1       7.053  -6.967  28.793  0.00  0.00    +0.209 HD
ENDBRANCH  24  25
ENDBRANCH  23  24
ENDBRANCH  21  23
ENDBRANCH  20  21
ENDBRANCH  19  20
ENDBRANCH  17  19
ENDBRANCH   4  17
BRANCH  15  27
ATOM     27  O   UNL     1       4.520  -1.336  26.496  0.00  0.00    -0.506 OA
ATOM     28  H   UNL     1       4.462  -1.956  25.752  0.00  0.00    +0.292 HD
ENDBRANCH  15  27
BRANCH  10  29
ATOM     29  O   UNL     1       5.674   3.816  24.957  0.00  0.00    -0.506 OA
ATOM     30  H   UNL     1       6.187   3.834  24.116  0.00  0.00    +0.292 HD
ENDBRANCH  10  29
BRANCH   1  31
ATOM     31  N   UNL     1       9.279   2.178  21.783  0.00  0.00    -0.342 N 
ATOM     32  H   UNL     1       9.080   2.429  20.804  0.00  0.00    +0.146 HD
BRANCH  31  33
ATOM     33  C   UNL     1      10.629   2.613  22.169  0.00  0.00    +0.116 C 
BRANCH  33  34
ATOM     34  C   UNL     1      10.638   3.437  23.476  0.00  0.00    +0.099 C 
BRANCH  34  35
ATOM     35  N   UNL     1      10.722   4.875  23.206  0.00  0.00    -0.312 NA
ATOM     36  H   UNL     1      10.681   5.039  22.194  0.00  0.00    +0.122 HD
BRANCH  35  37
ATOM     37  C   UNL     1      11.990   5.430  23.696  0.00  0.00    +0.108 C 
BRANCH  37  38
ATOM     38  C   UNL     1      13.040   5.403  22.582  0.00  0.00    +0.171 C 
BRANCH  38  39
ATOM     39  O   UNL     1      14.323   5.099  23.127  0.00  0.00    -0.394 OA
ATOM     40  H   UNL     1      14.804   5.942  23.188  0.00  0.00    +0.209 HD
ENDBRANCH  38  39
ENDBRANCH  37  38
ENDBRANCH  35  37
ENDBRANCH  34  35
ENDBRANCH  33  34
ENDBRANCH  31  33
ENDBRANCH   1  31
TORSDOF 16
ENDMDL
MODEL 3
REMARK VINA RESULT:      -5.7      2.552      8.151
REMARK  Name = 
REMARK  16 active torsions:
REMARK  status: ('A' for Active; 'I' for Inactive)
REMARK    1  A    between atoms: O_1  and  C_2
REMARK    2  A    between atoms: C_2  and  C_3
REMARK    3  A    between atoms: C_3  and  N_4
REMARK    4  A    between atoms: N_4  and  C_5
REMARK    5  A    between atoms: C_5  and  C_6
REMARK    6  A    between atoms: C_6  and  N_7
REMARK    7  A    between atoms: N_7  and  C_8
REMARK    8  A    between atoms: C_13  and  O_14
REMARK    9  A    between atoms: C_17  and  O_18
REMARK   10  A    between atoms: C_23  and  N_24
REMARK   11  A    between atoms: N_24  and  C_25
REMARK   12  A    between atoms: C_25  and  C_26
REMARK   13  A    between atoms: C_26  and  N_27
REMARK   14  A    between atoms: N_27  and  C_28
REMARK   15  A    between atoms: C_28  and  C_29
REMARK   16  A    between atoms: C_29  and  O_30
REMARK                            x       y       z     vdW  Elec       q    Type
REMARK                         _______ _______ _______ _____ _____    ______ ____
ROOT
ATOM      1  C   UNL     1       7.384  -2.212  22.580  0.00  0.00    +0.039 A 
ATOM      2  C   UNL     1       8.522  -2.054  21.796  0.00  0.00    +0.025 A 
ATOM      3  C   UNL     1       9.506  -1.143  22.139  0.00  0.00    +0.025 A 
ATOM      4  C   UNL     1       9.400  -0.315  23.269  0.00  0.00    +0.039 A 
ATOM      5  C   UNL     1       8.260  -0.482  24.103  0.00  0.00    +0.056 A 
ATOM      6  C   UNL     1       8.102   0.288  25.378  0.00  0.00    +0.200 C 
ATOM      7  O   UNL     1       9.079   0.858  25.860  0.00  0.00    -0.286 OA
ATOM      8  C   UNL     1       6.801   0.276  26.105  0.00  0.00    +0.078 A 
ATOM      9  C   UNL     1       5.834  -0.668  25.750  0.00  0.00    +0.078 A 
ATOM     10  C   UNL     1       4.634  -0.774  26.485  0.00  0.00    +0.129 A 
ATOM     11  C   UNL     1       4.383   0.061  27.567  0.00  0.00    +0.050 A 
ATOM     12  C   UNL     1       5.322   1.020  27.919  0.00  0.00    +0.050 A 
ATOM     13  C   UNL     1       6.072  -1.571  24.616  0.00  0.00    +0.200 C 
ATOM     14  O   UNL     1       5.248  -2.463  24.409  0.00  0.00    -0.286 OA
ATOM     15  C   UNL     1       6.516   1.131  27.192  0.00  0.00    +0.129 A 
ATOM     16  C   UNL     1       7.261  -1.407  23.745  0.00  0.00    +0.056 A 
ENDROOT
BRANCH   4  17
ATOM     17  N   UNL     1      10.333   0.710  23.440  0.00  0.00    -0.342 N 
ATOM     18  H   UNL     1      11.263   0.407  23.754  0.00  0.00    +0.146 HD
BRANCH  17  19
ATOM     19  C   UNL     1      10.252   1.937  22.651  0.00  0.00    +0.116 C 
BRANCH  19  20
ATOM     20  C   UNL     1       9.670   3.121  23.434  0.00  0.00    +0.099 C 
BRANCH  20  21
ATOM     21  N   UNL     1      10.450   4.347  23.217  0.00  0.00    -0.312 NA
ATOM     22  H   UNL     1      10.194   5.018  23.940  0.00  0.00    +0.122 HD
BRANCH  21  23
ATOM     23  C   UNL     1      11.888   4.063  23.330  0.00  0.00    +0.108 C 
BRANCH  23  24
ATOM     24  C   UNL     1      12.695   5.356  23.184  0.00  0.00    +0.171 C 
BRANCH  24  25
ATOM     25  O   UNL     1      14.094   5.072  23.195  0.00  0.00    -0.394 OA
ATOM     26  H   UNL     1      14.407   5.340  24.077  0.00  0.00    +0.209 HD
ENDBRANCH  24  25
ENDBRANCH  23  24
ENDBRANCH  21  23
ENDBRANCH  20  21
ENDBRANCH  19  20
ENDBRANCH  17  19
ENDBRANCH   4  17
BRANCH  15  27
ATOM     27  O   UNL     1       7.391   2.114  27.556  0.00  0.00    -0.506 OA
ATOM     28  H   UNL     1       7.484   2.143  28.522  0.00  0.00    +0.292 HD
ENDBRANCH  15  27
BRANCH  10  29
ATOM     29  O   UNL     1       3.649  -1.682  26.202  0.00  0.00    -0.506 OA
ATOM     30  H   UNL     1       2.877  -1.189  25.840  0.00  0.00    +0.292 HD
ENDBRANCH  10  29
BRANCH   1  31
ATOM     31  N   UNL     1       6.361  -3.068  22.143  0.00  0.00    -0.342 N 
ATOM     32  H   UNL     1       5.532  -2.997  22.749  0.00  0.00    +0.146 HD
BRANCH  31  33
ATOM     33  C   UNL     1       6.675  -4.474  21.851  0.00  0.00    +0.116 C 
BRANCH  33  34
ATOM     34  C   UNL     1       7.496  -5.147  22.973  0.00  0.00    +0.099 C 
BRANCH  34  35
ATOM     35  N   UNL     1       6.774  -5.138  24.249  0.00  0.00    -0.312 NA
ATOM     36  H   UNL     1       6.191  -4.296  24.308  0.00  0.00    +0.122 HD
BRANCH  35  37
ATOM     37  C   UNL     1       7.706  -5.115  25.383  0.00  0.00    +0.108 C 
BRANCH  37  38
ATOM     38  C   UNL     1       9.106  -4.724  24.903  0.00  0.00    +0.171 C 
BRANCH  38  39
ATOM     39  O   UNL     1      10.063  -5.678  25.361  0.00  0.00    -0.394 OA
ATOM     40  H   UNL     1      10.057  -5.630  26.332  0.00  0.00    +0.209 HD
ENDBRANCH  38  39
ENDBRANCH  37  38
ENDBRANCH  35  37
ENDBRANCH  34  35
ENDBRANCH  33  34
ENDBRANCH  31  33
ENDBRANCH   1  31
TORSDOF 16
ENDMDL
MODEL 4
REMARK VINA RESULT:      -5.7      2.539      4.823
REMARK  Name = 
REMARK  16 active torsions:
REMARK  status: ('A' for Active; 'I' for Inactive)
REMARK    1  A    between atoms: O_1  and  C_2
REMARK    2  A    between atoms: C_2  and  C_3
REMARK    3  A    between atoms: C_3  and  N_4
REMARK    4  A    between atoms: N_4  and  C_5
REMARK    5  A    between atoms: C_5  and  C_6
REMARK    6  A    between atoms: C_6  and  N_7
REMARK    7  A    between atoms: N_7  and  C_8
REMARK    8  A    between atoms: C_13  and  O_14
REMARK    9  A    between atoms: C_17  and  O_18
REMARK   10  A    between atoms: C_23  and  N_24
REMARK   11  A    between atoms: N_24  and  C_25
REMARK   12  A    between atoms: C_25  and  C_26
REMARK   13  A    between atoms: C_26  and  N_27
REMARK   14  A    between atoms: N_27  and  C_28
REMARK   15  A    between atoms: C_28  and  C_29
REMARK   16  A    between atoms: C_29  and  O_30
REMARK                            x       y       z     vdW  Elec       q    Type
REMARK                         _______ _______ _______ _____ _____    ______ ____
ROOT
ATOM      1  C   UNL     1       9.310   0.040  24.574  0.00  0.00    +0.039 A 
ATOM      2  C   UNL     1      10.204  -0.854  23.994  0.00  0.00    +0.025 A 
ATOM      3  C   UNL     1       9.863  -2.181  23.795  0.00  0.00    +0.025 A 
ATOM      4  C   UNL     1       8.619  -2.701  24.189  0.00  0.00    +0.039 A 
ATOM      5  C   UNL     1       7.676  -1.798  24.755  0.00  0.00    +0.056 A 
ATOM      6  C   UNL     1       6.292  -2.238  25.122  0.00  0.00    +0.200 C 
ATOM      7  O   UNL     1       5.863  -3.302  24.679  0.00  0.00    -0.286 OA
ATOM      8  C   UNL     1       5.411  -1.346  25.928  0.00  0.00    +0.078 A 
ATOM      9  C   UNL     1       5.771  -0.006  26.095  0.00  0.00    +0.078 A 
ATOM     10  C   UNL     1       4.910   0.889  26.764  0.00  0.00    +0.129 A 
ATOM     11  C   UNL     1       3.693   0.458  27.279  0.00  0.00    +0.050 A 
ATOM     12  C   UNL     1       3.329  -0.874  27.143  0.00  0.00    +0.050 A 
ATOM     13  C   UNL     1       7.047   0.482  25.555  0.00  0.00    +0.200 C 
ATOM     14  O   UNL     1       7.274   1.691  25.623  0.00  0.00    -0.286 OA
ATOM     15  C   UNL     1       4.182  -1.768  26.479  0.00  0.00    +0.129 A 
ATOM     16  C   UNL     1       8.033  -0.451  24.959  0.00  0.00    +0.056 A 
ENDROOT
BRANCH   4  17
ATOM     17  N   UNL     1       8.421  -4.083  24.135  0.00  0.00    -0.342 N 
ATOM     18  H   UNL     1       8.097  -4.443  23.230  0.00  0.00    +0.146 HD
BRANCH  17  19
ATOM     19  C   UNL     1       9.198  -4.984  24.984  0.00  0.00    +0.116 C 
BRANCH  19  20
ATOM     20  C   UNL     1       8.925  -4.790  26.480  0.00  0.00    +0.099 C 
BRANCH  20  21
ATOM     21  N   UNL     1       8.005  -5.811  26.999  0.00  0.00    -0.312 NA
ATOM     22  H   UNL     1       8.430  -6.232  27.824  0.00  0.00    +0.122 HD
BRANCH  21  23
ATOM     23  C   UNL     1       6.729  -5.195  27.392  0.00  0.00    +0.108 C 
BRANCH  23  24
ATOM     24  C   UNL     1       5.567  -6.145  27.083  0.00  0.00    +0.171 C 
BRANCH  24  25
ATOM     25  O   UNL     1       4.792  -5.643  25.994  0.00  0.00    -0.394 OA
ATOM     26  H   UNL     1       5.233  -5.969  25.189  0.00  0.00    +0.209 HD
ENDBRANCH  24  25
ENDBRANCH  23  24
ENDBRANCH  21  23
ENDBRANCH  20  21
ENDBRANCH  19  20
ENDBRANCH  17  19
ENDBRANCH   4  17
BRANCH  15  27
ATOM     27  O   UNL     1       3.794  -3.076  26.403  0.00  0.00    -0.506 OA
ATOM     28  H   UNL     1       4.255  -3.604  27.075  0.00  0.00    +0.292 HD
ENDBRANCH  15  27
BRANCH  10  29
ATOM     29  O   UNL     1       5.192   2.215  26.954  0.00  0.00    -0.506 OA
ATOM     30  H   UNL     1       6.125   2.285  27.263  0.00  0.00    +0.292 HD
ENDBRANCH  10  29
BRANCH   1  31
ATOM     31  N   UNL     1       9.731   1.349  24.855  0.00  0.00    -0.342 N 
ATOM     32  H   UNL     1       9.007   1.870  25.369  0.00  0.00    +0.146 HD
BRANCH  31  33
ATOM     33  C   UNL     1      10.300   2.169  23.776  0.00  0.00    +0.116 C 
BRANCH  33  34
ATOM     34  C   UNL     1       9.525   3.488  23.560  0.00  0.00    +0.099 C 
BRANCH  34  35
ATOM     35  N   UNL     1      10.432   4.609  23.296  0.00  0.00    -0.312 NA
ATOM     36  H   UNL     1      10.266   4.971  22.350  0.00  0.00    +0.122 HD
BRANCH  35  37
ATOM     37  C   UNL     1      11.835   4.181  23.367  0.00  0.00    +0.108 C 
BRANCH  37  38
ATOM     38  C   UNL     1      12.757   5.404  23.381  0.00  0.00    +0.171 C 
BRANCH  38  39
ATOM     39  O   UNL     1      14.105   5.000  23.147  0.00  0.00    -0.394 OA
ATOM     40  H   UNL     1      14.392   5.453  22.336  0.00  0.00    +0.209 HD
ENDBRANCH  38  39
ENDBRANCH  37  38
ENDBRANCH  35  37
ENDBRANCH  34  35
ENDBRANCH  33  34
ENDBRANCH  31  33
ENDBRANCH   1  31
TORSDOF 16
ENDMDL
MODEL 5
REMARK VINA RESULT:      -5.6      3.235      5.830
REMARK  Name = 
REMARK  16 active torsions:
REMARK  status: ('A' for Active; 'I' for Inactive)
REMARK    1  A    between atoms: O_1  and  C_2
REMARK    2  A    between atoms: C_2  and  C_3
REMARK    3  A    between atoms: C_3  and  N_4
REMARK    4  A    between atoms: N_4  and  C_5
REMARK    5  A    between atoms: C_5  and  C_6
REMARK    6  A    between atoms: C_6  and  N_7
REMARK    7  A    between atoms: N_7  and  C_8
REMARK    8  A    between atoms: C_13  and  O_14
REMARK    9  A    between atoms: C_17  and  O_18
REMARK   10  A    between atoms: C_23  and  N_24
REMARK   11  A    between atoms: N_24  and  C_25
REMARK   12  A    between atoms: C_25  and  C_26
REMARK   13  A    between atoms: C_26  and  N_27
REMARK   14  A    between atoms: N_27  and  C_28
REMARK   15  A    between atoms: C_28  and  C_29
REMARK   16  A    between atoms: C_29  and  O_30
REMARK                            x       y       z     vdW  Elec       q    Type
REMARK                         _______ _______ _______ _____ _____    ______ ____
ROOT
ATOM      1  C   UNL     1       7.071  -2.042  23.037  0.00  0.00    +0.039 A 
ATOM      2  C   UNL     1       6.860  -3.338  22.575  0.00  0.00    +0.025 A 
ATOM      3  C   UNL     1       6.100  -4.240  23.298  0.00  0.00    +0.025 A 
ATOM      4  C   UNL     1       5.527  -3.912  24.538  0.00  0.00    +0.039 A 
ATOM      5  C   UNL     1       5.701  -2.584  25.014  0.00  0.00    +0.056 A 
ATOM      6  C   UNL     1       5.051  -2.113  26.280  0.00  0.00    +0.200 C 
ATOM      7  O   UNL     1       4.138  -2.775  26.768  0.00  0.00    -0.286 OA
ATOM      8  C   UNL     1       5.440  -0.805  26.880  0.00  0.00    +0.078 A 
ATOM      9  C   UNL     1       6.191   0.095  26.118  0.00  0.00    +0.078 A 
ATOM     10  C   UNL     1       6.488   1.381  26.618  0.00  0.00    +0.129 A 
ATOM     11  C   UNL     1       6.050   1.777  27.876  0.00  0.00    +0.050 A 
ATOM     12  C   UNL     1       5.322   0.889  28.654  0.00  0.00    +0.050 A 
ATOM     13  C   UNL     1       6.663  -0.291  24.782  0.00  0.00    +0.200 C 
ATOM     14  O   UNL     1       7.221   0.570  24.099  0.00  0.00    -0.286 OA
ATOM     15  C   UNL     1       5.025  -0.391  28.164  0.00  0.00    +0.129 A 
ATOM     16  C   UNL     1       6.480  -1.673  24.276  0.00  0.00    +0.056 A 
ENDROOT
BRANCH   4  17
ATOM     17  N   UNL     1       4.941  -4.929  25.296  0.00  0.00    -0.342 N 
ATOM     18  H   UNL     1       3.980  -5.174  25.031  0.00  0.00    +0.146 HD
BRANCH  17  19
ATOM     19  C   UNL     1       5.760  -5.972  25.911  0.00  0.00    +0.116 C 
BRANCH  19  20
ATOM     20  C   UNL     1       6.508  -5.493  27.161  0.00  0.00    +0.099 C 
BRANCH  20  21
ATOM     21  N   UNL     1       7.957  -5.702  27.037  0.00  0.00    -0.312 NA
ATOM     22  H   UNL     1       8.115  -6.431  26.344  0.00  0.00    +0.122 HD
BRANCH  21  23
ATOM     23  C   UNL     1       8.611  -4.468  26.577  0.00  0.00    +0.108 C 
BRANCH  23  24
ATOM     24  C   UNL     1       9.278  -4.700  25.217  0.00  0.00    +0.171 C 
BRANCH  24  25
ATOM     25  O   UNL     1      10.386  -5.589  25.353  0.00  0.00    -0.394 OA
ATOM     26  H   UNL     1      10.036  -6.372  25.816  0.00  0.00    +0.209 HD
ENDBRANCH  24  25
ENDBRANCH  23  24
ENDBRANCH  21  23
ENDBRANCH  20  21
ENDBRANCH  19  20
ENDBRANCH  17  19
ENDBRANCH   4  17
BRANCH  15  27
ATOM     27  O   UNL     1       4.338  -1.240  28.983  0.00  0.00    -0.506 OA
ATOM     28  H   UNL     1       3.490  -1.487  28.579  0.00  0.00    +0.292 HD
ENDBRANCH  15  27
BRANCH  10  29
ATOM     29  O   UNL     1       7.208   2.316  25.924  0.00  0.00    -0.506 OA
ATOM     30  H   UNL     1       7.807   1.839  25.305  0.00  0.00    +0.292 HD
ENDBRANCH  10  29
BRANCH   1  31
ATOM     31  N   UNL     1       7.933  -1.191  22.328  0.00  0.00    -0.342 N 
ATOM     32  H   UNL     1       7.494  -0.856  21.459  0.00  0.00    +0.146 HD
BRANCH  31  33
ATOM     33  C   UNL     1       9.320  -1.612  22.084  0.00  0.00    +0.116 C 
BRANCH  33  34
ATOM     34  C   UNL     1      10.350  -0.731  22.824  0.00  0.00    +0.099 C 
BRANCH  34  35
ATOM     35  N   UNL     1      10.108  -0.719  24.271  0.00  0.00    -0.312 NA
ATOM     36  H   UNL     1       9.099  -0.671  24.451  0.00  0.00    +0.122 HD
BRANCH  35  37
ATOM     37  C   UNL     1      10.729   0.454  24.899  0.00  0.00    +0.108 C 
BRANCH  37  38
ATOM     38  C   UNL     1      10.595   1.673  23.982  0.00  0.00    +0.171 C 
BRANCH  38  39
ATOM     39  O   UNL     1       9.495   2.480  24.400  0.00  0.00    -0.394 OA
ATOM     40  H   UNL     1       9.751   3.403  24.232  0.00  0.00    +0.209 HD
ENDBRANCH  38  39
ENDBRANCH  37  38
ENDBRANCH  35  37
ENDBRANCH  34  35
ENDBRANCH  33  34
ENDBRANCH  31  33
ENDBRANCH   1  31
TORSDOF 16
ENDMDL
MODEL 6
REMARK VINA RESULT:      -5.5      2.906      5.453
REMARK  Name = 
REMARK  16 active torsions:
REMARK  status: ('A' for Active; 'I' for Inactive)
REMARK    1  A    between atoms: O_1  and  C_2
REMARK    2  A    between atoms: C_2  and  C_3
REMARK    3  A    between atoms: C_3  and  N_4
REMARK    4  A    between atoms: N_4  and  C_5
REMARK    5  A    between atoms: C_5  and  C_6
REMARK    6  A    between atoms: C_6  and  N_7
REMARK    7  A    between atoms: N_7  and  C_8
REMARK    8  A    between atoms: C_13  and  O_14
REMARK    9  A    between atoms: C_17  and  O_18
REMARK   10  A    between atoms: C_23  and  N_24
REMARK   11  A    between atoms: N_24  and  C_25
REMARK   12  A    between atoms: C_25  and  C_26
REMARK   13  A    between atoms: C_26  and  N_27
REMARK   14  A    between atoms: N_27  and  C_28
REMARK   15  A    between atoms: C_28  and  C_29
REMARK   16  A    between atoms: C_29  and  O_30
REMARK                            x       y       z     vdW  Elec       q    Type
REMARK                         _______ _______ _______ _____ _____    ______ ____
ROOT
ATOM      1  C   UNL     1       5.197  -1.195  25.893  0.00  0.00    +0.039 A 
ATOM      2  C   UNL     1       4.351  -2.284  25.707  0.00  0.00    +0.025 A 
ATOM      3  C   UNL     1       4.498  -3.127  24.619  0.00  0.00    +0.025 A 
ATOM      4  C   UNL     1       5.480  -2.918  23.637  0.00  0.00    +0.039 A 
ATOM      5  C   UNL     1       6.378  -1.830  23.824  0.00  0.00    +0.056 A 
ATOM      6  C   UNL     1       7.515  -1.582  22.880  0.00  0.00    +0.200 C 
ATOM      7  O   UNL     1       7.855  -2.471  22.103  0.00  0.00    -0.286 OA
ATOM      8  C   UNL     1       8.288  -0.309  22.957  0.00  0.00    +0.078 A 
ATOM      9  C   UNL     1       8.134   0.512  24.077  0.00  0.00    +0.078 A 
ATOM     10  C   UNL     1       8.926   1.670  24.229  0.00  0.00    +0.129 A 
ATOM     11  C   UNL     1       9.865   2.024  23.269  0.00  0.00    +0.050 A 
ATOM     12  C   UNL     1      10.015   1.232  22.139  0.00  0.00    +0.050 A 
ATOM     13  C   UNL     1       7.154   0.161  25.114  0.00  0.00    +0.200 C 
ATOM     14  O   UNL     1       7.131   0.847  26.138  0.00  0.00    -0.286 OA
ATOM     15  C   UNL     1       9.231   0.081  21.982  0.00  0.00    +0.129 A 
ATOM     16  C   UNL     1       6.219  -0.974  24.930  0.00  0.00    +0.056 A 
ENDROOT
BRANCH   4  17
ATOM     17  N   UNL     1       5.442  -3.691  22.474  0.00  0.00    -0.342 N 
ATOM     18  H   UNL     1       5.601  -3.175  21.601  0.00  0.00    +0.146 HD
BRANCH  17  19
ATOM     19  C   UNL     1       5.810  -5.105  22.502  0.00  0.00    +0.116 C 
BRANCH  19  20
ATOM     20  C   UNL     1       6.664  -5.482  23.720  0.00  0.00    +0.099 C 
BRANCH  20  21
ATOM     21  N   UNL     1       8.094  -5.256  23.468  0.00  0.00    -0.312 NA
ATOM     22  H   UNL     1       8.183  -4.463  22.835  0.00  0.00    +0.122 HD
BRANCH  21  23
ATOM     23  C   UNL     1       8.786  -4.933  24.725  0.00  0.00    +0.108 C 
BRANCH  23  24
ATOM     24  C   UNL     1       7.794  -4.946  25.892  0.00  0.00    +0.171 C 
BRANCH  24  25
ATOM     25  O   UNL     1       8.249  -5.827  26.919  0.00  0.00    -0.394 OA
ATOM     26  H   UNL     1       7.570  -6.522  26.985  0.00  0.00    +0.209 HD
ENDBRANCH  24  25
ENDBRANCH  23  24
ENDBRANCH  21  23
ENDBRANCH  20  21
ENDBRANCH  19  20
ENDBRANCH  17  19
ENDBRANCH   4  17
BRANCH  15  27
ATOM     27  O   UNL     1       9.391  -0.644  20.836  0.00  0.00    -0.506 OA
ATOM     28  H   UNL     1      10.205  -0.376  20.378  0.00  0.00    +0.292 HD
ENDBRANCH  15  27
BRANCH  10  29
ATOM     29  O   UNL     1       8.837   2.513  25.304  0.00  0.00    -0.506 OA
ATOM     30  H   UNL     1       9.749   2.673  25.640  0.00  0.00    +0.292 HD
ENDBRANCH  10  29
BRANCH   1  31
ATOM     31  N   UNL     1       4.950  -0.305  26.949  0.00  0.00    -0.342 N 
ATOM     32  H   UNL     1       5.155  -0.742  27.859  0.00  0.00    +0.146 HD
BRANCH  31  33
ATOM     33  C   UNL     1       3.674   0.423  26.994  0.00  0.00    +0.116 C 
BRANCH  33  34
ATOM     34  C   UNL     1       3.853   1.949  26.832  0.00  0.00    +0.099 C 
BRANCH  34  35
ATOM     35  N   UNL     1       5.051   2.429  27.527  0.00  0.00    -0.312 NA
ATOM     36  H   UNL     1       4.891   2.414  28.540  0.00  0.00    +0.122 HD
BRANCH  35  37
ATOM     37  C   UNL     1       5.364   3.811  27.145  0.00  0.00    +0.108 C 
BRANCH  37  38
ATOM     38  C   UNL     1       6.785   4.170  27.590  0.00  0.00    +0.171 C 
BRANCH  38  39
ATOM     39  O   UNL     1       7.484   2.991  27.987  0.00  0.00    -0.394 OA
ATOM     40  H   UNL     1       8.432   3.192  27.908  0.00  0.00    +0.209 HD
ENDBRANCH  38  39
ENDBRANCH  37  38
ENDBRANCH  35  37
ENDBRANCH  34  35
ENDBRANCH  33  34
ENDBRANCH  31  33
ENDBRANCH   1  31
TORSDOF 16
ENDMDL
MODEL 7
REMARK VINA RESULT:      -5.5      2.925      8.298
REMARK  Name = 
REMARK  16 active torsions:
REMARK  status: ('A' for Active; 'I' for Inactive)
REMARK    1  A    between atoms: O_1  and  C_2
REMARK    2  A    between atoms: C_2  and  C_3
REMARK    3  A    between atoms: C_3  and  N_4
REMARK    4  A    between atoms: N_4  and  C_5
REMARK    5  A    between atoms: C_5  and  C_6
REMARK    6  A    between atoms: C_6  and  N_7
REMARK    7  A    between atoms: N_7  and  C_8
REMARK    8  A    between atoms: C_13  and  O_14
REMARK    9  A    between atoms: C_17  and  O_18
REMARK   10  A    between atoms: C_23  and  N_24
REMARK   11  A    between atoms: N_24  and  C_25
REMARK   12  A    between atoms: C_25  and  C_26
REMARK   13  A    between atoms: C_26  and  N_27
REMARK   14  A    between atoms: N_27  and  C_28
REMARK   15  A    between atoms: C_28  and  C_29
REMARK   16  A    between atoms: C_29  and  O_30
REMARK                            x       y       z     vdW  Elec       q    Type
REMARK                         _______ _______ _______ _____ _____    ______ ____
ROOT
ATOM      1  C   UNL     1       8.814  -2.665  24.688  0.00  0.00    +0.039 A 
ATOM      2  C   UNL     1       9.819  -2.595  23.728  0.00  0.00    +0.025 A 
ATOM      3  C   UNL     1      10.272  -1.376  23.255  0.00  0.00    +0.025 A 
ATOM      4  C   UNL     1       9.731  -0.155  23.690  0.00  0.00    +0.039 A 
ATOM      5  C   UNL     1       8.726  -0.201  24.696  0.00  0.00    +0.056 A 
ATOM      6  C   UNL     1       8.154   1.050  25.290  0.00  0.00    +0.200 C 
ATOM      7  O   UNL     1       8.742   2.117  25.124  0.00  0.00    -0.286 OA
ATOM      8  C   UNL     1       6.944   0.982  26.157  0.00  0.00    +0.078 A 
ATOM      9  C   UNL     1       6.521  -0.261  26.637  0.00  0.00    +0.078 A 
ATOM     10  C   UNL     1       5.442  -0.349  27.542  0.00  0.00    +0.129 A 
ATOM     11  C   UNL     1       4.772   0.791  27.968  0.00  0.00    +0.050 A 
ATOM     12  C   UNL     1       5.163   2.031  27.484  0.00  0.00    +0.050 A 
ATOM     13  C   UNL     1       7.214  -1.485  26.212  0.00  0.00    +0.200 C 
ATOM     14  O   UNL     1       6.885  -2.545  26.746  0.00  0.00    -0.286 OA
ATOM     15  C   UNL     1       6.235   2.126  26.584  0.00  0.00    +0.129 A 
ATOM     16  C   UNL     1       8.266  -1.445  25.169  0.00  0.00    +0.056 A 
ENDROOT
BRANCH   4  17
ATOM     17  N   UNL     1      10.101   1.018  23.028  0.00  0.00    -0.342 N 
ATOM     18  H   UNL     1      11.020   1.396  23.288  0.00  0.00    +0.146 HD
BRANCH  17  19
ATOM     19  C   UNL     1       9.606   1.307  21.683  0.00  0.00    +0.116 C 
BRANCH  19  20
ATOM     20  C   UNL     1       8.221   1.965  21.679  0.00  0.00    +0.099 C 
BRANCH  20  21
ATOM     21  N   UNL     1       8.267   3.326  22.231  0.00  0.00    -0.312 NA
ATOM     22  H   UNL     1       8.825   3.904  21.605  0.00  0.00    +0.122 HD
BRANCH  21  23
ATOM     23  C   UNL     1       6.911   3.890  22.307  0.00  0.00    +0.108 C 
BRANCH  23  24
ATOM     24  C   UNL     1       6.981   5.407  22.509  0.00  0.00    +0.171 C 
BRANCH  24  25
ATOM     25  O   UNL     1       7.538   6.036  21.355  0.00  0.00    -0.394 OA
ATOM     26  H   UNL     1       6.851   6.648  21.036  0.00  0.00    +0.209 HD
ENDBRANCH  24  25
ENDBRANCH  23  24
ENDBRANCH  21  23
ENDBRANCH  20  21
ENDBRANCH  19  20
ENDBRANCH  17  19
ENDBRANCH   4  17
BRANCH  15  27
ATOM     27  O   UNL     1       6.557   3.365  26.110  0.00  0.00    -0.506 OA
ATOM     28  H   UNL     1       6.944   3.906  26.816  0.00  0.00    +0.292 HD
ENDBRANCH  15  27
BRANCH  10  29
ATOM     29  O   UNL     1       4.983  -1.530  28.061  0.00  0.00    -0.506 OA
ATOM     30  H   UNL     1       4.367  -1.317  28.800  0.00  0.00    +0.292 HD
ENDBRANCH  10  29
BRANCH   1  31
ATOM     31  N   UNL     1       8.310  -3.919  25.065  0.00  0.00    -0.342 N 
ATOM     32  H   UNL     1       8.942  -4.391  25.727  0.00  0.00    +0.146 HD
BRANCH  31  33
ATOM     33  C   UNL     1       7.850  -4.852  24.026  0.00  0.00    +0.116 C 
BRANCH  33  34
ATOM     34  C   UNL     1       6.417  -5.369  24.281  0.00  0.00    +0.099 C 
BRANCH  34  35
ATOM     35  N   UNL     1       5.898  -4.903  25.571  0.00  0.00    -0.312 NA
ATOM     36  H   UNL     1       6.598  -4.310  26.030  0.00  0.00    +0.122 HD
BRANCH  35  37
ATOM     37  C   UNL     1       5.615  -6.033  26.465  0.00  0.00    +0.108 C 
BRANCH  37  38
ATOM     38  C   UNL     1       6.381  -5.866  27.780  0.00  0.00    +0.171 C 
BRANCH  38  39
ATOM     39  O   UNL     1       7.753  -5.578  27.512  0.00  0.00    -0.394 OA
ATOM     40  H   UNL     1       8.174  -5.416  28.374  0.00  0.00    +0.209 HD
ENDBRANCH  38  39
ENDBRANCH  37  38
ENDBRANCH  35  37
ENDBRANCH  34  35
ENDBRANCH  33  34
ENDBRANCH  31  33
ENDBRANCH   1  31
TORSDOF 16
ENDMDL
MODEL 8
REMARK VINA RESULT:      -5.5      2.773      8.221
REMARK  Name = 
REMARK  16 active torsions:
REMARK  status: ('A' for Active; 'I' for Inactive)
REMARK    1  A    between atoms: O_1  and  C_2
REMARK    2  A    between atoms: C_2  and  C_3
REMARK    3  A    between atoms: C_3  and  N_4
REMARK    4  A    between atoms: N_4  and  C_5
REMARK    5  A    between atoms: C_5  and  C_6
REMARK    6  A    between atoms: C_6  and  N_7
REMARK    7  A    between atoms: N_7  and  C_8
REMARK    8  A    between atoms: C_13  and  O_14
REMARK    9  A    between atoms: C_17  and  O_18
REMARK   10  A    between atoms: C_23  and  N_24
REMARK   11  A    between atoms: N_24  and  C_25
REMARK   12  A    between atoms: C_25  and  C_26
REMARK   13  A    between atoms: C_26  and  N_27
REMARK   14  A    between atoms: N_27  and  C_28
REMARK   15  A    between atoms: C_28  and  C_29
REMARK   16  A    between atoms: C_29  and  O_30
REMARK                            x       y       z     vdW  Elec       q    Type
REMARK                         _______ _______ _______ _____ _____    ______ ____
ROOT
ATOM      1  C   UNL     1       6.092  -2.921  23.227  0.00  0.00    +0.039 A 
ATOM      2  C   UNL     1       7.118  -3.203  22.330  0.00  0.00    +0.025 A 
ATOM      3  C   UNL     1       8.290  -2.466  22.329  0.00  0.00    +0.025 A 
ATOM      4  C   UNL     1       8.497  -1.386  23.204  0.00  0.00    +0.039 A 
ATOM      5  C   UNL     1       7.475  -1.101  24.152  0.00  0.00    +0.056 A 
ATOM      6  C   UNL     1       7.643  -0.029  25.186  0.00  0.00    +0.200 C 
ATOM      7  O   UNL     1       8.765   0.419  25.409  0.00  0.00    -0.286 OA
ATOM      8  C   UNL     1       6.477   0.411  26.003  0.00  0.00    +0.078 A 
ATOM      9  C   UNL     1       5.314  -0.364  26.000  0.00  0.00    +0.078 A 
ATOM     10  C   UNL     1       4.231  -0.031  26.842  0.00  0.00    +0.129 A 
ATOM     11  C   UNL     1       4.292   1.074  27.681  0.00  0.00    +0.050 A 
ATOM     12  C   UNL     1       5.430   1.868  27.680  0.00  0.00    +0.050 A 
ATOM     13  C   UNL     1       5.221  -1.544  25.130  0.00  0.00    +0.200 C 
ATOM     14  O   UNL     1       4.227  -2.263  25.242  0.00  0.00    -0.286 OA
ATOM     15  C   UNL     1       6.509   1.543  26.846  0.00  0.00    +0.129 A 
ATOM     16  C   UNL     1       6.284  -1.851  24.143  0.00  0.00    +0.056 A 
ENDROOT
BRANCH   4  17
ATOM     17  N   UNL     1       9.616  -0.573  23.013  0.00  0.00    -0.342 N 
ATOM     18  H   UNL     1      10.436  -0.816  23.580  0.00  0.00    +0.146 HD
BRANCH  17  19
ATOM     19  C   UNL     1       9.853   0.087  21.730  0.00  0.00    +0.116 C 
BRANCH  19  20
ATOM     20  C   UNL     1       8.743   1.074  21.345  0.00  0.00    +0.099 C 
BRANCH  20  21
ATOM     21  N   UNL     1       9.065   2.442  21.773  0.00  0.00    -0.312 NA
ATOM     22  H   UNL     1       9.261   2.997  20.942  0.00  0.00    +0.122 HD
BRANCH  21  23
ATOM     23  C   UNL     1       7.919   3.038  22.475  0.00  0.00    +0.108 C 
BRANCH  23  24
ATOM     24  C   UNL     1       8.396   3.788  23.722  0.00  0.00    +0.171 C 
BRANCH  24  25
ATOM     25  O   UNL     1       9.333   2.994  24.450  0.00  0.00    -0.394 OA
ATOM     26  H   UNL     1      10.207   3.227  24.089  0.00  0.00    +0.209 HD
ENDBRANCH  24  25
ENDBRANCH  23  24
ENDBRANCH  21  23
ENDBRANCH  20  21
ENDBRANCH  19  20
ENDBRANCH  17  19
ENDBRANCH   4  17
BRANCH  15  27
ATOM     27  O   UNL     1       7.591   2.377  26.856  0.00  0.00    -0.506 OA
ATOM     28  H   UNL     1       8.408   1.868  26.980  0.00  0.00    +0.292 HD
ENDBRANCH  15  27
BRANCH  10  29
ATOM     29  O   UNL     1       3.067  -0.751  26.900  0.00  0.00    -0.506 OA
ATOM     30  H   UNL     1       3.230  -1.626  26.478  0.00  0.00    +0.292 HD
ENDBRANCH  10  29
BRANCH   1  31
ATOM     31  N   UNL     1       4.880  -3.621  23.127  0.00  0.00    -0.342 N 
ATOM     32  H   UNL     1       4.211  -3.310  23.845  0.00  0.00    +0.146 HD
BRANCH  31  33
ATOM     33  C   UNL     1       4.900  -5.087  23.031  0.00  0.00    +0.116 C 
BRANCH  33  34
ATOM     34  C   UNL     1       5.433  -5.760  24.315  0.00  0.00    +0.099 C 
BRANCH  34  35
ATOM     35  N   UNL     1       4.787  -5.219  25.516  0.00  0.00    -0.312 NA
ATOM     36  H   UNL     1       4.485  -4.255  25.338  0.00  0.00    +0.122 HD
BRANCH  35  37
ATOM     37  C   UNL     1       5.720  -5.191  26.649  0.00  0.00    +0.108 C 
BRANCH  37  38
ATOM     38  C   UNL     1       7.162  -5.120  26.140  0.00  0.00    +0.171 C 
BRANCH  38  39
ATOM     39  O   UNL     1       8.017  -5.889  26.986  0.00  0.00    -0.394 OA
ATOM     40  H   UNL     1       7.446  -6.525  27.450  0.00  0.00    +0.209 HD
ENDBRANCH  38  39
ENDBRANCH  37  38
ENDBRANCH  35  37
ENDBRANCH  34  35
ENDBRANCH  33  34
ENDBRANCH  31  33
ENDBRANCH   1  31
TORSDOF 16
ENDMDL
MODEL 9
REMARK VINA RESULT:      -5.5      3.506      8.872
REMARK  Name = 
REMARK  16 active torsions:
REMARK  status: ('A' for Active; 'I' for Inactive)
REMARK    1  A    between atoms: O_1  and  C_2
REMARK    2  A    between atoms: C_2  and  C_3
REMARK    3  A    between atoms: C_3  and  N_4
REMARK    4  A    between atoms: N_4  and  C_5
REMARK    5  A    between atoms: C_5  and  C_6
REMARK    6  A    between atoms: C_6  and  N_7
REMARK    7  A    between atoms: N_7  and  C_8
REMARK    8  A    between atoms: C_13  and  O_14
REMARK    9  A    between atoms: C_17  and  O_18
REMARK   10  A    between atoms: C_23  and  N_24
REMARK   11  A    between atoms: N_24  and  C_25
REMARK   12  A    between atoms: C_25  and  C_26
REMARK   13  A    between atoms: C_26  and  N_27
REMARK   14  A    between atoms: N_27  and  C_28
REMARK   15  A    between atoms: C_28  and  C_29
REMARK   16  A    between atoms: C_29  and  O_30
REMARK                            x       y       z     vdW  Elec       q    Type
REMARK                         _______ _______ _______ _____ _____    ______ ____
ROOT
ATOM      1  C   UNL     1       7.492  -3.909  23.375  0.00  0.00    +0.039 A 
ATOM      2  C   UNL     1       7.805  -2.908  22.461  0.00  0.00    +0.025 A 
ATOM      3  C   UNL     1       7.454  -1.590  22.696  0.00  0.00    +0.025 A 
ATOM      4  C   UNL     1       6.746  -1.196  23.844  0.00  0.00    +0.039 A 
ATOM      5  C   UNL     1       6.445  -2.198  24.808  0.00  0.00    +0.056 A 
ATOM      6  C   UNL     1       5.775  -1.861  26.105  0.00  0.00    +0.200 C 
ATOM      7  O   UNL     1       5.735  -0.689  26.473  0.00  0.00    -0.286 OA
ATOM      8  C   UNL     1       5.256  -2.946  26.985  0.00  0.00    +0.078 A 
ATOM      9  C   UNL     1       5.644  -4.266  26.735  0.00  0.00    +0.078 A 
ATOM     10  C   UNL     1       5.254  -5.303  27.609  0.00  0.00    +0.129 A 
ATOM     11  C   UNL     1       4.472  -5.040  28.727  0.00  0.00    +0.050 A 
ATOM     12  C   UNL     1       4.059  -3.739  28.977  0.00  0.00    +0.050 A 
ATOM     13  C   UNL     1       6.477  -4.577  25.567  0.00  0.00    +0.200 C 
ATOM     14  O   UNL     1       6.892  -5.731  25.447  0.00  0.00    -0.286 OA
ATOM     15  C   UNL     1       4.442  -2.704  28.112  0.00  0.00    +0.129 A 
ATOM     16  C   UNL     1       6.800  -3.537  24.560  0.00  0.00    +0.056 A 
ENDROOT
BRANCH   4  17
ATOM     17  N   UNL     1       6.259   0.111  23.917  0.00  0.00    -0.342 N 
ATOM     18  H   UNL     1       5.949   0.411  24.848  0.00  0.00    +0.146 HD
BRANCH  17  19
ATOM     19  C   UNL     1       6.739   1.142  22.999  0.00  0.00    +0.116 C 
BRANCH  19  20
ATOM     20  C   UNL     1       7.828   2.033  23.610  0.00  0.00    +0.099 C 
BRANCH  20  21
ATOM     21  N   UNL     1       9.174   1.567  23.248  0.00  0.00    -0.312 NA
ATOM     22  H   UNL     1       9.580   2.240  22.600  0.00  0.00    +0.122 HD
BRANCH  21  23
ATOM     23  C   UNL     1      10.026   1.495  24.444  0.00  0.00    +0.108 C 
BRANCH  23  24
ATOM     24  C   UNL     1      10.075   0.058  24.971  0.00  0.00    +0.171 C 
BRANCH  24  25
ATOM     25  O   UNL     1       9.261  -0.071  26.137  0.00  0.00    -0.394 OA
ATOM     26  H   UNL     1       9.882  -0.089  26.887  0.00  0.00    +0.209 HD
ENDBRANCH  24  25
ENDBRANCH  23  24
ENDBRANCH  21  23
ENDBRANCH  20  21
ENDBRANCH  19  20
ENDBRANCH  17  19
ENDBRANCH   4  17
BRANCH  15  27
ATOM     27  O   UNL     1       3.979  -1.448  28.383  0.00  0.00    -0.506 OA
ATOM     28  H   UNL     1       4.065  -1.253  29.330  0.00  0.00    +0.292 HD
ENDBRANCH  15  27
BRANCH  10  29
ATOM     29  O   UNL     1       5.606  -6.615  27.434  0.00  0.00    -0.506 OA
ATOM     30  H   UNL     1       6.509  -6.739  27.808  0.00  0.00    +0.292 HD
ENDBRANCH  10  29
BRANCH   1  31
ATOM     31  N   UNL     1       7.771  -5.246  23.052  0.00  0.00    -0.342 N 
ATOM     32  H   UNL     1       8.773  -5.456  23.170  0.00  0.00    +0.146 HD
BRANCH  31  33
ATOM     33  C   UNL     1       7.265  -5.803  21.790  0.00  0.00    +0.116 C 
BRANCH  33  34
ATOM     34  C   UNL     1       5.723  -5.795  21.712  0.00  0.00    +0.099 C 
BRANCH  34  35
ATOM     35  N   UNL     1       5.122  -6.540  22.823  0.00  0.00    -0.312 NA
ATOM     36  H   UNL     1       4.912  -7.498  22.521  0.00  0.00    +0.122 HD
BRANCH  35  37
ATOM     37  C   UNL     1       3.863  -5.921  23.253  0.00  0.00    +0.108 C 
BRANCH  37  38
ATOM     38  C   UNL     1       3.397  -6.542  24.573  0.00  0.00    +0.171 C 
BRANCH  38  39
ATOM     39  O   UNL     1       4.333  -7.528  25.005  0.00  0.00    -0.394 OA
ATOM     40  H   UNL     1       4.753  -7.177  25.809  0.00  0.00    +0.209 HD
ENDBRANCH  38  39
ENDBRANCH  37  38
ENDBRANCH  35  37
ENDBRANCH  34  35
ENDBRANCH  33  34
ENDBRANCH  31  33
ENDBRANCH   1  31
TORSDOF 16
ENDMDL
