MODEL 1
REMARK VINA RESULT:      -5.3      0.000      0.000
REMARK  Name = 
REMARK  5 active torsions:
REMARK  status: ('A' for Active; 'I' for Inactive)
REMARK    1  A    between atoms: C_1  and  C_2
REMARK    2  A    between atoms: C_9  and  C_11
REMARK    3  A    between atoms: C_11  and  O_12
REMARK    4  A    between atoms: C_13  and  O_15
REMARK    5  A    between atoms: C_16  and  O_18
REMARK                            x       y       z     vdW  Elec       q    Type
REMARK                         _______ _______ _______ _____ _____    ______ ____
ROOT
ATOM      1  C   UNL     1       6.361  -5.680  21.144  0.00  0.00    +0.073 C 
ATOM      2  C   UNL     1       6.590  -4.828  22.343  0.00  0.00    +0.069 C 
ATOM      3  S   UNL     1       5.225  -4.014  23.069  0.00  0.00    -0.077 S 
ATOM      4  C   UNL     1       6.242  -3.516  24.482  0.00  0.00    +0.209 C 
ATOM      5  O   UNL     1       6.023  -4.393  25.591  0.00  0.00    -0.355 OA
ATOM      6  C   UNL     1       7.024  -4.268  26.618  0.00  0.00    +0.176 C 
ATOM      7  C   UNL     1       8.385  -4.677  26.051  0.00  0.00    +0.176 C 
ATOM      8  C   UNL     1       8.745  -3.666  24.958  0.00  0.00    +0.173 C 
ATOM      9  C   UNL     1       7.659  -3.563  23.882  0.00  0.00    +0.176 C 
ATOM     10  N   UNL     1       7.753  -4.675  22.893  0.00  0.00    -0.272 NA
ENDROOT
BRANCH   7  11
ATOM     11  O   UNL     1       9.406  -4.688  27.053  0.00  0.00    -0.387 OA
ATOM     12  H   UNL     1      10.016  -3.942  26.896  0.00  0.00    +0.210 HD
ENDBRANCH   7  11
BRANCH   8  13
ATOM     13  O   UNL     1      10.042  -3.916  24.410  0.00  0.00    -0.387 OA
ATOM     14  H   UNL     1      10.346  -4.779  24.748  0.00  0.00    +0.210 HD
ENDBRANCH   8  13
BRANCH   6  15
ATOM     15  C   UNL     1       6.604  -5.112  27.823  0.00  0.00    +0.190 C 
BRANCH  15  16
ATOM     16  O   UNL     1       7.433  -6.278  27.888  0.00  0.00    -0.392 OA
ATOM     17  H   UNL     1       6.867  -7.035  27.647  0.00  0.00    +0.210 HD
ENDBRANCH  15  16
ENDBRANCH   6  15
TORSDOF 4
ENDMDL
MODEL 2
REMARK VINA RESULT:      -4.9      3.974      5.686
REMARK  Name = 
REMARK  5 active torsions:
REMARK  status: ('A' for Active; 'I' for Inactive)
REMARK    1  A    between atoms: C_1  and  C_2
REMARK    2  A    between atoms: C_9  and  C_11
REMARK    3  A    between atoms: C_11  and  O_12
REMARK    4  A    between atoms: C_13  and  O_15
REMARK    5  A    between atoms: C_16  and  O_18
REMARK                            x       y       z     vdW  Elec       q    Type
REMARK                         _______ _______ _______ _____ _____    ______ ____
ROOT
ATOM      1  C   UNL     1       5.764  -3.521  24.776  0.00  0.00    +0.073 C 
ATOM      2  C   UNL     1       7.075  -2.924  24.406  0.00  0.00    +0.069 C 
ATOM      3  S   UNL     1       7.831  -3.416  22.910  0.00  0.00    -0.077 S 
ATOM      4  C   UNL     1       9.082  -2.119  23.085  0.00  0.00    +0.209 C 
ATOM      5  O   UNL     1       8.745  -0.985  22.281  0.00  0.00    -0.355 OA
ATOM      6  C   UNL     1       9.498   0.194  22.619  0.00  0.00    +0.176 C 
ATOM      7  C   UNL     1       9.166   0.612  24.053  0.00  0.00    +0.176 C 
ATOM      8  C   UNL     1       9.656  -0.507  24.978  0.00  0.00    +0.173 C 
ATOM      9  C   UNL     1       9.066  -1.869  24.604  0.00  0.00    +0.176 C 
ATOM     10  N   UNL     1       7.681  -2.035  25.130  0.00  0.00    -0.272 NA
ENDROOT
BRANCH   7  11
ATOM     11  O   UNL     1       9.792   1.847  24.415  0.00  0.00    -0.387 OA
ATOM     12  H   UNL     1       9.269   2.588  24.055  0.00  0.00    +0.210 HD
ENDBRANCH   7  11
BRANCH   8  13
ATOM     13  O   UNL     1       9.460  -0.180  26.357  0.00  0.00    -0.387 OA
ATOM     14  H   UNL     1       9.921   0.662  26.531  0.00  0.00    +0.210 HD
ENDBRANCH   8  13
BRANCH   6  15
ATOM     15  C   UNL     1       9.190   1.289  21.596  0.00  0.00    +0.190 C 
BRANCH  15  16
ATOM     16  O   UNL     1      10.244   2.258  21.616  0.00  0.00    -0.392 OA
ATOM     17  H   UNL     1      10.621   2.240  22.515  0.00  0.00    +0.210 HD
ENDBRANCH  15  16
ENDBRANCH   6  15
TORSDOF 4
ENDMDL
MODEL 3
REMARK VINA RESULT:      -4.9      2.750      3.775
REMARK  Name = 
REMARK  5 active torsions:
REMARK  status: ('A' for Active; 'I' for Inactive)
REMARK    1  A    between atoms: C_1  and  C_2
REMARK    2  A    between atoms: C_9  and  C_11
REMARK    3  A    between atoms: C_11  and  O_12
REMARK    4  A    between atoms: C_13  and  O_15
REMARK    5  A    between atoms: C_16  and  O_18
REMARK                            x       y       z     vdW  Elec       q    Type
REMARK                         _______ _______ _______ _____ _____    ______ ____
ROOT
ATOM      1  C   UNL     1       7.797   1.015  22.786  0.00  0.00    +0.073 C 
ATOM      2  C   UNL     1       8.261  -0.391  22.941  0.00  0.00    +0.069 C 
ATOM      3  S   UNL     1       9.853  -0.683  23.598  0.00  0.00    -0.077 S 
ATOM      4  C   UNL     1       9.508  -2.457  23.713  0.00  0.00    +0.209 C 
ATOM      5  O   UNL     1       9.138  -2.810  25.049  0.00  0.00    -0.355 OA
ATOM      6  C   UNL     1       8.534  -4.113  25.144  0.00  0.00    +0.176 C 
ATOM      7  C   UNL     1       7.224  -4.123  24.353  0.00  0.00    +0.176 C 
ATOM      8  C   UNL     1       7.581  -3.907  22.879  0.00  0.00    +0.173 C 
ATOM      9  C   UNL     1       8.398  -2.630  22.661  0.00  0.00    +0.176 C 
ATOM     10  N   UNL     1       7.532  -1.418  22.634  0.00  0.00    -0.272 NA
ENDROOT
BRANCH   7  11
ATOM     11  O   UNL     1       6.512  -5.355  24.502  0.00  0.00    -0.387 OA
ATOM     12  H   UNL     1       6.475  -5.590  25.449  0.00  0.00    +0.210 HD
ENDBRANCH   7  11
BRANCH   8  13
ATOM     13  O   UNL     1       6.426  -3.974  22.038  0.00  0.00    -0.387 OA
ATOM     14  H   UNL     1       5.734  -4.464  22.521  0.00  0.00    +0.210 HD
ENDBRANCH   8  13
BRANCH   6  15
ATOM     15  C   UNL     1       8.338  -4.462  26.621  0.00  0.00    +0.190 C 
BRANCH  15  16
ATOM     16  O   UNL     1       8.260  -5.885  26.760  0.00  0.00    -0.392 OA
ATOM     17  H   UNL     1       8.721  -6.108  27.590  0.00  0.00    +0.210 HD
ENDBRANCH  15  16
ENDBRANCH   6  15
TORSDOF 4
ENDMDL
MODEL 4
REMARK VINA RESULT:      -4.8      5.176      6.075
REMARK  Name = 
REMARK  5 active torsions:
REMARK  status: ('A' for Active; 'I' for Inactive)
REMARK    1  A    between atoms: C_1  and  C_2
REMARK    2  A    between atoms: C_9  and  C_11
REMARK    3  A    between atoms: C_11  and  O_12
REMARK    4  A    between atoms: C_13  and  O_15
REMARK    5  A    between atoms: C_16  and  O_18
REMARK                            x       y       z     vdW  Elec       q    Type
REMARK                         _______ _______ _______ _____ _____    ______ ____
ROOT
ATOM      1  C   UNL     1       7.153   3.506  21.850  0.00  0.00    +0.073 C 
ATOM      2  C   UNL     1       8.226   2.715  22.510  0.00  0.00    +0.069 C 
ATOM      3  S   UNL     1       8.950   3.335  23.974  0.00  0.00    -0.077 S 
ATOM      4  C   UNL     1       9.831   1.774  24.230  0.00  0.00    +0.209 C 
ATOM      5  O   UNL     1       9.142   0.960  25.183  0.00  0.00    -0.355 OA
ATOM      6  C   UNL     1       9.589  -0.408  25.188  0.00  0.00    +0.176 C 
ATOM      7  C   UNL     1       9.286  -1.045  23.830  0.00  0.00    +0.176 C 
ATOM      8  C   UNL     1      10.129  -0.307  22.784  0.00  0.00    +0.173 C 
ATOM      9  C   UNL     1       9.883   1.204  22.801  0.00  0.00    +0.176 C 
ATOM     10  N   UNL     1       8.641   1.570  22.064  0.00  0.00    -0.272 NA
ENDROOT
BRANCH   7  11
ATOM     11  O   UNL     1       9.599  -2.440  23.805  0.00  0.00    -0.387 OA
ATOM     12  H   UNL     1       9.631  -2.744  22.877  0.00  0.00    +0.210 HD
ENDBRANCH   7  11
BRANCH   8  13
ATOM     13  O   UNL     1       9.977  -0.877  21.481  0.00  0.00    -0.387 OA
ATOM     14  H   UNL     1       9.034  -0.815  21.238  0.00  0.00    +0.210 HD
ENDBRANCH   8  13
BRANCH   6  15
ATOM     15  C   UNL     1       8.919  -1.144  26.350  0.00  0.00    +0.190 C 
BRANCH  15  16
ATOM     16  O   UNL     1       9.246  -0.480  27.576  0.00  0.00    -0.392 OA
ATOM     17  H   UNL     1      10.094  -0.022  27.425  0.00  0.00    +0.210 HD
ENDBRANCH  15  16
ENDBRANCH   6  15
TORSDOF 4
ENDMDL
MODEL 5
REMARK VINA RESULT:      -4.8      4.272      5.877
REMARK  Name = 
REMARK  5 active torsions:
REMARK  status: ('A' for Active; 'I' for Inactive)
REMARK    1  A    between atoms: C_1  and  C_2
REMARK    2  A    between atoms: C_9  and  C_11
REMARK    3  A    between atoms: C_11  and  O_12
REMARK    4  A    between atoms: C_13  and  O_15
REMARK    5  A    between atoms: C_16  and  O_18
REMARK                            x       y       z     vdW  Elec       q    Type
REMARK                         _______ _______ _______ _____ _____    ______ ____
ROOT
ATOM      1  C   UNL     1       8.468  -3.645  25.851  0.00  0.00    +0.073 C 
ATOM      2  C   UNL     1       8.114  -2.837  24.652  0.00  0.00    +0.069 C 
ATOM      3  S   UNL     1       6.457  -2.324  24.444  0.00  0.00    -0.077 S 
ATOM      4  C   UNL     1       6.935  -1.260  23.059  0.00  0.00    +0.209 C 
ATOM      5  O   UNL     1       7.065   0.098  23.491  0.00  0.00    -0.355 OA
ATOM      6  C   UNL     1       7.756   0.931  22.542  0.00  0.00    +0.176 C 
ATOM      7  C   UNL     1       9.191   0.427  22.376  0.00  0.00    +0.176 C 
ATOM      8  C   UNL     1       9.114  -0.974  21.762  0.00  0.00    +0.173 C 
ATOM      9  C   UNL     1       8.242  -1.923  22.588  0.00  0.00    +0.176 C 
ATOM     10  N   UNL     1       8.981  -2.473  23.760  0.00  0.00    -0.272 NA
ENDROOT
BRANCH   7  11
ATOM     11  O   UNL     1       9.970   1.282  21.534  0.00  0.00    -0.387 OA
ATOM     12  H   UNL     1      10.628   1.755  22.079  0.00  0.00    +0.210 HD
ENDBRANCH   7  11
BRANCH   8  13
ATOM     13  O   UNL     1      10.412  -1.509  21.494  0.00  0.00    -0.387 OA
ATOM     14  H   UNL     1      10.855  -0.914  20.860  0.00  0.00    +0.210 HD
ENDBRANCH   8  13
BRANCH   6  15
ATOM     15  C   UNL     1       7.688   2.384  23.017  0.00  0.00    +0.190 C 
BRANCH  15  16
ATOM     16  O   UNL     1       8.045   3.248  21.932  0.00  0.00    -0.392 OA
ATOM     17  H   UNL     1       8.937   2.977  21.644  0.00  0.00    +0.210 HD
ENDBRANCH  15  16
ENDBRANCH   6  15
TORSDOF 4
ENDMDL
MODEL 6
REMARK VINA RESULT:      -4.8      2.245      4.183
REMARK  Name = 
REMARK  5 active torsions:
REMARK  status: ('A' for Active; 'I' for Inactive)
REMARK    1  A    between atoms: C_1  and  C_2
REMARK    2  A    between atoms: C_9  and  C_11
REMARK    3  A    between atoms: C_11  and  O_12
REMARK    4  A    between atoms: C_13  and  O_15
REMARK    5  A    between atoms: C_16  and  O_18
REMARK                            x       y       z     vdW  Elec       q    Type
REMARK                         _______ _______ _______ _____ _____    ______ ____
ROOT
ATOM      1  C   UNL     1       5.798  -4.998  28.737  0.00  0.00    +0.073 C 
ATOM      2  C   UNL     1       6.334  -5.150  27.357  0.00  0.00    +0.069 C 
ATOM      3  S   UNL     1       5.209  -5.299  26.029  0.00  0.00    -0.077 S 
ATOM      4  C   UNL     1       6.560  -5.144  24.834  0.00  0.00    +0.209 C 
ATOM      5  O   UNL     1       6.632  -3.808  24.328  0.00  0.00    -0.355 OA
ATOM      6  C   UNL     1       7.866  -3.527  23.641  0.00  0.00    +0.176 C 
ATOM      7  C   UNL     1       9.031  -3.642  24.627  0.00  0.00    +0.176 C 
ATOM      8  C   UNL     1       9.100  -5.104  25.081  0.00  0.00    +0.173 C 
ATOM      9  C   UNL     1       7.773  -5.592  25.670  0.00  0.00    +0.176 C 
ATOM     10  N   UNL     1       7.602  -5.155  27.084  0.00  0.00    -0.272 NA
ENDROOT
BRANCH   7  11
ATOM     11  O   UNL     1      10.277  -3.261  24.037  0.00  0.00    -0.387 OA
ATOM     12  H   UNL     1      10.744  -4.062  23.731  0.00  0.00    +0.210 HD
ENDBRANCH   7  11
BRANCH   8  13
ATOM     13  O   UNL     1      10.209  -5.337  25.953  0.00  0.00    -0.387 OA
ATOM     14  H   UNL     1      10.271  -4.580  26.565  0.00  0.00    +0.210 HD
ENDBRANCH   8  13
BRANCH   6  15
ATOM     15  C   UNL     1       7.769  -2.143  22.996  0.00  0.00    +0.190 C 
BRANCH  15  16
ATOM     16  O   UNL     1       8.750  -2.042  21.958  0.00  0.00    -0.392 OA
ATOM     17  H   UNL     1       8.782  -2.913  21.520  0.00  0.00    +0.210 HD
ENDBRANCH  15  16
ENDBRANCH   6  15
TORSDOF 4
ENDMDL
MODEL 7
REMARK VINA RESULT:      -4.8      3.033      4.350
REMARK  Name = 
REMARK  5 active torsions:
REMARK  status: ('A' for Active; 'I' for Inactive)
REMARK    1  A    between atoms: C_1  and  C_2
REMARK    2  A    between atoms: C_9  and  C_11
REMARK    3  A    between atoms: C_11  and  O_12
REMARK    4  A    between atoms: C_13  and  O_15
REMARK    5  A    between atoms: C_16  and  O_18
REMARK                            x       y       z     vdW  Elec       q    Type
REMARK                         _______ _______ _______ _____ _____    ______ ____
ROOT
ATOM      1  C   UNL     1      10.959   0.889  24.247  0.00  0.00    +0.073 C 
ATOM      2  C   UNL     1       9.971  -0.209  24.066  0.00  0.00    +0.069 C 
ATOM      3  S   UNL     1      10.161  -1.296  22.712  0.00  0.00    -0.077 S 
ATOM      4  C   UNL     1       8.863  -2.376  23.365  0.00  0.00    +0.209 C 
ATOM      5  O   UNL     1       9.436  -3.492  24.053  0.00  0.00    -0.355 OA
ATOM      6  C   UNL     1       8.489  -4.201  24.873  0.00  0.00    +0.176 C 
ATOM      7  C   UNL     1       7.981  -3.272  25.977  0.00  0.00    +0.176 C 
ATOM      8  C   UNL     1       7.213  -2.134  25.297  0.00  0.00    +0.173 C 
ATOM      9  C   UNL     1       8.061  -1.405  24.251  0.00  0.00    +0.176 C 
ATOM     10  N   UNL     1       8.982  -0.415  24.879  0.00  0.00    -0.272 NA
ENDROOT
BRANCH   7  11
ATOM     11  O   UNL     1       7.122  -3.949  26.900  0.00  0.00    -0.387 OA
ATOM     12  H   UNL     1       6.732  -3.295  27.512  0.00  0.00    +0.210 HD
ENDBRANCH   7  11
BRANCH   8  13
ATOM     13  O   UNL     1       6.628  -1.243  26.251  0.00  0.00    -0.387 OA
ATOM     14  H   UNL     1       6.882  -1.552  27.141  0.00  0.00    +0.210 HD
ENDBRANCH   8  13
BRANCH   6  15
ATOM     15  C   UNL     1       9.156  -5.464  25.420  0.00  0.00    +0.190 C 
BRANCH  15  16
ATOM     16  O   UNL     1      10.560  -5.408  25.148  0.00  0.00    -0.392 OA
ATOM     17  H   UNL     1      11.005  -5.860  25.889  0.00  0.00    +0.210 HD
ENDBRANCH  15  16
ENDBRANCH   6  15
TORSDOF 4
ENDMDL
MODEL 8
REMARK VINA RESULT:      -4.7      4.722      6.024
REMARK  Name = 
REMARK  5 active torsions:
REMARK  status: ('A' for Active; 'I' for Inactive)
REMARK    1  A    between atoms: C_1  and  C_2
REMARK    2  A    between atoms: C_9  and  C_11
REMARK    3  A    between atoms: C_11  and  O_12
REMARK    4  A    between atoms: C_13  and  O_15
REMARK    5  A    between atoms: C_16  and  O_18
REMARK                            x       y       z     vdW  Elec       q    Type
REMARK                         _______ _______ _______ _____ _____    ______ ____
ROOT
ATOM      1  C   UNL     1       5.238   2.210  24.302  0.00  0.00    +0.073 C 
ATOM      2  C   UNL     1       6.665   1.805  24.177  0.00  0.00    +0.069 C 
ATOM      3  S   UNL     1       7.601   1.562  25.632  0.00  0.00    -0.077 S 
ATOM      4  C   UNL     1       8.966   0.867  24.667  0.00  0.00    +0.209 C 
ATOM      5  O   UNL     1       8.939  -0.563  24.716  0.00  0.00    -0.355 OA
ATOM      6  C   UNL     1       9.774  -1.180  23.719  0.00  0.00    +0.176 C 
ATOM      7  C   UNL     1       9.251  -0.819  22.327  0.00  0.00    +0.176 C 
ATOM      8  C   UNL     1       9.409   0.696  22.160  0.00  0.00    +0.173 C 
ATOM      9  C   UNL     1       8.713   1.478  23.277  0.00  0.00    +0.176 C 
ATOM     10  N   UNL     1       7.247   1.600  23.037  0.00  0.00    -0.272 NA
ENDROOT
BRANCH   7  11
ATOM     11  O   UNL     1       9.967  -1.496  21.289  0.00  0.00    -0.387 OA
ATOM     12  H   UNL     1       9.668  -2.425  21.249  0.00  0.00    +0.210 HD
ENDBRANCH   7  11
BRANCH   8  13
ATOM     13  O   UNL     1       9.017   1.130  20.855  0.00  0.00    -0.387 OA
ATOM     14  H   UNL     1       9.713   0.857  20.229  0.00  0.00    +0.210 HD
ENDBRANCH   8  13
BRANCH   6  15
ATOM     15  C   UNL     1       9.808  -2.689  23.967  0.00  0.00    +0.190 C 
BRANCH  15  16
ATOM     16  O   UNL     1       8.632  -3.282  23.406  0.00  0.00    -0.392 OA
ATOM     17  H   UNL     1       8.231  -3.824  24.111  0.00  0.00    +0.210 HD
ENDBRANCH  15  16
ENDBRANCH   6  15
TORSDOF 4
ENDMDL
MODEL 9
REMARK VINA RESULT:      -4.7      3.005      3.705
REMARK  Name = 
REMARK  5 active torsions:
REMARK  status: ('A' for Active; 'I' for Inactive)
REMARK    1  A    between atoms: C_1  and  C_2
REMARK    2  A    between atoms: C_9  and  C_11
REMARK    3  A    between atoms: C_11  and  O_12
REMARK    4  A    between atoms: C_13  and  O_15
REMARK    5  A    between atoms: C_16  and  O_18
REMARK                            x       y       z     vdW  Elec       q    Type
REMARK                         _______ _______ _______ _____ _____    ______ ____
ROOT
ATOM      1  C   UNL     1       6.795   1.236  23.460  0.00  0.00    +0.073 C 
ATOM      2  C   UNL     1       7.669   0.315  24.235  0.00  0.00    +0.069 C 
ATOM      3  S   UNL     1       7.712   0.461  25.975  0.00  0.00    -0.077 S 
ATOM      4  C   UNL     1       8.675  -1.067  26.105  0.00  0.00    +0.209 C 
ATOM      5  O   UNL     1       7.826  -2.169  26.442  0.00  0.00    -0.355 OA
ATOM      6  C   UNL     1       8.449  -3.449  26.237  0.00  0.00    +0.176 C 
ATOM      7  C   UNL     1       8.759  -3.628  24.749  0.00  0.00    +0.176 C 
ATOM      8  C   UNL     1       9.794  -2.565  24.368  0.00  0.00    +0.173 C 
ATOM      9  C   UNL     1       9.326  -1.149  24.712  0.00  0.00    +0.176 C 
ATOM     10  N   UNL     1       8.390  -0.612  23.684  0.00  0.00    -0.272 NA
ENDROOT
BRANCH   7  11
ATOM     11  O   UNL     1       9.274  -4.931  24.457  0.00  0.00    -0.387 OA
ATOM     12  H   UNL     1       8.652  -5.603  24.796  0.00  0.00    +0.210 HD
ENDBRANCH   7  11
BRANCH   8  13
ATOM     13  O   UNL     1      10.211  -2.694  23.006  0.00  0.00    -0.387 OA
ATOM     14  H   UNL     1       9.821  -1.953  22.505  0.00  0.00    +0.210 HD
ENDBRANCH   8  13
BRANCH   6  15
ATOM     15  C   UNL     1       7.530  -4.542  26.787  0.00  0.00    +0.190 C 
BRANCH  15  16
ATOM     16  O   UNL     1       8.326  -5.657  27.204  0.00  0.00    -0.392 OA
ATOM     17  H   UNL     1       8.316  -5.656  28.179  0.00  0.00    +0.210 HD
ENDBRANCH  15  16
ENDBRANCH   6  15
TORSDOF 4
ENDMDL
