MODEL 1
REMARK VINA RESULT:      -7.0      0.000      0.000
REMARK  Name = 
REMARK  12 active torsions:
REMARK  status: ('A' for Active; 'I' for Inactive)
REMARK    1  A    between atoms: C_2  and  C_3
REMARK    2  A    between atoms: C_3  and  O_4
REMARK    3  A    between atoms: N_7  and  O_8
REMARK    4  A    between atoms: O_8  and  C_9
REMARK    5  A    between atoms: N_11  and  C_12
REMARK    6  A    between atoms: C_18  and  N_20
REMARK    7  A    between atoms: C_21  and  C_23
REMARK    8  A    between atoms: C_23  and  C_24
REMARK    9  A    between atoms: C_24  and  C_25
REMARK   10  A    between atoms: C_25  and  C_26
REMARK   11  A    between atoms: C_27  and  O_29
REMARK   12  A    between atoms: C_30  and  O_32
REMARK                            x       y       z     vdW  Elec       q    Type
REMARK                         _______ _______ _______ _____ _____    ______ ____
ROOT
ATOM      1  C   UNL     1       9.389  -1.240  24.619  0.00  0.00    +0.231 C 
ATOM      2  C   UNL     1       9.477  -2.570  23.851  0.00  0.00    +0.188 C 
ATOM      3  C   UNL     1       8.819  -2.514  22.465  0.00  0.00    +0.176 C 
ATOM      4  C   UNL     1       7.417  -1.885  22.546  0.00  0.00    +0.193 C 
ATOM      5  C   UNL     1       7.472  -0.590  23.335  0.00  0.00    +0.251 C 
ATOM      6  N   UNL     1       6.898   0.474  22.876  0.00  0.00    -0.037 NA
ATOM      7  O   UNL     1       8.082  -0.617  24.539  0.00  0.00    -0.468 OA
ENDROOT
BRANCH   4   8
ATOM      8  N   UNL     1       6.437  -2.811  23.147  0.00  0.00    -0.302 N 
ATOM      9  H   UNL     1       6.128  -2.660  24.101  0.00  0.00    +0.150 HD
ATOM     10  C   UNL     1       5.622  -3.548  22.306  0.00  0.00    +0.214 C 
ATOM     11  O   UNL     1       5.663  -3.430  21.086  0.00  0.00    -0.276 OA
BRANCH  10  12
ATOM     12  C   UNL     1       4.712  -4.535  23.012  0.00  0.00    +0.096 C 
BRANCH  12  13
ATOM     13  C   UNL     1       5.541  -5.681  23.601  0.00  0.00    +0.009 C 
BRANCH  13  14
ATOM     14  C   UNL     1       5.162  -6.007  25.043  0.00  0.00    -0.003 C 
ATOM     15  C   UNL     1       6.276  -5.609  26.002  0.00  0.00    +0.004 C 
ENDBRANCH  13  14
ENDBRANCH  12  13
ENDBRANCH  10  12
ENDBRANCH   4   8
BRANCH   2  16
ATOM     16  O   UNL     1       8.850  -3.582  24.663  0.00  0.00    -0.385 OA
ATOM     17  H   UNL     1       8.585  -3.177  25.509  0.00  0.00    +0.210 HD
ENDBRANCH   2  16
BRANCH   3  18
ATOM     18  O   UNL     1       9.644  -1.867  21.495  0.00  0.00    -0.387 OA
ATOM     19  H   UNL     1      10.563  -1.790  21.830  0.00  0.00    +0.210 HD
ENDBRANCH   3  18
BRANCH   1  20
ATOM     20  C   UNL     1      10.448  -0.211  24.196  0.00  0.00    +0.203 C 
BRANCH  20  21
ATOM     21  O   UNL     1      10.717   0.722  25.241  0.00  0.00    -0.391 OA
ATOM     22  H   UNL     1      11.563   1.164  25.025  0.00  0.00    +0.210 HD
ENDBRANCH  20  21
ENDBRANCH   1  20
BRANCH   6  23
ATOM     23  O   UNL     1       7.052   1.601  23.711  0.00  0.00    -0.296 OA
BRANCH  23  24
ATOM     24  C   UNL     1       7.974   2.454  23.126  0.00  0.00    +0.430 C 
ATOM     25  N   UNL     1       8.897   2.876  24.058  0.00  0.00    -0.249 N 
ATOM     26  H   UNL     1       8.852   2.417  24.956  0.00  0.00    +0.158 HD
ATOM     27  O   UNL     1       7.956   2.766  21.941  0.00  0.00    -0.224 OA
BRANCH  25  28
ATOM     28  C   UNL     1       9.849   3.907  23.890  0.00  0.00    +0.037 A 
ATOM     29  C   UNL     1      11.110   3.566  23.385  0.00  0.00    +0.023 A 
ATOM     30  C   UNL     1      12.115   4.537  23.264  0.00  0.00    +0.002 A 
ATOM     31  C   UNL     1      11.876   5.852  23.655  0.00  0.00    +0.000 A 
ATOM     32  C   UNL     1      10.621   6.198  24.144  0.00  0.00    +0.002 A 
ATOM     33  C   UNL     1       9.615   5.235  24.256  0.00  0.00    +0.023 A 
ENDBRANCH  25  28
ENDBRANCH  23  24
ENDBRANCH   6  23
TORSDOF 11
ENDMDL
MODEL 2
REMARK VINA RESULT:      -6.9      1.889      8.084
REMARK  Name = 
REMARK  12 active torsions:
REMARK  status: ('A' for Active; 'I' for Inactive)
REMARK    1  A    between atoms: C_2  and  C_3
REMARK    2  A    between atoms: C_3  and  O_4
REMARK    3  A    between atoms: N_7  and  O_8
REMARK    4  A    between atoms: O_8  and  C_9
REMARK    5  A    between atoms: N_11  and  C_12
REMARK    6  A    between atoms: C_18  and  N_20
REMARK    7  A    between atoms: C_21  and  C_23
REMARK    8  A    between atoms: C_23  and  C_24
REMARK    9  A    between atoms: C_24  and  C_25
REMARK   10  A    between atoms: C_25  and  C_26
REMARK   11  A    between atoms: C_27  and  O_29
REMARK   12  A    between atoms: C_30  and  O_32
REMARK                            x       y       z     vdW  Elec       q    Type
REMARK                         _______ _______ _______ _____ _____    ______ ____
ROOT
ATOM      1  C   UNL     1       8.953   0.436  21.839  0.00  0.00    +0.231 C 
ATOM      2  C   UNL     1      10.247   1.153  22.264  0.00  0.00    +0.188 C 
ATOM      3  C   UNL     1      10.382   1.307  23.786  0.00  0.00    +0.176 C 
ATOM      4  C   UNL     1       9.084   1.859  24.400  0.00  0.00    +0.193 C 
ATOM      5  C   UNL     1       7.891   1.071  23.893  0.00  0.00    +0.251 C 
ATOM      6  N   UNL     1       6.996   0.643  24.721  0.00  0.00    -0.037 NA
ATOM      7  O   UNL     1       7.781   0.895  22.559  0.00  0.00    -0.468 OA
ENDROOT
BRANCH   4   8
ATOM      8  N   UNL     1       8.911   3.296  24.113  0.00  0.00    -0.302 N 
ATOM      9  H   UNL     1       8.818   3.605  23.151  0.00  0.00    +0.150 HD
ATOM     10  C   UNL     1       8.415   4.115  25.112  0.00  0.00    +0.214 C 
ATOM     11  O   UNL     1       8.083   3.682  26.210  0.00  0.00    -0.276 OA
BRANCH  10  12
ATOM     12  C   UNL     1       8.357   5.588  24.752  0.00  0.00    +0.096 C 
BRANCH  12  13
ATOM     13  C   UNL     1       9.409   5.906  23.684  0.00  0.00    +0.009 C 
BRANCH  13  14
ATOM     14  C   UNL     1      10.765   6.274  24.279  0.00  0.00    -0.003 C 
ATOM     15  C   UNL     1      11.887   5.503  23.596  0.00  0.00    +0.004 C 
ENDBRANCH  13  14
ENDBRANCH  12  13
ENDBRANCH  10  12
ENDBRANCH   4   8
BRANCH   2  16
ATOM     16  O   UNL     1      10.256   2.445  21.626  0.00  0.00    -0.385 OA
ATOM     17  H   UNL     1      11.049   2.928  21.920  0.00  0.00    +0.210 HD
ENDBRANCH   2  16
BRANCH   3  18
ATOM     18  O   UNL     1      10.809   0.102  24.421  0.00  0.00    -0.387 OA
ATOM     19  H   UNL     1      10.359  -0.671  24.018  0.00  0.00    +0.210 HD
ENDBRANCH   3  18
BRANCH   1  20
ATOM     20  C   UNL     1       9.030  -1.094  21.953  0.00  0.00    +0.203 C 
BRANCH  20  21
ATOM     21  O   UNL     1      10.368  -1.562  21.799  0.00  0.00    -0.391 OA
ATOM     22  H   UNL     1      10.712  -1.190  20.961  0.00  0.00    +0.210 HD
ENDBRANCH  20  21
ENDBRANCH   1  20
BRANCH   6  23
ATOM     23  O   UNL     1       5.959  -0.088  24.101  0.00  0.00    -0.296 OA
BRANCH  23  24
ATOM     24  C   UNL     1       6.286  -1.434  24.150  0.00  0.00    +0.430 C 
ATOM     25  N   UNL     1       6.004  -2.041  22.946  0.00  0.00    -0.249 N 
ATOM     26  H   UNL     1       5.742  -1.420  22.195  0.00  0.00    +0.158 HD
ATOM     27  O   UNL     1       6.768  -1.982  25.134  0.00  0.00    -0.224 OA
BRANCH  25  28
ATOM     28  C   UNL     1       6.000  -3.430  22.686  0.00  0.00    +0.037 A 
ATOM     29  C   UNL     1       4.832  -4.150  22.964  0.00  0.00    +0.023 A 
ATOM     30  C   UNL     1       4.796  -5.542  22.790  0.00  0.00    +0.002 A 
ATOM     31  C   UNL     1       5.925  -6.227  22.349  0.00  0.00    +0.000 A 
ATOM     32  C   UNL     1       7.083  -5.514  22.058  0.00  0.00    +0.002 A 
ATOM     33  C   UNL     1       7.119  -4.127  22.220  0.00  0.00    +0.023 A 
ENDBRANCH  25  28
ENDBRANCH  23  24
ENDBRANCH   6  23
TORSDOF 11
ENDMDL
MODEL 3
REMARK VINA RESULT:      -6.5      0.994      1.563
REMARK  Name = 
REMARK  12 active torsions:
REMARK  status: ('A' for Active; 'I' for Inactive)
REMARK    1  A    between atoms: C_2  and  C_3
REMARK    2  A    between atoms: C_3  and  O_4
REMARK    3  A    between atoms: N_7  and  O_8
REMARK    4  A    between atoms: O_8  and  C_9
REMARK    5  A    between atoms: N_11  and  C_12
REMARK    6  A    between atoms: C_18  and  N_20
REMARK    7  A    between atoms: C_21  and  C_23
REMARK    8  A    between atoms: C_23  and  C_24
REMARK    9  A    between atoms: C_24  and  C_25
REMARK   10  A    between atoms: C_25  and  C_26
REMARK   11  A    between atoms: C_27  and  O_29
REMARK   12  A    between atoms: C_30  and  O_32
REMARK                            x       y       z     vdW  Elec       q    Type
REMARK                         _______ _______ _______ _____ _____    ______ ____
ROOT
ATOM      1  C   UNL     1       9.790  -1.154  24.485  0.00  0.00    +0.231 C 
ATOM      2  C   UNL     1       9.950  -2.269  23.437  0.00  0.00    +0.188 C 
ATOM      3  C   UNL     1       8.991  -2.123  22.245  0.00  0.00    +0.176 C 
ATOM      4  C   UNL     1       7.553  -1.864  22.726  0.00  0.00    +0.193 C 
ATOM      5  C   UNL     1       7.540  -0.753  23.759  0.00  0.00    +0.251 C 
ATOM      6  N   UNL     1       6.684   0.211  23.665  0.00  0.00    -0.037 NA
ATOM      7  O   UNL     1       8.405  -0.850  24.791  0.00  0.00    -0.468 OA
ENDROOT
BRANCH   4   8
ATOM      8  N   UNL     1       6.932  -3.085  23.277  0.00  0.00    -0.302 N 
ATOM      9  H   UNL     1       6.889  -3.212  24.282  0.00  0.00    +0.150 HD
ATOM     10  C   UNL     1       6.030  -3.780  22.492  0.00  0.00    +0.214 C 
ATOM     11  O   UNL     1       5.703  -3.397  21.374  0.00  0.00    -0.276 OA
BRANCH  10  12
ATOM     12  C   UNL     1       5.515  -5.067  23.109  0.00  0.00    +0.096 C 
BRANCH  12  13
ATOM     13  C   UNL     1       6.135  -5.266  24.495  0.00  0.00    +0.009 C 
BRANCH  13  14
ATOM     14  C   UNL     1       5.297  -6.169  25.396  0.00  0.00    -0.003 C 
ATOM     15  C   UNL     1       4.225  -6.895  24.594  0.00  0.00    +0.004 C 
ENDBRANCH  13  14
ENDBRANCH  12  13
ENDBRANCH  10  12
ENDBRANCH   4   8
BRANCH   2  16
ATOM     16  O   UNL     1       9.731  -3.527  24.105  0.00  0.00    -0.385 OA
ATOM     17  H   UNL     1      10.570  -3.808  24.513  0.00  0.00    +0.210 HD
ENDBRANCH   2  16
BRANCH   3  18
ATOM     18  O   UNL     1       9.431  -1.140  21.308  0.00  0.00    -0.387 OA
ATOM     19  H   UNL     1       9.717  -0.328  21.778  0.00  0.00    +0.210 HD
ENDBRANCH   3  18
BRANCH   1  20
ATOM     20  C   UNL     1      10.507   0.152  24.111  0.00  0.00    +0.203 C 
BRANCH  20  21
ATOM     21  O   UNL     1      10.431   1.108  25.166  0.00  0.00    -0.391 OA
ATOM     22  H   UNL     1      11.036   0.808  25.875  0.00  0.00    +0.210 HD
ENDBRANCH  20  21
ENDBRANCH   1  20
BRANCH   6  23
ATOM     23  O   UNL     1       6.810   1.177  24.687  0.00  0.00    -0.296 OA
BRANCH  23  24
ATOM     24  C   UNL     1       7.278   2.352  24.121  0.00  0.00    +0.430 C 
ATOM     25  N   UNL     1       8.218   2.938  24.940  0.00  0.00    -0.249 N 
ATOM     26  H   UNL     1       8.517   2.383  25.729  0.00  0.00    +0.158 HD
ATOM     27  O   UNL     1       6.900   2.783  23.038  0.00  0.00    -0.224 OA
BRANCH  25  28
ATOM     28  C   UNL     1       8.755   4.238  24.806  0.00  0.00    +0.037 A 
ATOM     29  C   UNL     1       8.219   5.259  25.600  0.00  0.00    +0.023 A 
ATOM     30  C   UNL     1       8.666   6.581  25.458  0.00  0.00    +0.002 A 
ATOM     31  C   UNL     1       9.643   6.897  24.517  0.00  0.00    +0.000 A 
ATOM     32  C   UNL     1      10.189   5.885  23.736  0.00  0.00    +0.002 A 
ATOM     33  C   UNL     1       9.752   4.565  23.883  0.00  0.00    +0.023 A 
ENDBRANCH  25  28
ENDBRANCH  23  24
ENDBRANCH   6  23
TORSDOF 11
ENDMDL
MODEL 4
REMARK VINA RESULT:      -6.3      1.945      8.248
REMARK  Name = 
REMARK  12 active torsions:
REMARK  status: ('A' for Active; 'I' for Inactive)
REMARK    1  A    between atoms: C_2  and  C_3
REMARK    2  A    between atoms: C_3  and  O_4
REMARK    3  A    between atoms: N_7  and  O_8
REMARK    4  A    between atoms: O_8  and  C_9
REMARK    5  A    between atoms: N_11  and  C_12
REMARK    6  A    between atoms: C_18  and  N_20
REMARK    7  A    between atoms: C_21  and  C_23
REMARK    8  A    between atoms: C_23  and  C_24
REMARK    9  A    between atoms: C_24  and  C_25
REMARK   10  A    between atoms: C_25  and  C_26
REMARK   11  A    between atoms: C_27  and  O_29
REMARK   12  A    between atoms: C_30  and  O_32
REMARK                            x       y       z     vdW  Elec       q    Type
REMARK                         _______ _______ _______ _____ _____    ______ ____
ROOT
ATOM      1  C   UNL     1       9.681  -0.008  22.090  0.00  0.00    +0.231 C 
ATOM      2  C   UNL     1      10.334   1.228  22.732  0.00  0.00    +0.188 C 
ATOM      3  C   UNL     1       9.726   1.597  24.093  0.00  0.00    +0.176 C 
ATOM      4  C   UNL     1       8.189   1.618  24.021  0.00  0.00    +0.193 C 
ATOM      5  C   UNL     1       7.680   0.350  23.361  0.00  0.00    +0.251 C 
ATOM      6  N   UNL     1       6.712  -0.317  23.897  0.00  0.00    -0.037 NA
ATOM      7  O   UNL     1       8.234  -0.006  22.182  0.00  0.00    -0.468 OA
ENDROOT
BRANCH   4   8
ATOM      8  N   UNL     1       7.692   2.807  23.302  0.00  0.00    -0.302 N 
ATOM      9  H   UNL     1       7.979   2.965  22.342  0.00  0.00    +0.150 HD
ATOM     10  C   UNL     1       6.524   3.405  23.740  0.00  0.00    +0.214 C 
ATOM     11  O   UNL     1       5.872   2.959  24.679  0.00  0.00    -0.276 OA
BRANCH  10  12
ATOM     12  C   UNL     1       6.142   4.670  22.995  0.00  0.00    +0.096 C 
BRANCH  12  13
ATOM     13  C   UNL     1       7.312   5.134  22.122  0.00  0.00    +0.009 C 
BRANCH  13  14
ATOM     14  C   UNL     1       7.828   6.517  22.509  0.00  0.00    -0.003 C 
ATOM     15  C   UNL     1       9.088   6.411  23.358  0.00  0.00    +0.004 C 
ENDBRANCH  13  14
ENDBRANCH  12  13
ENDBRANCH  10  12
ENDBRANCH   4   8
BRANCH   2  16
ATOM     16  O   UNL     1      10.191   2.324  21.806  0.00  0.00    -0.385 OA
ATOM     17  H   UNL     1      10.715   3.076  22.137  0.00  0.00    +0.210 HD
ENDBRANCH   2  16
BRANCH   3  18
ATOM     18  O   UNL     1      10.204   0.762  25.148  0.00  0.00    -0.387 OA
ATOM     19  H   UNL     1       9.462   0.494  25.732  0.00  0.00    +0.210 HD
ENDBRANCH   3  18
BRANCH   1  20
ATOM     20  C   UNL     1      10.205  -1.341  22.646  0.00  0.00    +0.203 C 
BRANCH  20  21
ATOM     21  O   UNL     1       9.141  -2.262  22.880  0.00  0.00    -0.391 OA
ATOM     22  H   UNL     1       9.494  -2.974  23.452  0.00  0.00    +0.210 HD
ENDBRANCH  20  21
ENDBRANCH   1  20
BRANCH   6  23
ATOM     23  O   UNL     1       6.364  -1.481  23.177  0.00  0.00    -0.296 OA
BRANCH  23  24
ATOM     24  C   UNL     1       5.718  -2.351  24.041  0.00  0.00    +0.430 C 
ATOM     25  N   UNL     1       6.267  -3.611  23.955  0.00  0.00    -0.249 N 
ATOM     26  H   UNL     1       7.109  -3.683  23.403  0.00  0.00    +0.158 HD
ATOM     27  O   UNL     1       4.796  -2.018  24.777  0.00  0.00    -0.224 OA
BRANCH  25  28
ATOM     28  C   UNL     1       5.741  -4.797  24.515  0.00  0.00    +0.037 A 
ATOM     29  C   UNL     1       4.919  -5.598  23.713  0.00  0.00    +0.023 A 
ATOM     30  C   UNL     1       4.314  -6.749  24.240  0.00  0.00    +0.002 A 
ATOM     31  C   UNL     1       4.516  -7.105  25.572  0.00  0.00    +0.000 A 
ATOM     32  C   UNL     1       5.343  -6.320  26.367  0.00  0.00    +0.002 A 
ATOM     33  C   UNL     1       5.955  -5.179  25.843  0.00  0.00    +0.023 A 
ENDBRANCH  25  28
ENDBRANCH  23  24
ENDBRANCH   6  23
TORSDOF 11
ENDMDL
MODEL 5
REMARK VINA RESULT:      -6.3      2.206      7.684
REMARK  Name = 
REMARK  12 active torsions:
REMARK  status: ('A' for Active; 'I' for Inactive)
REMARK    1  A    between atoms: C_2  and  C_3
REMARK    2  A    between atoms: C_3  and  O_4
REMARK    3  A    between atoms: N_7  and  O_8
REMARK    4  A    between atoms: O_8  and  C_9
REMARK    5  A    between atoms: N_11  and  C_12
REMARK    6  A    between atoms: C_18  and  N_20
REMARK    7  A    between atoms: C_21  and  C_23
REMARK    8  A    between atoms: C_23  and  C_24
REMARK    9  A    between atoms: C_24  and  C_25
REMARK   10  A    between atoms: C_25  and  C_26
REMARK   11  A    between atoms: C_27  and  O_29
REMARK   12  A    between atoms: C_30  and  O_32
REMARK                            x       y       z     vdW  Elec       q    Type
REMARK                         _______ _______ _______ _____ _____    ______ ____
ROOT
ATOM      1  C   UNL     1       8.855   0.399  21.826  0.00  0.00    +0.231 C 
ATOM      2  C   UNL     1      10.142   1.135  22.237  0.00  0.00    +0.188 C 
ATOM      3  C   UNL     1      10.306   1.264  23.759  0.00  0.00    +0.176 C 
ATOM      4  C   UNL     1       9.010   1.777  24.410  0.00  0.00    +0.193 C 
ATOM      5  C   UNL     1       7.823   0.973  23.913  0.00  0.00    +0.251 C 
ATOM      6  N   UNL     1       6.954   0.512  24.751  0.00  0.00    -0.037 NA
ATOM      7  O   UNL     1       7.688   0.820  22.578  0.00  0.00    -0.468 OA
ENDROOT
BRANCH   4   8
ATOM      8  N   UNL     1       8.800   3.215  24.154  0.00  0.00    -0.302 N 
ATOM      9  H   UNL     1       8.742   3.548  23.197  0.00  0.00    +0.150 HD
ATOM     10  C   UNL     1       8.231   3.989  25.149  0.00  0.00    +0.214 C 
ATOM     11  O   UNL     1       7.863   3.513  26.218  0.00  0.00    -0.276 OA
BRANCH  10  12
ATOM     12  C   UNL     1       8.139   5.468  24.826  0.00  0.00    +0.096 C 
BRANCH  12  13
ATOM     13  C   UNL     1       9.497   6.138  25.056  0.00  0.00    +0.009 C 
BRANCH  13  14
ATOM     14  C   UNL     1      10.267   6.380  23.761  0.00  0.00    -0.003 C 
ATOM     15  C   UNL     1      11.513   5.507  23.696  0.00  0.00    +0.004 C 
ENDBRANCH  13  14
ENDBRANCH  12  13
ENDBRANCH  10  12
ENDBRANCH   4   8
BRANCH   2  16
ATOM     16  O   UNL     1      10.110   2.439  21.624  0.00  0.00    -0.385 OA
ATOM     17  H   UNL     1       9.475   2.416  20.885  0.00  0.00    +0.210 HD
ENDBRANCH   2  16
BRANCH   3  18
ATOM     18  O   UNL     1      10.771   0.056  24.362  0.00  0.00    -0.387 OA
ATOM     19  H   UNL     1      10.492   0.018  25.302  0.00  0.00    +0.210 HD
ENDBRANCH   3  18
BRANCH   1  20
ATOM     20  C   UNL     1       8.965  -1.131  21.910  0.00  0.00    +0.203 C 
BRANCH  20  21
ATOM     21  O   UNL     1      10.308  -1.569  21.710  0.00  0.00    -0.391 OA
ATOM     22  H   UNL     1      10.658  -1.838  22.583  0.00  0.00    +0.210 HD
ENDBRANCH  20  21
ENDBRANCH   1  20
BRANCH   6  23
ATOM     23  O   UNL     1       5.920  -0.230  24.139  0.00  0.00    -0.296 OA
BRANCH  23  24
ATOM     24  C   UNL     1       6.048  -1.555  24.523  0.00  0.00    +0.430 C 
ATOM     25  N   UNL     1       7.364  -1.847  24.808  0.00  0.00    -0.249 N 
ATOM     26  H   UNL     1       7.992  -1.058  24.828  0.00  0.00    +0.158 HD
ATOM     27  O   UNL     1       5.106  -2.335  24.601  0.00  0.00    -0.224 OA
BRANCH  25  28
ATOM     28  C   UNL     1       7.912  -3.132  25.021  0.00  0.00    +0.037 A 
ATOM     29  C   UNL     1       8.463  -3.415  26.277  0.00  0.00    +0.023 A 
ATOM     30  C   UNL     1       9.082  -4.650  26.521  0.00  0.00    +0.002 A 
ATOM     31  C   UNL     1       9.167  -5.608  25.513  0.00  0.00    +0.000 A 
ATOM     32  C   UNL     1       8.608  -5.337  24.269  0.00  0.00    +0.002 A 
ATOM     33  C   UNL     1       7.982  -4.112  24.026  0.00  0.00    +0.023 A 
ENDBRANCH  25  28
ENDBRANCH  23  24
ENDBRANCH   6  23
TORSDOF 11
ENDMDL
MODEL 6
REMARK VINA RESULT:      -6.2      2.709      7.010
REMARK  Name = 
REMARK  12 active torsions:
REMARK  status: ('A' for Active; 'I' for Inactive)
REMARK    1  A    between atoms: C_2  and  C_3
REMARK    2  A    between atoms: C_3  and  O_4
REMARK    3  A    between atoms: N_7  and  O_8
REMARK    4  A    between atoms: O_8  and  C_9
REMARK    5  A    between atoms: N_11  and  C_12
REMARK    6  A    between atoms: C_18  and  N_20
REMARK    7  A    between atoms: C_21  and  C_23
REMARK    8  A    between atoms: C_23  and  C_24
REMARK    9  A    between atoms: C_24  and  C_25
REMARK   10  A    between atoms: C_25  and  C_26
REMARK   11  A    between atoms: C_27  and  O_29
REMARK   12  A    between atoms: C_30  and  O_32
REMARK                            x       y       z     vdW  Elec       q    Type
REMARK                         _______ _______ _______ _____ _____    ______ ____
ROOT
ATOM      1  C   UNL     1       8.196   0.564  22.169  0.00  0.00    +0.231 C 
ATOM      2  C   UNL     1       7.585   1.797  22.859  0.00  0.00    +0.188 C 
ATOM      3  C   UNL     1       7.980   1.921  24.338  0.00  0.00    +0.176 C 
ATOM      4  C   UNL     1       7.786   0.583  25.073  0.00  0.00    +0.193 C 
ATOM      5  C   UNL     1       8.425  -0.544  24.283  0.00  0.00    +0.251 C 
ATOM      6  N   UNL     1       9.188  -1.401  24.877  0.00  0.00    -0.037 NA
ATOM      7  O   UNL     1       8.116  -0.641  22.973  0.00  0.00    -0.468 OA
ENDROOT
BRANCH   4   8
ATOM      8  N   UNL     1       6.359   0.295  25.317  0.00  0.00    -0.302 N 
ATOM      9  H   UNL     1       5.742   0.132  24.528  0.00  0.00    +0.150 HD
ATOM     10  C   UNL     1       5.987  -0.204  26.552  0.00  0.00    +0.214 C 
ATOM     11  O   UNL     1       6.804  -0.450  27.433  0.00  0.00    -0.276 OA
BRANCH  10  12
ATOM     12  C   UNL     1       4.491  -0.384  26.737  0.00  0.00    +0.096 C 
BRANCH  12  13
ATOM     13  C   UNL     1       4.154  -1.873  26.853  0.00  0.00    +0.009 C 
BRANCH  13  14
ATOM     14  C   UNL     1       4.098  -2.576  25.500  0.00  0.00    -0.003 C 
ATOM     15  C   UNL     1       2.867  -3.468  25.400  0.00  0.00    +0.004 C 
ENDBRANCH  13  14
ENDBRANCH  12  13
ENDBRANCH  10  12
ENDBRANCH   4   8
BRANCH   2  16
ATOM     16  O   UNL     1       6.153   1.702  22.729  0.00  0.00    -0.385 OA
ATOM     17  H   UNL     1       5.780   1.474  23.600  0.00  0.00    +0.210 HD
ENDBRANCH   2  16
BRANCH   3  18
ATOM     18  O   UNL     1       9.298   2.443  24.509  0.00  0.00    -0.387 OA
ATOM     19  H   UNL     1       9.962   1.806  24.168  0.00  0.00    +0.210 HD
ENDBRANCH   3  18
BRANCH   1  20
ATOM     20  C   UNL     1       9.654   0.763  21.728  0.00  0.00    +0.203 C 
BRANCH  20  21
ATOM     21  O   UNL     1       9.962   2.144  21.553  0.00  0.00    -0.391 OA
ATOM     22  H   UNL     1      10.702   2.355  22.158  0.00  0.00    +0.210 HD
ENDBRANCH  20  21
ENDBRANCH   1  20
BRANCH   6  23
ATOM     23  O   UNL     1       9.722  -2.377  24.007  0.00  0.00    -0.296 OA
BRANCH  23  24
ATOM     24  C   UNL     1       9.188  -3.608  24.353  0.00  0.00    +0.430 C 
ATOM     25  N   UNL     1       7.848  -3.655  24.039  0.00  0.00    -0.249 N 
ATOM     26  H   UNL     1       7.497  -2.875  23.503  0.00  0.00    +0.158 HD
ATOM     27  O   UNL     1       9.840  -4.515  24.856  0.00  0.00    -0.224 OA
BRANCH  25  28
ATOM     28  C   UNL     1       6.927  -4.652  24.434  0.00  0.00    +0.037 A 
ATOM     29  C   UNL     1       6.082  -5.194  23.458  0.00  0.00    +0.023 A 
ATOM     30  C   UNL     1       5.102  -6.136  23.808  0.00  0.00    +0.002 A 
ATOM     31  C   UNL     1       4.950  -6.536  25.133  0.00  0.00    +0.000 A 
ATOM     32  C   UNL     1       5.796  -6.010  26.103  0.00  0.00    +0.002 A 
ATOM     33  C   UNL     1       6.779  -5.080  25.756  0.00  0.00    +0.023 A 
ENDBRANCH  25  28
ENDBRANCH  23  24
ENDBRANCH   6  23
TORSDOF 11
ENDMDL
MODEL 7
REMARK VINA RESULT:      -6.2      2.794      5.356
REMARK  Name = 
REMARK  12 active torsions:
REMARK  status: ('A' for Active; 'I' for Inactive)
REMARK    1  A    between atoms: C_2  and  C_3
REMARK    2  A    between atoms: C_3  and  O_4
REMARK    3  A    between atoms: N_7  and  O_8
REMARK    4  A    between atoms: O_8  and  C_9
REMARK    5  A    between atoms: N_11  and  C_12
REMARK    6  A    between atoms: C_18  and  N_20
REMARK    7  A    between atoms: C_21  and  C_23
REMARK    8  A    between atoms: C_23  and  C_24
REMARK    9  A    between atoms: C_24  and  C_25
REMARK   10  A    between atoms: C_25  and  C_26
REMARK   11  A    between atoms: C_27  and  O_29
REMARK   12  A    between atoms: C_30  and  O_32
REMARK                            x       y       z     vdW  Elec       q    Type
REMARK                         _______ _______ _______ _____ _____    ______ ____
ROOT
ATOM      1  C   UNL     1       6.689  -5.739  22.639  0.00  0.00    +0.231 C 
ATOM      2  C   UNL     1       5.240  -5.766  23.156  0.00  0.00    +0.188 C 
ATOM      3  C   UNL     1       4.946  -4.672  24.194  0.00  0.00    +0.176 C 
ATOM      4  C   UNL     1       6.038  -4.636  25.278  0.00  0.00    +0.193 C 
ATOM      5  C   UNL     1       7.412  -4.621  24.634  0.00  0.00    +0.251 C 
ATOM      6  N   UNL     1       8.305  -3.776  25.030  0.00  0.00    -0.037 NA
ATOM      7  O   UNL     1       7.670  -5.554  23.692  0.00  0.00    -0.468 OA
ENDROOT
BRANCH   4   8
ATOM      8  N   UNL     1       5.920  -5.773  26.211  0.00  0.00    -0.302 N 
ATOM      9  H   UNL     1       6.260  -6.686  25.931  0.00  0.00    +0.150 HD
ATOM     10  C   UNL     1       5.801  -5.508  27.564  0.00  0.00    +0.214 C 
ATOM     11  O   UNL     1       5.828  -4.367  28.013  0.00  0.00    -0.276 OA
BRANCH  10  12
ATOM     12  C   UNL     1       5.595  -6.734  28.433  0.00  0.00    +0.096 C 
BRANCH  12  13
ATOM     13  C   UNL     1       5.490  -6.321  29.904  0.00  0.00    +0.009 C 
BRANCH  13  14
ATOM     14  C   UNL     1       4.088  -6.515  30.476  0.00  0.00    -0.003 C 
ATOM     15  C   UNL     1       3.205  -7.286  29.504  0.00  0.00    +0.004 C 
ENDBRANCH  13  14
ENDBRANCH  12  13
ENDBRANCH  10  12
ENDBRANCH   4   8
BRANCH   2  16
ATOM     16  O   UNL     1       5.006  -7.070  23.722  0.00  0.00    -0.385 OA
ATOM     17  H   UNL     1       4.526  -6.959  24.563  0.00  0.00    +0.210 HD
ENDBRANCH   2  16
BRANCH   3  18
ATOM     18  O   UNL     1       4.738  -3.393  23.595  0.00  0.00    -0.387 OA
ATOM     19  H   UNL     1       3.868  -3.368  23.142  0.00  0.00    +0.210 HD
ENDBRANCH   3  18
BRANCH   1  20
ATOM     20  C   UNL     1       6.936  -4.685  21.549  0.00  0.00    +0.203 C 
BRANCH  20  21
ATOM     21  O   UNL     1       5.722  -4.311  20.900  0.00  0.00    -0.391 OA
ATOM     22  H   UNL     1       5.185  -5.123  20.800  0.00  0.00    +0.210 HD
ENDBRANCH  20  21
ENDBRANCH   1  20
BRANCH   6  23
ATOM     23  O   UNL     1       9.524  -3.872  24.324  0.00  0.00    -0.296 OA
BRANCH  23  24
ATOM     24  C   UNL     1       9.815  -2.630  23.784  0.00  0.00    +0.430 C 
ATOM     25  N   UNL     1       9.583  -1.637  24.711  0.00  0.00    -0.249 N 
ATOM     26  H   UNL     1       9.377  -1.953  25.647  0.00  0.00    +0.158 HD
ATOM     27  O   UNL     1      10.229  -2.464  22.643  0.00  0.00    -0.224 OA
BRANCH  25  28
ATOM     28  C   UNL     1       9.558  -0.246  24.463  0.00  0.00    +0.037 A 
ATOM     29  C   UNL     1       8.323   0.355  24.191  0.00  0.00    +0.023 A 
ATOM     30  C   UNL     1       8.250   1.719  23.870  0.00  0.00    +0.002 A 
ATOM     31  C   UNL     1       9.407   2.491  23.808  0.00  0.00    +0.000 A 
ATOM     32  C   UNL     1      10.634   1.902  24.091  0.00  0.00    +0.002 A 
ATOM     33  C   UNL     1      10.709   0.546  24.421  0.00  0.00    +0.023 A 
ENDBRANCH  25  28
ENDBRANCH  23  24
ENDBRANCH   6  23
TORSDOF 11
ENDMDL
MODEL 8
REMARK VINA RESULT:      -5.9      3.575      5.236
REMARK  Name = 
REMARK  12 active torsions:
REMARK  status: ('A' for Active; 'I' for Inactive)
REMARK    1  A    between atoms: C_2  and  C_3
REMARK    2  A    between atoms: C_3  and  O_4
REMARK    3  A    between atoms: N_7  and  O_8
REMARK    4  A    between atoms: O_8  and  C_9
REMARK    5  A    between atoms: N_11  and  C_12
REMARK    6  A    between atoms: C_18  and  N_20
REMARK    7  A    between atoms: C_21  and  C_23
REMARK    8  A    between atoms: C_23  and  C_24
REMARK    9  A    between atoms: C_24  and  C_25
REMARK   10  A    between atoms: C_25  and  C_26
REMARK   11  A    between atoms: C_27  and  O_29
REMARK   12  A    between atoms: C_30  and  O_32
REMARK                            x       y       z     vdW  Elec       q    Type
REMARK                         _______ _______ _______ _____ _____    ______ ____
ROOT
ATOM      1  C   UNL     1       9.330   2.364  24.546  0.00  0.00    +0.231 C 
ATOM      2  C   UNL     1      10.471   1.611  23.840  0.00  0.00    +0.188 C 
ATOM      3  C   UNL     1      10.041   0.967  22.513  0.00  0.00    +0.176 C 
ATOM      4  C   UNL     1       8.730   0.181  22.682  0.00  0.00    +0.193 C 
ATOM      5  C   UNL     1       7.699   1.033  23.398  0.00  0.00    +0.251 C 
ATOM      6  N   UNL     1       6.494   1.118  22.938  0.00  0.00    -0.037 NA
ATOM      7  O   UNL     1       8.076   1.636  24.546  0.00  0.00    -0.468 OA
ENDROOT
BRANCH   4   8
ATOM      8  N   UNL     1       8.942  -1.086  23.408  0.00  0.00    -0.302 N 
ATOM      9  H   UNL     1       9.340  -1.066  24.342  0.00  0.00    +0.150 HD
ATOM     10  C   UNL     1       8.197  -2.192  23.041  0.00  0.00    +0.214 C 
ATOM     11  O   UNL     1       7.344  -2.144  22.161  0.00  0.00    -0.276 OA
BRANCH  10  12
ATOM     12  C   UNL     1       8.549  -3.468  23.783  0.00  0.00    +0.096 C 
BRANCH  12  13
ATOM     13  C   UNL     1       7.382  -4.456  23.706  0.00  0.00    +0.009 C 
BRANCH  13  14
ATOM     14  C   UNL     1       7.669  -5.644  22.792  0.00  0.00    -0.003 C 
ATOM     15  C   UNL     1       6.771  -5.615  21.562  0.00  0.00    +0.004 C 
ENDBRANCH  13  14
ENDBRANCH  12  13
ENDBRANCH  10  12
ENDBRANCH   4   8
BRANCH   2  16
ATOM     16  O   UNL     1      10.956   0.605  24.751  0.00  0.00    -0.385 OA
ATOM     17  H   UNL     1      11.734   0.962  25.215  0.00  0.00    +0.210 HD
ENDBRANCH   2  16
BRANCH   3  18
ATOM     18  O   UNL     1       9.968   1.914  21.446  0.00  0.00    -0.387 OA
ATOM     19  H   UNL     1      10.836   2.356  21.325  0.00  0.00    +0.210 HD
ENDBRANCH   3  18
BRANCH   1  20
ATOM     20  C   UNL     1       9.079   3.772  23.984  0.00  0.00    +0.203 C 
BRANCH  20  21
ATOM     21  O   UNL     1      10.227   4.274  23.302  0.00  0.00    -0.391 OA
ATOM     22  H   UNL     1      10.090   5.234  23.171  0.00  0.00    +0.210 HD
ENDBRANCH  20  21
ENDBRANCH   1  20
BRANCH   6  23
ATOM     23  O   UNL     1       5.658   1.962  23.701  0.00  0.00    -0.296 OA
BRANCH  23  24
ATOM     24  C   UNL     1       5.176   2.962  22.872  0.00  0.00    +0.430 C 
ATOM     25  N   UNL     1       3.799   2.964  22.873  0.00  0.00    -0.249 N 
ATOM     26  H   UNL     1       3.361   2.357  23.550  0.00  0.00    +0.158 HD
ATOM     27  O   UNL     1       5.895   3.731  22.245  0.00  0.00    -0.224 OA
BRANCH  25  28
ATOM     28  C   UNL     1       2.959   3.688  21.996  0.00  0.00    +0.037 A 
ATOM     29  C   UNL     1       2.238   2.972  21.032  0.00  0.00    +0.023 A 
ATOM     30  C   UNL     1       1.444   3.645  20.092  0.00  0.00    +0.002 A 
ATOM     31  C   UNL     1       1.371   5.036  20.098  0.00  0.00    +0.000 A 
ATOM     32  C   UNL     1       2.074   5.750  21.062  0.00  0.00    +0.002 A 
ATOM     33  C   UNL     1       2.857   5.082  22.006  0.00  0.00    +0.023 A 
ENDBRANCH  25  28
ENDBRANCH  23  24
ENDBRANCH   6  23
TORSDOF 11
ENDMDL
MODEL 9
REMARK VINA RESULT:      -5.9      2.188      3.327
REMARK  Name = 
REMARK  12 active torsions:
REMARK  status: ('A' for Active; 'I' for Inactive)
REMARK    1  A    between atoms: C_2  and  C_3
REMARK    2  A    between atoms: C_3  and  O_4
REMARK    3  A    between atoms: N_7  and  O_8
REMARK    4  A    between atoms: O_8  and  C_9
REMARK    5  A    between atoms: N_11  and  C_12
REMARK    6  A    between atoms: C_18  and  N_20
REMARK    7  A    between atoms: C_21  and  C_23
REMARK    8  A    between atoms: C_23  and  C_24
REMARK    9  A    between atoms: C_24  and  C_25
REMARK   10  A    between atoms: C_25  and  C_26
REMARK   11  A    between atoms: C_27  and  O_29
REMARK   12  A    between atoms: C_30  and  O_32
REMARK                            x       y       z     vdW  Elec       q    Type
REMARK                         _______ _______ _______ _____ _____    ______ ____
ROOT
ATOM      1  C   UNL     1       8.935  -2.398  22.673  0.00  0.00    +0.231 C 
ATOM      2  C   UNL     1       7.525  -3.014  22.705  0.00  0.00    +0.188 C 
ATOM      3  C   UNL     1       6.568  -2.287  23.662  0.00  0.00    +0.176 C 
ATOM      4  C   UNL     1       7.228  -2.063  25.034  0.00  0.00    +0.193 C 
ATOM      5  C   UNL     1       8.610  -1.462  24.856  0.00  0.00    +0.251 C 
ATOM      6  N   UNL     1       8.970  -0.442  25.563  0.00  0.00    -0.037 NA
ATOM      7  O   UNL     1       9.448  -2.070  23.989  0.00  0.00    -0.468 OA
ENDROOT
BRANCH   4   8
ATOM      8  N   UNL     1       7.307  -3.313  25.813  0.00  0.00    -0.302 N 
ATOM      9  H   UNL     1       8.180  -3.828  25.843  0.00  0.00    +0.150 HD
ATOM     10  C   UNL     1       6.396  -3.515  26.834  0.00  0.00    +0.214 C 
ATOM     11  O   UNL     1       5.553  -2.676  27.136  0.00  0.00    -0.276 OA
BRANCH  10  12
ATOM     12  C   UNL     1       6.500  -4.865  27.518  0.00  0.00    +0.096 C 
BRANCH  12  13
ATOM     13  C   UNL     1       5.920  -5.955  26.611  0.00  0.00    +0.009 C 
BRANCH  13  14
ATOM     14  C   UNL     1       4.821  -6.768  27.289  0.00  0.00    -0.003 C 
ATOM     15  C   UNL     1       3.704  -5.862  27.791  0.00  0.00    +0.004 C 
ENDBRANCH  13  14
ENDBRANCH  12  13
ENDBRANCH  10  12
ENDBRANCH   4   8
BRANCH   2  16
ATOM     16  O   UNL     1       7.665  -4.395  23.090  0.00  0.00    -0.385 OA
ATOM     17  H   UNL     1       6.794  -4.825  23.011  0.00  0.00    +0.210 HD
ENDBRANCH   2  16
BRANCH   3  18
ATOM     18  O   UNL     1       6.057  -1.075  23.105  0.00  0.00    -0.387 OA
ATOM     19  H   UNL     1       6.350  -0.306  23.640  0.00  0.00    +0.210 HD
ENDBRANCH   3  18
BRANCH   1  20
ATOM     20  C   UNL     1       9.044  -1.152  21.781  0.00  0.00    +0.203 C 
BRANCH  20  21
ATOM     21  O   UNL     1      10.405  -0.812  21.523  0.00  0.00    -0.391 OA
ATOM     22  H   UNL     1      10.960  -1.512  21.925  0.00  0.00    +0.210 HD
ENDBRANCH  20  21
ENDBRANCH   1  20
BRANCH   6  23
ATOM     23  O   UNL     1      10.274   0.013  25.271  0.00  0.00    -0.296 OA
BRANCH  23  24
ATOM     24  C   UNL     1      10.174   1.146  24.479  0.00  0.00    +0.430 C 
ATOM     25  N   UNL     1       9.146   1.950  24.919  0.00  0.00    -0.249 N 
ATOM     26  H   UNL     1       8.724   1.679  25.795  0.00  0.00    +0.158 HD
ATOM     27  O   UNL     1      10.915   1.382  23.532  0.00  0.00    -0.224 OA
BRANCH  25  28
ATOM     28  C   UNL     1       8.606   3.068  24.245  0.00  0.00    +0.037 A 
ATOM     29  C   UNL     1       7.674   2.838  23.225  0.00  0.00    +0.023 A 
ATOM     30  C   UNL     1       7.159   3.907  22.476  0.00  0.00    +0.002 A 
ATOM     31  C   UNL     1       7.576   5.211  22.731  0.00  0.00    +0.000 A 
ATOM     32  C   UNL     1       8.490   5.446  23.752  0.00  0.00    +0.002 A 
ATOM     33  C   UNL     1       8.997   4.385  24.506  0.00  0.00    +0.023 A 
ENDBRANCH  25  28
ENDBRANCH  23  24
ENDBRANCH   6  23
TORSDOF 11
ENDMDL
