MODEL 1
REMARK VINA RESULT:      -6.0      0.000      0.000
REMARK  Name = 
REMARK  17 active torsions:
REMARK  status: ('A' for Active; 'I' for Inactive)
REMARK    1  A    between atoms: CG1_1  and  CB_2
REMARK    2  A    between atoms: CB_2  and  CG2_3
REMARK    3  A    between atoms: CB_2  and  CA_4
REMARK    4  A    between atoms: CA_4  and  N_6
REMARK    5  A    between atoms: CA_4  and  C_25
REMARK    6  A    between atoms: C_7  and  C_9
REMARK    7  A    between atoms: C_9  and  C_11
REMARK    8  A    between atoms: C_9  and  N_13
REMARK    9  A    between atoms: C_11  and  S_12
REMARK   10  A    between atoms: C_14  and  C_16
REMARK   11  A    between atoms: C_16  and  C_17
REMARK   12  A    between atoms: C_17  and  C_18
REMARK   13  A    between atoms: C_18  and  C_19
REMARK   14  A    between atoms: C_19  and  N_21
REMARK   15  A    between atoms: C_19  and  C_22
REMARK   16  A    between atoms: C_22  and  O_23
REMARK   17  A    between atoms: C_25  and  O_26
REMARK                            x       y       z     vdW  Elec       q    Type
REMARK                         _______ _______ _______ _____ _____    ______ ____
ROOT
ATOM      1  C   UNK A   1       9.037  -1.009  24.545  0.00  0.00    +0.168 C 
ENDROOT
BRANCH   1   4
ATOM      2  N   VAL A   2       8.198  -3.312  24.332  0.00  0.00    -0.301 N 
ATOM      3  H   VAL A   2       7.463  -2.981  24.967  0.00  0.00    +0.150 HD
ATOM      4  C   UNK A   1       9.296  -2.489  24.183  0.00  0.00    +0.235 C 
ATOM      5  O   UNK A   1      10.384  -2.901  23.787  0.00  0.00    -0.274 OA
BRANCH   2   6
ATOM      6  CA  VAL A   2       8.246  -4.749  24.052  0.00  0.00    +0.184 C 
BRANCH   6   8
ATOM      7  CG1 VAL A   2       5.750  -4.279  23.626  0.00  0.00    +0.009 C 
ATOM      8  CB  VAL A   2       6.887  -5.302  23.557  0.00  0.00    +0.014 C 
ATOM      9  CG2 VAL A   2       6.990  -5.865  22.134  0.00  0.00    +0.009 C 
ENDBRANCH   6   8
BRANCH   6  10
ATOM     10  C   VAL A   2       8.764  -5.490  25.301  0.00  0.00    +0.326 C 
ATOM     11  OXT VAL A   2       8.060  -5.837  26.239  0.00  0.00    -0.249 OA
BRANCH  10  12
ATOM     12  O   VAL A   2      10.097  -5.735  25.284  0.00  0.00    -0.479 OA
ATOM     13  H   VAL A   2      10.606  -5.273  25.977  0.00  0.00    +0.295 HD
ENDBRANCH  10  12
ENDBRANCH   6  10
ENDBRANCH   2   6
ENDBRANCH   1   4
BRANCH   1  14
ATOM     14  N   UNK A   1       9.065  -0.163  23.350  0.00  0.00    -0.303 N 
ATOM     15  H   UNK A   1       8.418  -0.349  22.593  0.00  0.00    +0.149 HD
ATOM     16  C   UNK A   1      10.031   0.799  23.211  0.00  0.00    +0.214 C 
ATOM     17  O   UNK A   1      10.922   0.932  24.052  0.00  0.00    -0.276 OA
BRANCH  16  18
ATOM     18  C   UNK A   1       9.898   1.698  21.988  0.00  0.00    +0.096 C 
BRANCH  18  19
ATOM     19  C   UNK A   1       8.563   2.436  22.066  0.00  0.00    +0.011 C 
BRANCH  19  20
ATOM     20  C   UNK A   1       8.475   3.499  23.168  0.00  0.00    +0.030 C 
BRANCH  20  21
ATOM     21  C   UNK A   1       7.350   4.523  22.917  0.00  0.00    +0.161 C 
BRANCH  21  22
ATOM     22  N   UNK A   1       6.391   4.035  21.888  0.00  0.00    -0.318 NA
ATOM     23  H   UNK A   1       5.443   4.266  22.196  0.00  0.00    +0.119 HD
ATOM     24  H   UNK A   1       6.529   4.582  21.032  0.00  0.00    +0.119 HD
ENDBRANCH  21  22
BRANCH  21  25
ATOM     25  C   UNK A   1       7.930   5.868  22.449  0.00  0.00    +0.322 C 
ATOM     26  O   UNK A   1       8.768   6.518  23.053  0.00  0.00    -0.249 OA
BRANCH  25  27
ATOM     27  O   UNK A   1       7.407   6.247  21.252  0.00  0.00    -0.480 OA
ATOM     28  H   UNK A   1       7.466   7.234  21.210  0.00  0.00    +0.295 HD
ENDBRANCH  25  27
ENDBRANCH  21  25
ENDBRANCH  20  21
ENDBRANCH  19  20
ENDBRANCH  18  19
ENDBRANCH  16  18
ENDBRANCH   1  14
BRANCH   1  29
ATOM     29  C   UNK A   1       7.712  -0.900  25.307  0.00  0.00    +0.097 C 
BRANCH  29  30
ATOM     30  S   UNK A   1       6.446   0.014  24.358  0.00  0.00    -0.176 S 
ATOM     31  H   UNK A   1       6.617  -0.640  23.198  0.00  0.00    +0.102 HD
ENDBRANCH  29  30
ENDBRANCH   1  29
TORSDOF 15
ENDMDL
MODEL 2
REMARK VINA RESULT:      -5.9      2.773      3.519
REMARK  Name = 
REMARK  17 active torsions:
REMARK  status: ('A' for Active; 'I' for Inactive)
REMARK    1  A    between atoms: CG1_1  and  CB_2
REMARK    2  A    between atoms: CB_2  and  CG2_3
REMARK    3  A    between atoms: CB_2  and  CA_4
REMARK    4  A    between atoms: CA_4  and  N_6
REMARK    5  A    between atoms: CA_4  and  C_25
REMARK    6  A    between atoms: C_7  and  C_9
REMARK    7  A    between atoms: C_9  and  C_11
REMARK    8  A    between atoms: C_9  and  N_13
REMARK    9  A    between atoms: C_11  and  S_12
REMARK   10  A    between atoms: C_14  and  C_16
REMARK   11  A    between atoms: C_16  and  C_17
REMARK   12  A    between atoms: C_17  and  C_18
REMARK   13  A    between atoms: C_18  and  C_19
REMARK   14  A    between atoms: C_19  and  N_21
REMARK   15  A    between atoms: C_19  and  C_22
REMARK   16  A    between atoms: C_22  and  O_23
REMARK   17  A    between atoms: C_25  and  O_26
REMARK                            x       y       z     vdW  Elec       q    Type
REMARK                         _______ _______ _______ _____ _____    ______ ____
ROOT
ATOM      1  C   UNK A   1       8.785  -2.964  23.895  0.00  0.00    +0.168 C 
ENDROOT
BRANCH   1   4
ATOM      2  N   VAL A   2       6.849  -4.409  23.431  0.00  0.00    -0.301 N 
ATOM      3  H   VAL A   2       7.411  -5.121  23.911  0.00  0.00    +0.150 HD
ATOM      4  C   UNK A   1       7.504  -3.247  23.078  0.00  0.00    +0.235 C 
ATOM      5  O   UNK A   1       7.095  -2.498  22.194  0.00  0.00    -0.274 OA
BRANCH   2   6
ATOM      6  CA  VAL A   2       5.624  -4.857  22.765  0.00  0.00    +0.184 C 
BRANCH   6   8
ATOM      7  CG1 VAL A   2       4.922  -5.227  25.216  0.00  0.00    +0.009 C 
ATOM      8  CB  VAL A   2       4.628  -5.529  23.744  0.00  0.00    +0.014 C 
ATOM      9  CG2 VAL A   2       3.177  -5.155  23.420  0.00  0.00    +0.009 C 
ENDBRANCH   6   8
BRANCH   6  10
ATOM     10  C   VAL A   2       5.998  -5.774  21.583  0.00  0.00    +0.326 C 
ATOM     11  OXT VAL A   2       5.939  -5.442  20.406  0.00  0.00    -0.249 OA
BRANCH  10  12
ATOM     12  O   VAL A   2       6.407  -7.012  21.952  0.00  0.00    -0.479 OA
ATOM     13  H   VAL A   2       7.211  -7.029  22.504  0.00  0.00    +0.295 HD
ENDBRANCH  10  12
ENDBRANCH   6  10
ENDBRANCH   2   6
ENDBRANCH   1   4
BRANCH   1  14
ATOM     14  N   UNK A   1       9.066  -1.529  23.953  0.00  0.00    -0.303 N 
ATOM     15  H   UNK A   1       8.478  -0.929  24.520  0.00  0.00    +0.149 HD
ATOM     16  C   UNK A   1      10.042  -0.986  23.159  0.00  0.00    +0.214 C 
ATOM     17  O   UNK A   1      10.658  -1.678  22.346  0.00  0.00    -0.276 OA
BRANCH  16  18
ATOM     18  C   UNK A   1      10.330   0.493  23.382  0.00  0.00    +0.096 C 
BRANCH  18  19
ATOM     19  C   UNK A   1      10.094   1.241  22.071  0.00  0.00    +0.011 C 
BRANCH  19  20
ATOM     20  C   UNK A   1       8.745   0.960  21.399  0.00  0.00    +0.030 C 
BRANCH  20  21
ATOM     21  C   UNK A   1       7.664   1.990  21.782  0.00  0.00    +0.161 C 
BRANCH  21  22
ATOM     22  N   UNK A   1       8.264   3.314  22.105  0.00  0.00    -0.318 NA
ATOM     23  H   UNK A   1       9.209   3.343  21.714  0.00  0.00    +0.119 HD
ATOM     24  H   UNK A   1       7.748   4.037  21.595  0.00  0.00    +0.119 HD
ENDBRANCH  21  22
BRANCH  21  25
ATOM     25  C   UNK A   1       6.856   1.508  22.999  0.00  0.00    +0.322 C 
ATOM     26  O   UNK A   1       6.519   2.211  23.939  0.00  0.00    -0.249 OA
BRANCH  25  27
ATOM     27  O   UNK A   1       6.538   0.190  22.897  0.00  0.00    -0.480 OA
ATOM     28  H   UNK A   1       6.470  -0.017  21.931  0.00  0.00    +0.295 HD
ENDBRANCH  25  27
ENDBRANCH  21  25
ENDBRANCH  20  21
ENDBRANCH  19  20
ENDBRANCH  18  19
ENDBRANCH  16  18
ENDBRANCH   1  14
BRANCH   1  29
ATOM     29  C   UNK A   1       8.644  -3.589  25.287  0.00  0.00    +0.097 C 
BRANCH  29  30
ATOM     30  S   UNK A   1       7.631  -2.557  26.404  0.00  0.00    -0.176 S 
ATOM     31  H   UNK A   1       8.482  -2.568  27.443  0.00  0.00    +0.102 HD
ENDBRANCH  29  30
ENDBRANCH   1  29
TORSDOF 15
ENDMDL
MODEL 3
REMARK VINA RESULT:      -5.9      2.376      2.694
REMARK  Name = 
REMARK  17 active torsions:
REMARK  status: ('A' for Active; 'I' for Inactive)
REMARK    1  A    between atoms: CG1_1  and  CB_2
REMARK    2  A    between atoms: CB_2  and  CG2_3
REMARK    3  A    between atoms: CB_2  and  CA_4
REMARK    4  A    between atoms: CA_4  and  N_6
REMARK    5  A    between atoms: CA_4  and  C_25
REMARK    6  A    between atoms: C_7  and  C_9
REMARK    7  A    between atoms: C_9  and  C_11
REMARK    8  A    between atoms: C_9  and  N_13
REMARK    9  A    between atoms: C_11  and  S_12
REMARK   10  A    between atoms: C_14  and  C_16
REMARK   11  A    between atoms: C_16  and  C_17
REMARK   12  A    between atoms: C_17  and  C_18
REMARK   13  A    between atoms: C_18  and  C_19
REMARK   14  A    between atoms: C_19  and  N_21
REMARK   15  A    between atoms: C_19  and  C_22
REMARK   16  A    between atoms: C_22  and  O_23
REMARK   17  A    between atoms: C_25  and  O_26
REMARK                            x       y       z     vdW  Elec       q    Type
REMARK                         _______ _______ _______ _____ _____    ______ ____
ROOT
ATOM      1  C   UNK A   1       8.035  -1.014  24.166  0.00  0.00    +0.168 C 
ENDROOT
BRANCH   1   4
ATOM      2  N   VAL A   2       7.720  -3.440  23.912  0.00  0.00    -0.301 N 
ATOM      3  H   VAL A   2       6.807  -3.251  24.338  0.00  0.00    +0.150 HD
ATOM      4  C   UNK A   1       8.647  -2.420  23.968  0.00  0.00    +0.235 C 
ATOM      5  O   UNK A   1       9.855  -2.614  23.860  0.00  0.00    -0.274 OA
BRANCH   2   6
ATOM      6  CA  VAL A   2       8.104  -4.844  23.742  0.00  0.00    +0.184 C 
BRANCH   6   8
ATOM      7  CG1 VAL A   2       5.557  -5.127  23.478  0.00  0.00    +0.009 C 
ATOM      8  CB  VAL A   2       6.943  -5.714  23.199  0.00  0.00    +0.014 C 
ATOM      9  CG2 VAL A   2       7.095  -5.987  21.697  0.00  0.00    +0.009 C 
ENDBRANCH   6   8
BRANCH   6  10
ATOM     10  C   VAL A   2       8.668  -5.379  25.073  0.00  0.00    +0.326 C 
ATOM     11  OXT VAL A   2       7.985  -5.663  26.048  0.00  0.00    -0.249 OA
BRANCH  10  12
ATOM     12  O   VAL A   2      10.016  -5.514  25.086  0.00  0.00    -0.479 OA
ATOM     13  H   VAL A   2      10.337  -6.382  25.394  0.00  0.00    +0.295 HD
ENDBRANCH  10  12
ENDBRANCH   6  10
ENDBRANCH   2   6
ENDBRANCH   1   4
BRANCH   1  14
ATOM     14  N   UNK A   1       8.533  -0.076  23.159  0.00  0.00    -0.303 N 
ATOM     15  H   UNK A   1       8.248  -0.185  22.193  0.00  0.00    +0.149 HD
ATOM     16  C   UNK A   1       9.466   0.868  23.501  0.00  0.00    +0.214 C 
ATOM     17  O   UNK A   1       9.941   0.910  24.637  0.00  0.00    -0.276 OA
BRANCH  16  18
ATOM     18  C   UNK A   1       9.829   1.866  22.408  0.00  0.00    +0.096 C 
BRANCH  18  19
ATOM     19  C   UNK A   1      10.114   3.219  23.056  0.00  0.00    +0.011 C 
BRANCH  19  20
ATOM     20  C   UNK A   1      11.576   3.452  23.454  0.00  0.00    +0.030 C 
BRANCH  20  21
ATOM     21  C   UNK A   1      11.941   4.947  23.529  0.00  0.00    +0.161 C 
BRANCH  21  22
ATOM     22  N   UNK A   1      10.804   5.807  23.099  0.00  0.00    -0.318 NA
ATOM     23  H   UNK A   1      11.098   6.343  22.279  0.00  0.00    +0.119 HD
ATOM     24  H   UNK A   1      10.051   5.201  22.758  0.00  0.00    +0.119 HD
ENDBRANCH  21  22
BRANCH  21  25
ATOM     25  C   UNK A   1      13.155   5.259  22.636  0.00  0.00    +0.322 C 
ATOM     26  O   UNK A   1      13.092   5.672  21.489  0.00  0.00    -0.249 OA
BRANCH  25  27
ATOM     27  O   UNK A   1      14.325   5.036  23.290  0.00  0.00    -0.480 OA
ATOM     28  H   UNK A   1      14.626   5.908  23.650  0.00  0.00    +0.295 HD
ENDBRANCH  25  27
ENDBRANCH  21  25
ENDBRANCH  20  21
ENDBRANCH  19  20
ENDBRANCH  18  19
ENDBRANCH  16  18
ENDBRANCH   1  14
BRANCH   1  29
ATOM     29  C   UNK A   1       6.506  -1.124  24.156  0.00  0.00    +0.097 C 
BRANCH  29  30
ATOM     30  S   UNK A   1       5.763  -0.530  25.716  0.00  0.00    -0.176 S 
ATOM     31  H   UNK A   1       5.777   0.777  25.409  0.00  0.00    +0.102 HD
ENDBRANCH  29  30
ENDBRANCH   1  29
TORSDOF 15
ENDMDL
MODEL 4
REMARK VINA RESULT:      -5.7      4.238      6.179
REMARK  Name = 
REMARK  17 active torsions:
REMARK  status: ('A' for Active; 'I' for Inactive)
REMARK    1  A    between atoms: CG1_1  and  CB_2
REMARK    2  A    between atoms: CB_2  and  CG2_3
REMARK    3  A    between atoms: CB_2  and  CA_4
REMARK    4  A    between atoms: CA_4  and  N_6
REMARK    5  A    between atoms: CA_4  and  C_25
REMARK    6  A    between atoms: C_7  and  C_9
REMARK    7  A    between atoms: C_9  and  C_11
REMARK    8  A    between atoms: C_9  and  N_13
REMARK    9  A    between atoms: C_11  and  S_12
REMARK   10  A    between atoms: C_14  and  C_16
REMARK   11  A    between atoms: C_16  and  C_17
REMARK   12  A    between atoms: C_17  and  C_18
REMARK   13  A    between atoms: C_18  and  C_19
REMARK   14  A    between atoms: C_19  and  N_21
REMARK   15  A    between atoms: C_19  and  C_22
REMARK   16  A    between atoms: C_22  and  O_23
REMARK   17  A    between atoms: C_25  and  O_26
REMARK                            x       y       z     vdW  Elec       q    Type
REMARK                         _______ _______ _______ _____ _____    ______ ____
ROOT
ATOM      1  C   UNK A   1       6.816   4.168  23.774  0.00  0.00    +0.168 C 
ENDROOT
BRANCH   1   4
ATOM      2  N   VAL A   2       8.328   2.240  23.560  0.00  0.00    -0.301 N 
ATOM      3  H   VAL A   2       9.061   2.957  23.584  0.00  0.00    +0.150 HD
ATOM      4  C   UNK A   1       7.036   2.689  23.383  0.00  0.00    +0.235 C 
ATOM      5  O   UNK A   1       6.135   1.969  22.958  0.00  0.00    -0.274 OA
BRANCH   2   6
ATOM      6  CA  VAL A   2       8.739   0.871  23.233  0.00  0.00    +0.184 C 
BRANCH   6   8
ATOM      7  CG1 VAL A   2      10.886   0.796  24.655  0.00  0.00    +0.009 C 
ATOM      8  CB  VAL A   2       9.504   0.189  24.395  0.00  0.00    +0.014 C 
ATOM      9  CG2 VAL A   2       8.686   0.194  25.692  0.00  0.00    +0.009 C 
ENDBRANCH   6   8
BRANCH   6  10
ATOM     10  C   VAL A   2       9.548   0.886  21.922  0.00  0.00    +0.326 C 
ATOM     11  OXT VAL A   2       9.823  -0.113  21.270  0.00  0.00    -0.249 OA
BRANCH  10  12
ATOM     12  O   VAL A   2       9.946   2.121  21.532  0.00  0.00    -0.479 OA
ATOM     13  H   VAL A   2      10.707   2.131  20.922  0.00  0.00    +0.295 HD
ENDBRANCH  10  12
ENDBRANCH   6  10
ENDBRANCH   2   6
ENDBRANCH   1   4
BRANCH   1  14
ATOM     14  N   UNK A   1       8.047   4.944  23.609  0.00  0.00    -0.303 N 
ATOM     15  H   UNK A   1       8.775   4.599  22.994  0.00  0.00    +0.149 HD
ATOM     16  C   UNK A   1       8.258   6.067  24.365  0.00  0.00    +0.214 C 
ATOM     17  O   UNK A   1       7.452   6.411  25.232  0.00  0.00    -0.276 OA
BRANCH  16  18
ATOM     18  C   UNK A   1       9.514   6.862  24.032  0.00  0.00    +0.096 C 
BRANCH  18  19
ATOM     19  C   UNK A   1      10.596   6.521  25.055  0.00  0.00    +0.011 C 
BRANCH  19  20
ATOM     20  C   UNK A   1      11.975   6.212  24.460  0.00  0.00    +0.030 C 
BRANCH  20  21
ATOM     21  C   UNK A   1      11.889   5.491  23.101  0.00  0.00    +0.161 C 
BRANCH  21  22
ATOM     22  N   UNK A   1      11.311   4.127  23.245  0.00  0.00    -0.318 NA
ATOM     23  H   UNK A   1      10.617   4.149  23.996  0.00  0.00    +0.119 HD
ATOM     24  H   UNK A   1      10.773   3.912  22.399  0.00  0.00    +0.119 HD
ENDBRANCH  21  22
BRANCH  21  25
ATOM     25  C   UNK A   1      13.281   5.368  22.459  0.00  0.00    +0.322 C 
ATOM     26  O   UNK A   1      13.535   5.596  21.286  0.00  0.00    -0.249 OA
BRANCH  25  27
ATOM     27  O   UNK A   1      14.218   4.988  23.368  0.00  0.00    -0.480 OA
ATOM     28  H   UNK A   1      14.319   4.007  23.288  0.00  0.00    +0.295 HD
ENDBRANCH  25  27
ENDBRANCH  21  25
ENDBRANCH  20  21
ENDBRANCH  19  20
ENDBRANCH  18  19
ENDBRANCH  16  18
ENDBRANCH   1  14
BRANCH   1  29
ATOM     29  C   UNK A   1       5.652   4.738  22.956  0.00  0.00    +0.097 C 
BRANCH  29  30
ATOM     30  S   UNK A   1       4.177   5.054  23.988  0.00  0.00    -0.176 S 
ATOM     31  H   UNK A   1       3.665   6.039  23.233  0.00  0.00    +0.102 HD
ENDBRANCH  29  30
ENDBRANCH   1  29
TORSDOF 15
ENDMDL
MODEL 5
REMARK VINA RESULT:      -5.7      3.246      7.278
REMARK  Name = 
REMARK  17 active torsions:
REMARK  status: ('A' for Active; 'I' for Inactive)
REMARK    1  A    between atoms: CG1_1  and  CB_2
REMARK    2  A    between atoms: CB_2  and  CG2_3
REMARK    3  A    between atoms: CB_2  and  CA_4
REMARK    4  A    between atoms: CA_4  and  N_6
REMARK    5  A    between atoms: CA_4  and  C_25
REMARK    6  A    between atoms: C_7  and  C_9
REMARK    7  A    between atoms: C_9  and  C_11
REMARK    8  A    between atoms: C_9  and  N_13
REMARK    9  A    between atoms: C_11  and  S_12
REMARK   10  A    between atoms: C_14  and  C_16
REMARK   11  A    between atoms: C_16  and  C_17
REMARK   12  A    between atoms: C_17  and  C_18
REMARK   13  A    between atoms: C_18  and  C_19
REMARK   14  A    between atoms: C_19  and  N_21
REMARK   15  A    between atoms: C_19  and  C_22
REMARK   16  A    between atoms: C_22  and  O_23
REMARK   17  A    between atoms: C_25  and  O_26
REMARK                            x       y       z     vdW  Elec       q    Type
REMARK                         _______ _______ _______ _____ _____    ______ ____
ROOT
ATOM      1  C   UNK A   1       5.929  -0.952  24.688  0.00  0.00    +0.168 C 
ENDROOT
BRANCH   1   4
ATOM      2  N   VAL A   2       8.022  -0.505  23.476  0.00  0.00    -0.301 N 
ATOM      3  H   VAL A   2       7.486  -0.827  22.663  0.00  0.00    +0.150 HD
ATOM      4  C   UNK A   1       7.460  -0.741  24.714  0.00  0.00    +0.235 C 
ATOM      5  O   UNK A   1       8.122  -0.771  25.748  0.00  0.00    -0.274 OA
BRANCH   2   6
ATOM      6  CA  VAL A   2       9.460  -0.295  23.291  0.00  0.00    +0.184 C 
BRANCH   6   8
ATOM      7  CG1 VAL A   2       8.558   1.382  21.555  0.00  0.00    +0.009 C 
ATOM      8  CB  VAL A   2       9.768   0.909  22.365  0.00  0.00    +0.014 C 
ATOM      9  CG2 VAL A   2      10.358   2.088  23.148  0.00  0.00    +0.009 C 
ENDBRANCH   6   8
BRANCH   6  10
ATOM     10  C   VAL A   2      10.102  -1.603  22.790  0.00  0.00    +0.326 C 
ATOM     11  OXT VAL A   2      10.405  -2.544  23.512  0.00  0.00    -0.249 OA
BRANCH  10  12
ATOM     12  O   VAL A   2      10.315  -1.637  21.452  0.00  0.00    -0.479 OA
ATOM     13  H   VAL A   2      10.167  -2.507  21.037  0.00  0.00    +0.295 HD
ENDBRANCH  10  12
ENDBRANCH   6  10
ENDBRANCH   2   6
ENDBRANCH   1   4
BRANCH   1  14
ATOM     14  N   UNK A   1       5.592  -2.372  24.798  0.00  0.00    -0.303 N 
ATOM     15  H   UNK A   1       5.486  -2.789  25.716  0.00  0.00    +0.149 HD
ATOM     16  C   UNK A   1       5.532  -3.154  23.675  0.00  0.00    +0.214 C 
ATOM     17  O   UNK A   1       5.815  -2.696  22.566  0.00  0.00    -0.276 OA
BRANCH  16  18
ATOM     18  C   UNK A   1       5.060  -4.586  23.889  0.00  0.00    +0.096 C 
BRANCH  18  19
ATOM     19  C   UNK A   1       6.144  -5.351  24.647  0.00  0.00    +0.011 C 
BRANCH  19  20
ATOM     20  C   UNK A   1       7.579  -5.059  24.194  0.00  0.00    +0.030 C 
BRANCH  20  21
ATOM     21  C   UNK A   1       8.530  -4.781  25.375  0.00  0.00    +0.161 C 
BRANCH  21  22
ATOM     22  N   UNK A   1       9.580  -5.831  25.485  0.00  0.00    -0.318 NA
ATOM     23  H   UNK A   1       9.725  -6.038  26.477  0.00  0.00    +0.119 HD
ATOM     24  H   UNK A   1       9.212  -6.700  25.087  0.00  0.00    +0.119 HD
ENDBRANCH  21  22
BRANCH  21  25
ATOM     25  C   UNK A   1       7.753  -4.725  26.701  0.00  0.00    +0.322 C 
ATOM     26  O   UNK A   1       7.596  -5.667  27.461  0.00  0.00    -0.249 OA
BRANCH  25  27
ATOM     27  O   UNK A   1       7.269  -3.477  26.943  0.00  0.00    -0.480 OA
ATOM     28  H   UNK A   1       7.857  -2.841  26.465  0.00  0.00    +0.295 HD
ENDBRANCH  25  27
ENDBRANCH  21  25
ENDBRANCH  20  21
ENDBRANCH  19  20
ENDBRANCH  18  19
ENDBRANCH  16  18
ENDBRANCH   1  14
BRANCH   1  29
ATOM     29  C   UNK A   1       5.285  -0.111  25.797  0.00  0.00    +0.097 C 
BRANCH  29  30
ATOM     30  S   UNK A   1       5.182   1.657  25.346  0.00  0.00    -0.176 S 
ATOM     31  H   UNK A   1       6.174   1.646  24.441  0.00  0.00    +0.102 HD
ENDBRANCH  29  30
ENDBRANCH   1  29
TORSDOF 15
ENDMDL
MODEL 6
REMARK VINA RESULT:      -5.7      1.873      2.219
REMARK  Name = 
REMARK  17 active torsions:
REMARK  status: ('A' for Active; 'I' for Inactive)
REMARK    1  A    between atoms: CG1_1  and  CB_2
REMARK    2  A    between atoms: CB_2  and  CG2_3
REMARK    3  A    between atoms: CB_2  and  CA_4
REMARK    4  A    between atoms: CA_4  and  N_6
REMARK    5  A    between atoms: CA_4  and  C_25
REMARK    6  A    between atoms: C_7  and  C_9
REMARK    7  A    between atoms: C_9  and  C_11
REMARK    8  A    between atoms: C_9  and  N_13
REMARK    9  A    between atoms: C_11  and  S_12
REMARK   10  A    between atoms: C_14  and  C_16
REMARK   11  A    between atoms: C_16  and  C_17
REMARK   12  A    between atoms: C_17  and  C_18
REMARK   13  A    between atoms: C_18  and  C_19
REMARK   14  A    between atoms: C_19  and  N_21
REMARK   15  A    between atoms: C_19  and  C_22
REMARK   16  A    between atoms: C_22  and  O_23
REMARK   17  A    between atoms: C_25  and  O_26
REMARK                            x       y       z     vdW  Elec       q    Type
REMARK                         _______ _______ _______ _____ _____    ______ ____
ROOT
ATOM      1  C   UNK A   1       9.383  -1.807  24.677  0.00  0.00    +0.168 C 
ENDROOT
BRANCH   1   4
ATOM      2  N   VAL A   2       7.592  -3.489  24.791  0.00  0.00    -0.301 N 
ATOM      3  H   VAL A   2       7.063  -2.729  25.233  0.00  0.00    +0.150 HD
ATOM      4  C   UNK A   1       8.949  -3.291  24.651  0.00  0.00    +0.235 C 
ATOM      5  O   UNK A   1       9.744  -4.217  24.510  0.00  0.00    -0.274 OA
BRANCH   2   6
ATOM      6  CA  VAL A   2       6.987  -4.824  24.805  0.00  0.00    +0.184 C 
BRANCH   6   8
ATOM      7  CG1 VAL A   2       5.324  -3.674  23.209  0.00  0.00    +0.009 C 
ATOM      8  CB  VAL A   2       5.576  -4.842  24.166  0.00  0.00    +0.014 C 
ATOM      9  CG2 VAL A   2       5.298  -6.168  23.447  0.00  0.00    +0.009 C 
ENDBRANCH   6   8
BRANCH   6  10
ATOM     10  C   VAL A   2       6.987  -5.363  26.249  0.00  0.00    +0.326 C 
ATOM     11  OXT VAL A   2       6.025  -5.316  27.004  0.00  0.00    -0.249 OA
BRANCH  10  12
ATOM     12  O   VAL A   2       8.166  -5.909  26.635  0.00  0.00    -0.479 OA
ATOM     13  H   VAL A   2       8.726  -6.231  25.904  0.00  0.00    +0.295 HD
ENDBRANCH  10  12
ENDBRANCH   6  10
ENDBRANCH   2   6
ENDBRANCH   1   4
BRANCH   1  14
ATOM     14  N   UNK A   1       8.966  -1.116  23.456  0.00  0.00    -0.303 N 
ATOM     15  H   UNK A   1       8.039  -0.709  23.406  0.00  0.00    +0.149 HD
ATOM     16  C   UNK A   1       9.778  -1.120  22.352  0.00  0.00    +0.214 C 
ATOM     17  O   UNK A   1      10.839  -1.747  22.345  0.00  0.00    -0.276 OA
BRANCH  16  18
ATOM     18  C   UNK A   1       9.302  -0.275  21.177  0.00  0.00    +0.096 C 
BRANCH  18  19
ATOM     19  C   UNK A   1       8.945   1.119  21.690  0.00  0.00    +0.011 C 
BRANCH  19  20
ATOM     20  C   UNK A   1      10.117   1.913  22.277  0.00  0.00    +0.030 C 
BRANCH  20  21
ATOM     21  C   UNK A   1       9.657   3.047  23.214  0.00  0.00    +0.161 C 
BRANCH  21  22
ATOM     22  N   UNK A   1       8.418   3.700  22.709  0.00  0.00    -0.318 NA
ATOM     23  H   UNK A   1       7.612   3.187  23.074  0.00  0.00    +0.119 HD
ATOM     24  H   UNK A   1       8.348   4.631  23.131  0.00  0.00    +0.119 HD
ENDBRANCH  21  22
BRANCH  21  25
ATOM     25  C   UNK A   1      10.753   4.118  23.354  0.00  0.00    +0.322 C 
ATOM     26  O   UNK A   1      11.950   3.889  23.430  0.00  0.00    -0.249 OA
BRANCH  25  27
ATOM     27  O   UNK A   1      10.228   5.372  23.362  0.00  0.00    -0.480 OA
ATOM     28  H   UNK A   1      10.697   5.887  22.659  0.00  0.00    +0.295 HD
ENDBRANCH  25  27
ENDBRANCH  21  25
ENDBRANCH  20  21
ENDBRANCH  19  20
ENDBRANCH  18  19
ENDBRANCH  16  18
ENDBRANCH   1  14
BRANCH   1  29
ATOM     29  C   UNK A   1       8.830  -1.142  25.943  0.00  0.00    +0.097 C 
BRANCH  29  30
ATOM     30  S   UNK A   1       7.908   0.390  25.568  0.00  0.00    -0.176 S 
ATOM     31  H   UNK A   1       8.580   0.707  24.449  0.00  0.00    +0.102 HD
ENDBRANCH  29  30
ENDBRANCH   1  29
TORSDOF 15
ENDMDL
MODEL 7
REMARK VINA RESULT:      -5.6      3.465      4.597
REMARK  Name = 
REMARK  17 active torsions:
REMARK  status: ('A' for Active; 'I' for Inactive)
REMARK    1  A    between atoms: CG1_1  and  CB_2
REMARK    2  A    between atoms: CB_2  and  CG2_3
REMARK    3  A    between atoms: CB_2  and  CA_4
REMARK    4  A    between atoms: CA_4  and  N_6
REMARK    5  A    between atoms: CA_4  and  C_25
REMARK    6  A    between atoms: C_7  and  C_9
REMARK    7  A    between atoms: C_9  and  C_11
REMARK    8  A    between atoms: C_9  and  N_13
REMARK    9  A    between atoms: C_11  and  S_12
REMARK   10  A    between atoms: C_14  and  C_16
REMARK   11  A    between atoms: C_16  and  C_17
REMARK   12  A    between atoms: C_17  and  C_18
REMARK   13  A    between atoms: C_18  and  C_19
REMARK   14  A    between atoms: C_19  and  N_21
REMARK   15  A    between atoms: C_19  and  C_22
REMARK   16  A    between atoms: C_22  and  O_23
REMARK   17  A    between atoms: C_25  and  O_26
REMARK                            x       y       z     vdW  Elec       q    Type
REMARK                         _______ _______ _______ _____ _____    ______ ____
ROOT
ATOM      1  C   UNK A   1       6.445  -3.202  22.699  0.00  0.00    +0.168 C 
ENDROOT
BRANCH   1   4
ATOM      2  N   VAL A   2       6.738  -4.277  24.892  0.00  0.00    -0.301 N 
ATOM      3  H   VAL A   2       6.016  -3.611  25.188  0.00  0.00    +0.150 HD
ATOM      4  C   UNK A   1       7.308  -4.056  23.656  0.00  0.00    +0.235 C 
ATOM      5  O   UNK A   1       8.407  -4.508  23.341  0.00  0.00    -0.274 OA
BRANCH   2   6
ATOM      6  CA  VAL A   2       7.406  -5.052  25.941  0.00  0.00    +0.184 C 
BRANCH   6   8
ATOM      7  CG1 VAL A   2       5.812  -4.534  27.897  0.00  0.00    +0.009 C 
ATOM      8  CB  VAL A   2       6.412  -5.611  26.989  0.00  0.00    +0.014 C 
ATOM      9  CG2 VAL A   2       5.285  -6.415  26.328  0.00  0.00    +0.009 C 
ENDBRANCH   6   8
BRANCH   6  10
ATOM     10  C   VAL A   2       8.512  -4.190  26.579  0.00  0.00    +0.326 C 
ATOM     11  OXT VAL A   2       8.502  -2.966  26.611  0.00  0.00    -0.249 OA
BRANCH  10  12
ATOM     12  O   VAL A   2       9.529  -4.906  27.118  0.00  0.00    -0.479 OA
ATOM     13  H   VAL A   2      10.349  -4.400  27.269  0.00  0.00    +0.295 HD
ENDBRANCH  10  12
ENDBRANCH   6  10
ENDBRANCH   2   6
ENDBRANCH   1   4
BRANCH   1  14
ATOM     14  N   UNK A   1       6.969  -1.839  22.594  0.00  0.00    -0.303 N 
ATOM     15  H   UNK A   1       7.672  -1.628  21.895  0.00  0.00    +0.149 HD
ATOM     16  C   UNK A   1       6.595  -0.886  23.505  0.00  0.00    +0.214 C 
ATOM     17  O   UNK A   1       5.863  -1.168  24.456  0.00  0.00    -0.276 OA
BRANCH  16  18
ATOM     18  C   UNK A   1       7.105   0.524  23.236  0.00  0.00    +0.096 C 
BRANCH  18  19
ATOM     19  C   UNK A   1       7.974   0.499  21.980  0.00  0.00    +0.011 C 
BRANCH  19  20
ATOM     20  C   UNK A   1       9.445   0.873  22.202  0.00  0.00    +0.030 C 
BRANCH  20  21
ATOM     21  C   UNK A   1      10.334  -0.354  22.486  0.00  0.00    +0.161 C 
BRANCH  21  22
ATOM     22  N   UNK A   1       9.927  -1.524  21.660  0.00  0.00    -0.318 NA
ATOM     23  H   UNK A   1       9.531  -2.234  22.281  0.00  0.00    +0.119 HD
ATOM     24  H   UNK A   1       9.148  -1.240  21.058  0.00  0.00    +0.119 HD
ENDBRANCH  21  22
BRANCH  21  25
ATOM     25  C   UNK A   1      10.257  -0.751  23.970  0.00  0.00    +0.322 C 
ATOM     26  O   UNK A   1      10.489  -0.005  24.908  0.00  0.00    -0.249 OA
BRANCH  25  27
ATOM     27  O   UNK A   1       9.875  -2.048  24.120  0.00  0.00    -0.480 OA
ATOM     28  H   UNK A   1       8.888  -2.051  24.197  0.00  0.00    +0.295 HD
ENDBRANCH  25  27
ENDBRANCH  21  25
ENDBRANCH  20  21
ENDBRANCH  19  20
ENDBRANCH  18  19
ENDBRANCH  16  18
ENDBRANCH   1  14
BRANCH   1  29
ATOM     29  C   UNK A   1       6.358  -3.901  21.338  0.00  0.00    +0.097 C 
BRANCH  29  30
ATOM     30  S   UNK A   1       5.970  -5.679  21.502  0.00  0.00    -0.176 S 
ATOM     31  H   UNK A   1       7.192  -6.070  21.896  0.00  0.00    +0.102 HD
ENDBRANCH  29  30
ENDBRANCH   1  29
TORSDOF 15
ENDMDL
MODEL 8
REMARK VINA RESULT:      -5.6      3.392      6.734
REMARK  Name = 
REMARK  17 active torsions:
REMARK  status: ('A' for Active; 'I' for Inactive)
REMARK    1  A    between atoms: CG1_1  and  CB_2
REMARK    2  A    between atoms: CB_2  and  CG2_3
REMARK    3  A    between atoms: CB_2  and  CA_4
REMARK    4  A    between atoms: CA_4  and  N_6
REMARK    5  A    between atoms: CA_4  and  C_25
REMARK    6  A    between atoms: C_7  and  C_9
REMARK    7  A    between atoms: C_9  and  C_11
REMARK    8  A    between atoms: C_9  and  N_13
REMARK    9  A    between atoms: C_11  and  S_12
REMARK   10  A    between atoms: C_14  and  C_16
REMARK   11  A    between atoms: C_16  and  C_17
REMARK   12  A    between atoms: C_17  and  C_18
REMARK   13  A    between atoms: C_18  and  C_19
REMARK   14  A    between atoms: C_19  and  N_21
REMARK   15  A    between atoms: C_19  and  C_22
REMARK   16  A    between atoms: C_22  and  O_23
REMARK   17  A    between atoms: C_25  and  O_26
REMARK                            x       y       z     vdW  Elec       q    Type
REMARK                         _______ _______ _______ _____ _____    ______ ____
ROOT
ATOM      1  C   UNK A   1       6.991  -0.700  25.744  0.00  0.00    +0.168 C 
ENDROOT
BRANCH   1   4
ATOM      2  N   VAL A   2       8.492  -0.312  23.835  0.00  0.00    -0.301 N 
ATOM      3  H   VAL A   2       7.694  -0.651  23.286  0.00  0.00    +0.150 HD
ATOM      4  C   UNK A   1       8.424  -0.505  25.199  0.00  0.00    +0.235 C 
ATOM      5  O   UNK A   1       9.420  -0.513  25.918  0.00  0.00    -0.274 OA
BRANCH   2   6
ATOM      6  CA  VAL A   2       9.761  -0.123  23.128  0.00  0.00    +0.184 C 
BRANCH   6   8
ATOM      7  CG1 VAL A   2       8.296   1.440  21.697  0.00  0.00    +0.009 C 
ATOM      8  CB  VAL A   2       9.714   1.064  22.133  0.00  0.00    +0.014 C 
ATOM      9  CG2 VAL A   2      10.428   2.300  22.693  0.00  0.00    +0.009 C 
ENDBRANCH   6   8
BRANCH   6  10
ATOM     10  C   VAL A   2      10.163  -1.446  22.448  0.00  0.00    +0.326 C 
ATOM     11  OXT VAL A   2      10.797  -2.339  22.996  0.00  0.00    -0.249 OA
BRANCH  10  12
ATOM     12  O   VAL A   2       9.754  -1.553  21.160  0.00  0.00    -0.479 OA
ATOM     13  H   VAL A   2       9.479  -0.713  20.748  0.00  0.00    +0.295 HD
ENDBRANCH  10  12
ENDBRANCH   6  10
ENDBRANCH   2   6
ENDBRANCH   1   4
BRANCH   1  14
ATOM     14  N   UNK A   1       6.686  -2.119  25.927  0.00  0.00    -0.303 N 
ATOM     15  H   UNK A   1       7.436  -2.768  26.135  0.00  0.00    +0.149 HD
ATOM     16  C   UNK A   1       5.415  -2.584  25.707  0.00  0.00    +0.214 C 
ATOM     17  O   UNK A   1       4.526  -1.834  25.299  0.00  0.00    -0.276 OA
BRANCH  16  18
ATOM     18  C   UNK A   1       5.180  -4.052  26.038  0.00  0.00    +0.096 C 
BRANCH  18  19
ATOM     19  C   UNK A   1       6.347  -4.871  25.489  0.00  0.00    +0.011 C 
BRANCH  19  20
ATOM     20  C   UNK A   1       6.216  -5.278  24.017  0.00  0.00    +0.030 C 
BRANCH  20  21
ATOM     21  C   UNK A   1       7.183  -4.508  23.098  0.00  0.00    +0.161 C 
BRANCH  21  22
ATOM     22  N   UNK A   1       8.343  -3.968  23.859  0.00  0.00    -0.318 NA
ATOM     23  H   UNK A   1       8.807  -4.747  24.333  0.00  0.00    +0.119 HD
ATOM     24  H   UNK A   1       9.036  -3.619  23.190  0.00  0.00    +0.119 HD
ENDBRANCH  21  22
BRANCH  21  25
ATOM     25  C   UNK A   1       6.464  -3.337  22.407  0.00  0.00    +0.322 C 
ATOM     26  O   UNK A   1       6.922  -2.213  22.276  0.00  0.00    -0.249 OA
BRANCH  25  27
ATOM     27  O   UNK A   1       5.246  -3.710  21.932  0.00  0.00    -0.480 OA
ATOM     28  H   UNK A   1       5.039  -4.593  22.328  0.00  0.00    +0.295 HD
ENDBRANCH  25  27
ENDBRANCH  21  25
ENDBRANCH  20  21
ENDBRANCH  19  20
ENDBRANCH  18  19
ENDBRANCH  16  18
ENDBRANCH   1  14
BRANCH   1  29
ATOM     29  C   UNK A   1       6.831   0.104  27.040  0.00  0.00    +0.097 C 
BRANCH  29  30
ATOM     30  S   UNK A   1       5.684   1.512  26.838  0.00  0.00    -0.176 S 
ATOM     31  H   UNK A   1       4.735   0.846  26.162  0.00  0.00    +0.102 HD
ENDBRANCH  29  30
ENDBRANCH   1  29
TORSDOF 15
ENDMDL
MODEL 9
REMARK VINA RESULT:      -5.6      1.691      2.200
REMARK  Name = 
REMARK  17 active torsions:
REMARK  status: ('A' for Active; 'I' for Inactive)
REMARK    1  A    between atoms: CG1_1  and  CB_2
REMARK    2  A    between atoms: CB_2  and  CG2_3
REMARK    3  A    between atoms: CB_2  and  CA_4
REMARK    4  A    between atoms: CA_4  and  N_6
REMARK    5  A    between atoms: CA_4  and  C_25
REMARK    6  A    between atoms: C_7  and  C_9
REMARK    7  A    between atoms: C_9  and  C_11
REMARK    8  A    between atoms: C_9  and  N_13
REMARK    9  A    between atoms: C_11  and  S_12
REMARK   10  A    between atoms: C_14  and  C_16
REMARK   11  A    between atoms: C_16  and  C_17
REMARK   12  A    between atoms: C_17  and  C_18
REMARK   13  A    between atoms: C_18  and  C_19
REMARK   14  A    between atoms: C_19  and  N_21
REMARK   15  A    between atoms: C_19  and  C_22
REMARK   16  A    between atoms: C_22  and  O_23
REMARK   17  A    between atoms: C_25  and  O_26
REMARK                            x       y       z     vdW  Elec       q    Type
REMARK                         _______ _______ _______ _____ _____    ______ ____
ROOT
ATOM      1  C   UNK A   1       9.291  -2.012  24.703  0.00  0.00    +0.168 C 
ENDROOT
BRANCH   1   4
ATOM      2  N   VAL A   2       7.538  -3.687  24.289  0.00  0.00    -0.301 N 
ATOM      3  H   VAL A   2       6.910  -2.941  24.605  0.00  0.00    +0.150 HD
ATOM      4  C   UNK A   1       8.885  -3.492  24.513  0.00  0.00    +0.235 C 
ATOM      5  O   UNK A   1       9.693  -4.417  24.549  0.00  0.00    -0.274 OA
BRANCH   2   6
ATOM      6  CA  VAL A   2       6.956  -5.018  24.099  0.00  0.00    +0.184 C 
BRANCH   6   8
ATOM      7  CG1 VAL A   2       5.706  -3.698  22.273  0.00  0.00    +0.009 C 
ATOM      8  CB  VAL A   2       5.963  -5.066  22.910  0.00  0.00    +0.014 C 
ATOM      9  CG2 VAL A   2       6.416  -6.061  21.834  0.00  0.00    +0.009 C 
ENDBRANCH   6   8
BRANCH   6  10
ATOM     10  C   VAL A   2       6.316  -5.484  25.421  0.00  0.00    +0.326 C 
ATOM     11  OXT VAL A   2       6.948  -5.869  26.396  0.00  0.00    -0.249 OA
BRANCH  10  12
ATOM     12  O   VAL A   2       4.961  -5.436  25.426  0.00  0.00    -0.479 OA
ATOM     13  H   VAL A   2       4.536  -5.815  24.635  0.00  0.00    +0.295 HD
ENDBRANCH  10  12
ENDBRANCH   6  10
ENDBRANCH   2   6
ENDBRANCH   1   4
BRANCH   1  14
ATOM     14  N   UNK A   1       8.951  -1.218  23.521  0.00  0.00    -0.303 N 
ATOM     15  H   UNK A   1       8.047  -0.762  23.470  0.00  0.00    +0.149 HD
ATOM     16  C   UNK A   1       9.801  -1.184  22.448  0.00  0.00    +0.214 C 
ATOM     17  O   UNK A   1      10.832  -1.860  22.430  0.00  0.00    -0.276 OA
BRANCH  16  18
ATOM     18  C   UNK A   1       9.408  -0.236  21.321  0.00  0.00    +0.096 C 
BRANCH  18  19
ATOM     19  C   UNK A   1       9.327   1.183  21.881  0.00  0.00    +0.011 C 
BRANCH  19  20
ATOM     20  C   UNK A   1       8.089   1.979  21.450  0.00  0.00    +0.030 C 
BRANCH  20  21
ATOM     21  C   UNK A   1       7.196   2.381  22.640  0.00  0.00    +0.161 C 
BRANCH  21  22
ATOM     22  N   UNK A   1       6.015   1.483  22.761  0.00  0.00    -0.318 NA
ATOM     23  H   UNK A   1       6.128   0.914  23.604  0.00  0.00    +0.119 HD
ATOM     24  H   UNK A   1       5.188   2.059  22.944  0.00  0.00    +0.119 HD
ENDBRANCH  21  22
BRANCH  21  25
ATOM     25  C   UNK A   1       6.697   3.828  22.484  0.00  0.00    +0.322 C 
ATOM     26  O   UNK A   1       5.586   4.223  22.799  0.00  0.00    -0.249 OA
BRANCH  25  27
ATOM     27  O   UNK A   1       7.661   4.635  21.966  0.00  0.00    -0.480 OA
ATOM     28  H   UNK A   1       7.283   5.051  21.152  0.00  0.00    +0.295 HD
ENDBRANCH  25  27
ENDBRANCH  21  25
ENDBRANCH  20  21
ENDBRANCH  19  20
ENDBRANCH  18  19
ENDBRANCH  16  18
ENDBRANCH   1  14
BRANCH   1  29
ATOM     29  C   UNK A   1       8.638  -1.470  25.979  0.00  0.00    +0.097 C 
BRANCH  29  30
ATOM     30  S   UNK A   1       7.933   0.198  25.736  0.00  0.00    -0.176 S 
ATOM     31  H   UNK A   1       8.271   0.324  24.442  0.00  0.00    +0.102 HD
ENDBRANCH  29  30
ENDBRANCH   1  29
TORSDOF 15
ENDMDL
