MODEL 1
REMARK VINA RESULT:      -5.9      0.000      0.000
REMARK  Name = 
REMARK  2 active torsions:
REMARK  status: ('A' for Active; 'I' for Inactive)
REMARK    1  A    between atoms: C_3  and  C_4
REMARK    2  A    between atoms: C_4  and  N_5
REMARK                            x       y       z     vdW  Elec       q    Type
REMARK                         _______ _______ _______ _____ _____    ______ ____
ROOT
ATOM      1 CL   UNL     1       4.919  -3.444  23.348  0.00  0.00    -0.076 Cl
ATOM      2  C   UNL     1       6.524  -3.800  23.872  0.00  0.00    +0.128 A 
ATOM      3  C   UNL     1       6.668  -4.834  24.942  0.00  0.00    +0.273 A 
ATOM      4  O   UNL     1       5.711  -5.323  25.534  0.00  0.00    -0.266 OA
ATOM      5  N   UNL     1       7.950  -5.215  25.239  0.00  0.00    -0.274 N 
ATOM      6  H   UNL     1       8.075  -5.907  25.957  0.00  0.00    +0.173 HD
ATOM      7  C   UNL     1       9.076  -4.609  24.763  0.00  0.00    +0.327 A 
ATOM      8  O   UNL     1      10.193  -4.941  25.144  0.00  0.00    -0.247 OA
ATOM      9  N   UNL     1       8.867  -3.619  23.849  0.00  0.00    -0.307 N 
ATOM     10  H   UNL     1       9.694  -3.094  23.541  0.00  0.00    +0.170 HD
ATOM     11  C   UNL     1       7.632  -3.217  23.381  0.00  0.00    +0.084 A 
ENDROOT
BRANCH  11  12
ATOM     12  C   UNL     1       7.654  -2.181  22.272  0.00  0.00    +0.281 C 
BRANCH  12  13
ATOM     13  N   UNL     1       8.424  -0.993  22.644  0.00  0.00    -0.219 N 
ATOM     14  C   UNL     1       9.656  -0.725  22.086  0.00  0.00    +0.281 C 
ATOM     15  N   UNL     1      10.572  -1.587  21.810  0.00  0.00    -0.104 NA
ATOM     16  H   UNL     1      11.404  -1.106  21.443  0.00  0.00    +0.363 HD
ATOM     17  C   UNL     1       9.817   0.751  21.813  0.00  0.00    +0.131 C 
ATOM     18  C   UNL     1       8.358   1.198  21.820  0.00  0.00    +0.056 C 
ATOM     19  C   UNL     1       7.693   0.262  22.828  0.00  0.00    +0.226 C 
ENDBRANCH  12  13
ENDBRANCH  11  12
TORSDOF 2
ENDMDL
MODEL 2
REMARK VINA RESULT:      -5.8      2.466      2.964
REMARK  Name = 
REMARK  2 active torsions:
REMARK  status: ('A' for Active; 'I' for Inactive)
REMARK    1  A    between atoms: C_3  and  C_4
REMARK    2  A    between atoms: C_4  and  N_5
REMARK                            x       y       z     vdW  Elec       q    Type
REMARK                         _______ _______ _______ _____ _____    ______ ____
ROOT
ATOM      1 CL   UNL     1       6.676   0.738  23.024  0.00  0.00    -0.076 Cl
ATOM      2  C   UNL     1       7.100  -0.930  23.155  0.00  0.00    +0.128 A 
ATOM      3  C   UNL     1       6.195  -1.791  23.975  0.00  0.00    +0.273 A 
ATOM      4  O   UNL     1       5.271  -1.342  24.647  0.00  0.00    -0.266 OA
ATOM      5  N   UNL     1       6.457  -3.135  23.945  0.00  0.00    -0.274 N 
ATOM      6  H   UNL     1       5.864  -3.737  24.492  0.00  0.00    +0.173 HD
ATOM      7  C   UNL     1       7.556  -3.706  23.374  0.00  0.00    +0.327 A 
ATOM      8  O   UNL     1       7.776  -4.908  23.465  0.00  0.00    -0.247 OA
ATOM      9  N   UNL     1       8.381  -2.849  22.708  0.00  0.00    -0.307 N 
ATOM     10  H   UNL     1       9.257  -3.241  22.342  0.00  0.00    +0.170 HD
ATOM     11  C   UNL     1       8.172  -1.491  22.568  0.00  0.00    +0.084 A 
ENDROOT
BRANCH  11  12
ATOM     12  C   UNL     1       9.160  -0.761  21.676  0.00  0.00    +0.281 C 
BRANCH  12  13
ATOM     13  N   UNL     1      10.118   0.031  22.450  0.00  0.00    -0.219 N 
ATOM     14  C   UNL     1      10.050   1.407  22.494  0.00  0.00    +0.281 C 
ATOM     15  N   UNL     1       9.757   2.188  21.513  0.00  0.00    -0.104 NA
ATOM     16  H   UNL     1       9.823   3.169  21.817  0.00  0.00    +0.363 HD
ATOM     17  C   UNL     1      10.360   1.921  23.880  0.00  0.00    +0.131 C 
ATOM     18  C   UNL     1      10.119   0.661  24.706  0.00  0.00    +0.056 C 
ATOM     19  C   UNL     1      10.515  -0.476  23.765  0.00  0.00    +0.226 C 
ENDBRANCH  12  13
ENDBRANCH  11  12
TORSDOF 2
ENDMDL
MODEL 3
REMARK VINA RESULT:      -5.7      3.053      3.877
REMARK  Name = 
REMARK  2 active torsions:
REMARK  status: ('A' for Active; 'I' for Inactive)
REMARK    1  A    between atoms: C_3  and  C_4
REMARK    2  A    between atoms: C_4  and  N_5
REMARK                            x       y       z     vdW  Elec       q    Type
REMARK                         _______ _______ _______ _____ _____    ______ ____
ROOT
ATOM      1 CL   UNL     1       4.765  -4.676  27.030  0.00  0.00    -0.076 Cl
ATOM      2  C   UNL     1       6.375  -4.663  26.412  0.00  0.00    +0.128 A 
ATOM      3  C   UNL     1       7.373  -5.526  27.115  0.00  0.00    +0.273 A 
ATOM      4  O   UNL     1       7.126  -6.116  28.162  0.00  0.00    -0.266 OA
ATOM      5  N   UNL     1       8.604  -5.623  26.523  0.00  0.00    -0.274 N 
ATOM      6  H   UNL     1       9.295  -6.196  26.978  0.00  0.00    +0.173 HD
ATOM      7  C   UNL     1       9.025  -4.874  25.463  0.00  0.00    +0.327 A 
ATOM      8  O   UNL     1      10.174  -4.946  25.042  0.00  0.00    -0.247 OA
ATOM      9  N   UNL     1       8.085  -4.049  24.920  0.00  0.00    -0.307 N 
ATOM     10  H   UNL     1       8.401  -3.416  24.176  0.00  0.00    +0.170 HD
ATOM     11  C   UNL     1       6.777  -3.941  25.350  0.00  0.00    +0.084 A 
ENDROOT
BRANCH  11  12
ATOM     12  C   UNL     1       5.879  -3.050  24.511  0.00  0.00    +0.281 C 
BRANCH  12  13
ATOM     13  N   UNL     1       5.591  -3.637  23.202  0.00  0.00    -0.219 N 
ATOM     14  C   UNL     1       6.570  -3.779  22.241  0.00  0.00    +0.281 C 
ATOM     15  N   UNL     1       7.509  -2.939  21.979  0.00  0.00    -0.104 NA
ATOM     16  H   UNL     1       8.071  -3.279  21.187  0.00  0.00    +0.363 HD
ATOM     17  C   UNL     1       6.420  -5.089  21.505  0.00  0.00    +0.131 C 
ATOM     18  C   UNL     1       5.560  -5.870  22.495  0.00  0.00    +0.056 C 
ATOM     19  C   UNL     1       4.698  -4.796  23.157  0.00  0.00    +0.226 C 
ENDBRANCH  12  13
ENDBRANCH  11  12
TORSDOF 2
ENDMDL
MODEL 4
REMARK VINA RESULT:      -5.6      2.531      3.302
REMARK  Name = 
REMARK  2 active torsions:
REMARK  status: ('A' for Active; 'I' for Inactive)
REMARK    1  A    between atoms: C_3  and  C_4
REMARK    2  A    between atoms: C_4  and  N_5
REMARK                            x       y       z     vdW  Elec       q    Type
REMARK                         _______ _______ _______ _____ _____    ______ ____
ROOT
ATOM      1 CL   UNL     1       6.112  -5.420  26.091  0.00  0.00    -0.076 Cl
ATOM      2  C   UNL     1       6.178  -5.433  24.368  0.00  0.00    +0.128 A 
ATOM      3  C   UNL     1       5.254  -6.375  23.666  0.00  0.00    +0.273 A 
ATOM      4  O   UNL     1       4.572  -7.207  24.257  0.00  0.00    -0.266 OA
ATOM      5  N   UNL     1       5.209  -6.266  22.302  0.00  0.00    -0.274 N 
ATOM      6  H   UNL     1       4.597  -6.892  21.805  0.00  0.00    +0.173 HD
ATOM      7  C   UNL     1       6.050  -5.500  21.549  0.00  0.00    +0.327 A 
ATOM      8  O   UNL     1       6.015  -5.522  20.324  0.00  0.00    -0.247 OA
ATOM      9  N   UNL     1       6.922  -4.724  22.253  0.00  0.00    -0.307 N 
ATOM     10  H   UNL     1       7.620  -4.202  21.709  0.00  0.00    +0.170 HD
ATOM     11  C   UNL     1       6.993  -4.656  23.631  0.00  0.00    +0.084 A 
ENDROOT
BRANCH  11  12
ATOM     12  C   UNL     1       7.957  -3.626  24.191  0.00  0.00    +0.281 C 
BRANCH  12  13
ATOM     13  N   UNL     1       8.287  -2.591  23.210  0.00  0.00    -0.219 N 
ATOM     14  C   UNL     1       7.452  -1.519  22.982  0.00  0.00    +0.281 C 
ATOM     15  N   UNL     1       6.165  -1.547  22.948  0.00  0.00    -0.104 NA
ATOM     16  H   UNL     1       5.801  -0.614  22.716  0.00  0.00    +0.363 HD
ATOM     17  C   UNL     1       8.244  -0.249  22.777  0.00  0.00    +0.131 C 
ATOM     18  C   UNL     1       9.576  -0.645  23.408  0.00  0.00    +0.056 C 
ATOM     19  C   UNL     1       9.679  -2.145  23.133  0.00  0.00    +0.226 C 
ENDBRANCH  12  13
ENDBRANCH  11  12
TORSDOF 2
ENDMDL
MODEL 5
REMARK VINA RESULT:      -5.6      5.651      7.714
REMARK  Name = 
REMARK  2 active torsions:
REMARK  status: ('A' for Active; 'I' for Inactive)
REMARK    1  A    between atoms: C_3  and  C_4
REMARK    2  A    between atoms: C_4  and  N_5
REMARK                            x       y       z     vdW  Elec       q    Type
REMARK                         _______ _______ _______ _____ _____    ______ ____
ROOT
ATOM      1 CL   UNL     1       7.088   4.796  23.859  0.00  0.00    -0.076 Cl
ATOM      2  C   UNL     1       8.791   4.707  23.603  0.00  0.00    +0.128 A 
ATOM      3  C   UNL     1       9.540   6.000  23.601  0.00  0.00    +0.273 A 
ATOM      4  O   UNL     1       8.985   7.094  23.637  0.00  0.00    -0.266 OA
ATOM      5  N   UNL     1      10.905   5.903  23.550  0.00  0.00    -0.274 N 
ATOM      6  H   UNL     1      11.432   6.760  23.544  0.00  0.00    +0.173 HD
ATOM      7  C   UNL     1      11.600   4.750  23.333  0.00  0.00    +0.327 A 
ATOM      8  O   UNL     1      12.819   4.749  23.205  0.00  0.00    -0.247 OA
ATOM      9  N   UNL     1      10.846   3.616  23.267  0.00  0.00    -0.307 N 
ATOM     10  H   UNL     1      11.338   2.748  23.022  0.00  0.00    +0.170 HD
ATOM     11  C   UNL     1       9.474   3.563  23.416  0.00  0.00    +0.084 A 
ENDROOT
BRANCH  11  12
ATOM     12  C   UNL     1       8.866   2.172  23.428  0.00  0.00    +0.281 C 
BRANCH  12  13
ATOM     13  N   UNL     1       9.822   1.150  22.999  0.00  0.00    -0.219 N 
ATOM     14  C   UNL     1      10.252   0.158  23.854  0.00  0.00    +0.281 C 
ATOM     15  N   UNL     1      10.517   0.292  25.107  0.00  0.00    -0.104 NA
ATOM     16  H   UNL     1      10.859  -0.601  25.488  0.00  0.00    +0.363 HD
ATOM     17  C   UNL     1      10.374  -1.163  23.132  0.00  0.00    +0.131 C 
ATOM     18  C   UNL     1       9.494  -0.899  21.914  0.00  0.00    +0.056 C 
ATOM     19  C   UNL     1       9.669   0.596  21.653  0.00  0.00    +0.226 C 
ENDBRANCH  12  13
ENDBRANCH  11  12
TORSDOF 2
ENDMDL
MODEL 6
REMARK VINA RESULT:      -5.6      2.072      2.406
REMARK  Name = 
REMARK  2 active torsions:
REMARK  status: ('A' for Active; 'I' for Inactive)
REMARK    1  A    between atoms: C_3  and  C_4
REMARK    2  A    between atoms: C_4  and  N_5
REMARK                            x       y       z     vdW  Elec       q    Type
REMARK                         _______ _______ _______ _____ _____    ______ ____
ROOT
ATOM      1 CL   UNL     1       8.649  -2.375  25.951  0.00  0.00    -0.076 Cl
ATOM      2  C   UNL     1       8.179  -3.194  24.507  0.00  0.00    +0.128 A 
ATOM      3  C   UNL     1       8.325  -4.681  24.499  0.00  0.00    +0.273 A 
ATOM      4  O   UNL     1       8.876  -5.304  25.401  0.00  0.00    -0.266 OA
ATOM      5  N   UNL     1       7.808  -5.328  23.409  0.00  0.00    -0.274 N 
ATOM      6  H   UNL     1       7.896  -6.330  23.377  0.00  0.00    +0.173 HD
ATOM      7  C   UNL     1       7.338  -4.715  22.284  0.00  0.00    +0.327 A 
ATOM      8  O   UNL     1       6.976  -5.358  21.306  0.00  0.00    -0.247 OA
ATOM      9  N   UNL     1       7.306  -3.353  22.330  0.00  0.00    -0.307 N 
ATOM     10  H   UNL     1       7.035  -2.867  21.467  0.00  0.00    +0.170 HD
ATOM     11  C   UNL     1       7.693  -2.584  23.411  0.00  0.00    +0.084 A 
ENDROOT
BRANCH  11  12
ATOM     12  C   UNL     1       7.451  -1.092  23.278  0.00  0.00    +0.281 C 
BRANCH  12  13
ATOM     13  N   UNL     1       8.702  -0.335  23.217  0.00  0.00    -0.219 N 
ATOM     14  C   UNL     1       9.380  -0.152  22.031  0.00  0.00    +0.281 C 
ATOM     15  N   UNL     1       9.523  -1.021  21.092  0.00  0.00    -0.104 NA
ATOM     16  H   UNL     1      10.110  -0.631  20.342  0.00  0.00    +0.363 HD
ATOM     17  C   UNL     1       9.952   1.243  21.943  0.00  0.00    +0.131 C 
ATOM     18  C   UNL     1       9.097   1.962  22.984  0.00  0.00    +0.056 C 
ATOM     19  C   UNL     1       8.803   0.882  24.024  0.00  0.00    +0.226 C 
ENDBRANCH  12  13
ENDBRANCH  11  12
TORSDOF 2
ENDMDL
MODEL 7
REMARK VINA RESULT:      -5.6      2.389      2.879
REMARK  Name = 
REMARK  2 active torsions:
REMARK  status: ('A' for Active; 'I' for Inactive)
REMARK    1  A    between atoms: C_3  and  C_4
REMARK    2  A    between atoms: C_4  and  N_5
REMARK                            x       y       z     vdW  Elec       q    Type
REMARK                         _______ _______ _______ _____ _____    ______ ____
ROOT
ATOM      1 CL   UNL     1       8.689  -2.838  26.047  0.00  0.00    -0.076 Cl
ATOM      2  C   UNL     1       7.887  -3.067  24.537  0.00  0.00    +0.128 A 
ATOM      3  C   UNL     1       6.631  -3.876  24.558  0.00  0.00    +0.273 A 
ATOM      4  O   UNL     1       6.239  -4.477  25.554  0.00  0.00    -0.266 OA
ATOM      5  N   UNL     1       5.926  -3.921  23.385  0.00  0.00    -0.274 N 
ATOM      6  H   UNL     1       5.078  -4.462  23.372  0.00  0.00    +0.173 HD
ATOM      7  C   UNL     1       6.366  -3.435  22.188  0.00  0.00    +0.327 A 
ATOM      8  O   UNL     1       5.724  -3.593  21.156  0.00  0.00    -0.247 OA
ATOM      9  N   UNL     1       7.559  -2.776  22.227  0.00  0.00    -0.307 N 
ATOM     10  H   UNL     1       7.950  -2.475  21.327  0.00  0.00    +0.170 HD
ATOM     11  C   UNL     1       8.313  -2.563  23.365  0.00  0.00    +0.084 A 
ENDROOT
BRANCH  11  12
ATOM     12  C   UNL     1       9.544  -1.694  23.185  0.00  0.00    +0.281 C 
BRANCH  12  13
ATOM     13  N   UNL     1       9.227  -0.267  23.274  0.00  0.00    -0.219 N 
ATOM     14  C   UNL     1       9.896   0.569  24.142  0.00  0.00    +0.281 C 
ATOM     15  N   UNL     1      10.273   0.283  25.340  0.00  0.00    -0.104 NA
ATOM     16  H   UNL     1      10.710   1.106  25.774  0.00  0.00    +0.363 HD
ATOM     17  C   UNL     1      10.159   1.913  23.505  0.00  0.00    +0.131 C 
ATOM     18  C   UNL     1      10.005   1.558  22.029  0.00  0.00    +0.056 C 
ATOM     19  C   UNL     1       8.954   0.449  22.027  0.00  0.00    +0.226 C 
ENDBRANCH  12  13
ENDBRANCH  11  12
TORSDOF 2
ENDMDL
MODEL 8
REMARK VINA RESULT:      -5.4      2.866      3.659
REMARK  Name = 
REMARK  2 active torsions:
REMARK  status: ('A' for Active; 'I' for Inactive)
REMARK    1  A    between atoms: C_3  and  C_4
REMARK    2  A    between atoms: C_4  and  N_5
REMARK                            x       y       z     vdW  Elec       q    Type
REMARK                         _______ _______ _______ _____ _____    ______ ____
ROOT
ATOM      1 CL   UNL     1       8.020  -0.167  26.884  0.00  0.00    -0.076 Cl
ATOM      2  C   UNL     1       8.887  -0.724  25.500  0.00  0.00    +0.128 A 
ATOM      3  C   UNL     1       8.908  -2.200  25.268  0.00  0.00    +0.273 A 
ATOM      4  O   UNL     1       8.461  -3.010  26.075  0.00  0.00    -0.266 OA
ATOM      5  N   UNL     1       9.467  -2.614  24.089  0.00  0.00    -0.274 N 
ATOM      6  H   UNL     1       9.496  -3.603  23.910  0.00  0.00    +0.173 HD
ATOM      7  C   UNL     1      10.140  -1.809  23.217  0.00  0.00    +0.327 A 
ATOM      8  O   UNL     1      10.698  -2.263  22.224  0.00  0.00    -0.247 OA
ATOM      9  N   UNL     1      10.149  -0.483  23.532  0.00  0.00    -0.307 N 
ATOM     10  H   UNL     1      10.719   0.130  22.936  0.00  0.00    +0.170 HD
ATOM     11  C   UNL     1       9.527   0.078  24.630  0.00  0.00    +0.084 A 
ENDROOT
BRANCH  11  12
ATOM     12  C   UNL     1       9.566   1.594  24.707  0.00  0.00    +0.281 C 
BRANCH  12  13
ATOM     13  N   UNL     1       8.701   2.217  23.704  0.00  0.00    -0.219 N 
ATOM     14  C   UNL     1       9.028   2.215  22.365  0.00  0.00    +0.281 C 
ATOM     15  N   UNL     1      10.205   2.370  21.866  0.00  0.00    -0.104 NA
ATOM     16  H   UNL     1      10.152   2.368  20.839  0.00  0.00    +0.363 HD
ATOM     17  C   UNL     1       7.804   1.989  21.509  0.00  0.00    +0.131 C 
ATOM     18  C   UNL     1       6.855   1.375  22.534  0.00  0.00    +0.056 C 
ATOM     19  C   UNL     1       7.255   2.043  23.849  0.00  0.00    +0.226 C 
ENDBRANCH  12  13
ENDBRANCH  11  12
TORSDOF 2
ENDMDL
MODEL 9
REMARK VINA RESULT:      -5.3      3.338      5.210
REMARK  Name = 
REMARK  2 active torsions:
REMARK  status: ('A' for Active; 'I' for Inactive)
REMARK    1  A    between atoms: C_3  and  C_4
REMARK    2  A    between atoms: C_4  and  N_5
REMARK                            x       y       z     vdW  Elec       q    Type
REMARK                         _______ _______ _______ _____ _____    ______ ____
ROOT
ATOM      1 CL   UNL     1       9.050   0.587  21.561  0.00  0.00    -0.076 Cl
ATOM      2  C   UNL     1       9.101   0.094  23.213  0.00  0.00    +0.128 A 
ATOM      3  C   UNL     1       9.287   1.171  24.232  0.00  0.00    +0.273 A 
ATOM      4  O   UNL     1       9.533   2.337  23.936  0.00  0.00    -0.266 OA
ATOM      5  N   UNL     1       9.173   0.785  25.541  0.00  0.00    -0.274 N 
ATOM      6  H   UNL     1       9.297   1.491  26.247  0.00  0.00    +0.173 HD
ATOM      7  C   UNL     1       9.076  -0.506  25.971  0.00  0.00    +0.327 A 
ATOM      8  O   UNL     1       9.072  -0.787  27.164  0.00  0.00    -0.247 OA
ATOM      9  N   UNL     1       8.990  -1.445  24.987  0.00  0.00    -0.307 N 
ATOM     10  H   UNL     1       9.001  -2.428  25.284  0.00  0.00    +0.170 HD
ATOM     11  C   UNL     1       8.980  -1.179  23.632  0.00  0.00    +0.084 A 
ENDROOT
BRANCH  11  12
ATOM     12  C   UNL     1       8.749  -2.376  22.727  0.00  0.00    +0.281 C 
BRANCH  12  13
ATOM     13  N   UNL     1       7.709  -3.265  23.247  0.00  0.00    -0.219 N 
ATOM     14  C   UNL     1       6.436  -3.277  22.716  0.00  0.00    +0.281 C 
ATOM     15  N   UNL     1       5.766  -2.252  22.318  0.00  0.00    -0.104 NA
ATOM     16  H   UNL     1       4.830  -2.546  22.009  0.00  0.00    +0.363 HD
ATOM     17  C   UNL     1       5.894  -4.685  22.641  0.00  0.00    +0.131 C 
ATOM     18  C   UNL     1       7.188  -5.488  22.723  0.00  0.00    +0.056 C 
ATOM     19  C   UNL     1       8.096  -4.631  23.604  0.00  0.00    +0.226 C 
ENDBRANCH  12  13
ENDBRANCH  11  12
TORSDOF 2
ENDMDL
