MODEL 1
REMARK VINA RESULT:      -4.7      0.000      0.000
REMARK  Name = 
REMARK  5 active torsions:
REMARK  status: ('A' for Active; 'I' for Inactive)
REMARK    1  A    between atoms: N_1  and  CA_2
REMARK    2  A    between atoms: CA_2  and  C_4
REMARK    3  A    between atoms: CA_2  and  CB_6
REMARK    4  A    between atoms: C_4  and  O_5
REMARK    5  A    between atoms: CB_6  and  CG_7
REMARK                            x       y       z     vdW  Elec       q    Type
REMARK                         _______ _______ _______ _____ _____    ______ ____
ROOT
ATOM      1  CA  PHE A   1       8.178  -5.433  26.113  0.00  0.00    +0.081 C 
ENDROOT
BRANCH   1   2
ATOM      2  N   PHE A   1       7.708  -5.779  27.473  0.00  0.00    -0.325 NA
ATOM      3  H1  PHE A   1       8.208  -5.203  28.150  0.00  0.00    +0.119 HD
ATOM      4  H2  PHE A   1       6.716  -5.569  27.568  0.00  0.00    +0.119 HD
ENDBRANCH   1   2
BRANCH   1   5
ATOM      5  CB  PHE A   1       7.126  -4.538  25.426  0.00  0.00    +0.055 C 
BRANCH   5   6
ATOM      6  CG  PHE A   1       6.676  -5.028  24.067  0.00  0.00    -0.046 A 
ATOM      7  CD2 PHE A   1       5.316  -5.255  23.811  0.00  0.00    +0.004 A 
ATOM      8  CE2 PHE A   1       4.898  -5.723  22.563  0.00  0.00    +0.000 A 
ATOM      9  CZ  PHE A   1       5.834  -5.969  21.560  0.00  0.00    +0.000 A 
ATOM     10  CE1 PHE A   1       7.188  -5.752  21.805  0.00  0.00    +0.000 A 
ATOM     11  CD1 PHE A   1       7.608  -5.288  23.053  0.00  0.00    +0.004 A 
ENDBRANCH   5   6
ENDBRANCH   1   5
BRANCH   1  12
ATOM     12  C   PHE A   1       9.566  -4.761  26.163  0.00  0.00    +0.174 C 
BRANCH  12  13
ATOM     13  O   PHE A   1      10.425  -5.303  25.160  0.00  0.00    -0.393 OA
ATOM     14  H   PHE A   1       9.855  -5.763  24.522  0.00  0.00    +0.209 HD
ENDBRANCH  12  13
ENDBRANCH   1  12
TORSDOF 5
ENDMDL
MODEL 2
REMARK VINA RESULT:      -4.6      3.562      4.978
REMARK  Name = 
REMARK  5 active torsions:
REMARK  status: ('A' for Active; 'I' for Inactive)
REMARK    1  A    between atoms: N_1  and  CA_2
REMARK    2  A    between atoms: CA_2  and  C_4
REMARK    3  A    between atoms: CA_2  and  CB_6
REMARK    4  A    between atoms: C_4  and  O_5
REMARK    5  A    between atoms: CB_6  and  CG_7
REMARK                            x       y       z     vdW  Elec       q    Type
REMARK                         _______ _______ _______ _____ _____    ______ ____
ROOT
ATOM      1  CA  PHE A   1       9.093  -4.646  25.601  0.00  0.00    +0.081 C 
ENDROOT
BRANCH   1   2
ATOM      2  N   PHE A   1      10.161  -5.642  25.359  0.00  0.00    -0.325 NA
ATOM      3  H1  PHE A   1       9.761  -6.576  25.435  0.00  0.00    +0.119 HD
ATOM      4  H2  PHE A   1      10.529  -5.543  24.415  0.00  0.00    +0.119 HD
ENDBRANCH   1   2
BRANCH   1   5
ATOM      5  CB  PHE A   1       8.834  -3.855  24.303  0.00  0.00    +0.055 C 
BRANCH   5   6
ATOM      6  CG  PHE A   1       9.262  -2.405  24.353  0.00  0.00    -0.046 A 
ATOM      7  CD2 PHE A   1      10.028  -1.855  23.316  0.00  0.00    +0.004 A 
ATOM      8  CE2 PHE A   1      10.438  -0.521  23.368  0.00  0.00    +0.000 A 
ATOM      9  CZ  PHE A   1      10.089   0.276  24.456  0.00  0.00    +0.000 A 
ATOM     10  CE1 PHE A   1       9.333  -0.261  25.496  0.00  0.00    +0.000 A 
ATOM     11  CD1 PHE A   1       8.924  -1.595  25.447  0.00  0.00    +0.004 A 
ENDBRANCH   5   6
ENDBRANCH   1   5
BRANCH   1  12
ATOM     12  C   PHE A   1       7.813  -5.326  26.129  0.00  0.00    +0.174 C 
BRANCH  12  13
ATOM     13  O   PHE A   1       8.021  -5.840  27.445  0.00  0.00    -0.393 OA
ATOM     14  H   PHE A   1       7.232  -5.610  27.963  0.00  0.00    +0.209 HD
ENDBRANCH  12  13
ENDBRANCH   1  12
TORSDOF 5
ENDMDL
MODEL 3
REMARK VINA RESULT:      -4.6      3.592      4.828
REMARK  Name = 
REMARK  5 active torsions:
REMARK  status: ('A' for Active; 'I' for Inactive)
REMARK    1  A    between atoms: N_1  and  CA_2
REMARK    2  A    between atoms: CA_2  and  C_4
REMARK    3  A    between atoms: CA_2  and  CB_6
REMARK    4  A    between atoms: C_4  and  O_5
REMARK    5  A    between atoms: CB_6  and  CG_7
REMARK                            x       y       z     vdW  Elec       q    Type
REMARK                         _______ _______ _______ _____ _____    ______ ____
ROOT
ATOM      1  CA  PHE A   1       9.161  -4.610  25.613  0.00  0.00    +0.081 C 
ENDROOT
BRANCH   1   2
ATOM      2  N   PHE A   1      10.239  -5.609  25.435  0.00  0.00    -0.325 NA
ATOM      3  H1  PHE A   1       9.897  -6.356  24.832  0.00  0.00    +0.119 HD
ATOM      4  H2  PHE A   1      11.040  -5.185  24.971  0.00  0.00    +0.119 HD
ENDBRANCH   1   2
BRANCH   1   5
ATOM      5  CB  PHE A   1       8.940  -3.860  24.283  0.00  0.00    +0.055 C 
BRANCH   5   6
ATOM      6  CG  PHE A   1       9.349  -2.404  24.307  0.00  0.00    -0.046 A 
ATOM      7  CD2 PHE A   1       8.979  -1.581  25.380  0.00  0.00    +0.004 A 
ATOM      8  CE2 PHE A   1       9.341  -0.232  25.397  0.00  0.00    +0.000 A 
ATOM      9  CZ  PHE A   1      10.074   0.308  24.343  0.00  0.00    +0.000 A 
ATOM     10  CE1 PHE A   1      10.443  -0.499  23.268  0.00  0.00    +0.000 A 
ATOM     11  CD1 PHE A   1      10.079  -1.847  23.248  0.00  0.00    +0.004 A 
ENDBRANCH   5   6
ENDBRANCH   1   5
BRANCH   1  12
ATOM     12  C   PHE A   1       7.867  -5.278  26.122  0.00  0.00    +0.174 C 
BRANCH  12  13
ATOM     13  O   PHE A   1       8.070  -5.849  27.415  0.00  0.00    -0.393 OA
ATOM     14  H   PHE A   1       9.007  -6.103  27.465  0.00  0.00    +0.209 HD
ENDBRANCH  12  13
ENDBRANCH   1  12
TORSDOF 5
ENDMDL
MODEL 4
REMARK VINA RESULT:      -4.6      5.478      6.453
REMARK  Name = 
REMARK  5 active torsions:
REMARK  status: ('A' for Active; 'I' for Inactive)
REMARK    1  A    between atoms: N_1  and  CA_2
REMARK    2  A    between atoms: CA_2  and  C_4
REMARK    3  A    between atoms: CA_2  and  CB_6
REMARK    4  A    between atoms: C_4  and  O_5
REMARK    5  A    between atoms: CB_6  and  CG_7
REMARK                            x       y       z     vdW  Elec       q    Type
REMARK                         _______ _______ _______ _____ _____    ______ ____
ROOT
ATOM      1  CA  PHE A   1       9.313  -2.607  24.102  0.00  0.00    +0.081 C 
ENDROOT
BRANCH   1   2
ATOM      2  N   PHE A   1       9.856  -3.931  24.477  0.00  0.00    -0.325 NA
ATOM      3  H1  PHE A   1      10.080  -3.924  25.471  0.00  0.00    +0.119 HD
ATOM      4  H2  PHE A   1       9.154  -4.655  24.328  0.00  0.00    +0.119 HD
ENDBRANCH   1   2
BRANCH   1   5
ATOM      5  CB  PHE A   1      10.218  -1.974  23.025  0.00  0.00    +0.055 C 
BRANCH   5   6
ATOM      6  CG  PHE A   1      10.213  -0.461  23.008  0.00  0.00    -0.046 A 
ATOM      7  CD2 PHE A   1       9.794   0.233  21.865  0.00  0.00    +0.004 A 
ATOM      8  CE2 PHE A   1       9.804   1.630  21.840  0.00  0.00    +0.000 A 
ATOM      9  CZ  PHE A   1      10.231   2.345  22.957  0.00  0.00    +0.000 A 
ATOM     10  CE1 PHE A   1      10.653   1.666  24.098  0.00  0.00    +0.000 A 
ATOM     11  CD1 PHE A   1      10.648   0.269  24.123  0.00  0.00    +0.004 A 
ENDBRANCH   5   6
ENDBRANCH   1   5
BRANCH   1  12
ATOM     12  C   PHE A   1       7.848  -2.723  23.630  0.00  0.00    +0.174 C 
BRANCH  12  13
ATOM     13  O   PHE A   1       7.788  -2.932  22.219  0.00  0.00    -0.393 OA
ATOM     14  H   PHE A   1       7.013  -3.494  22.052  0.00  0.00    +0.209 HD
ENDBRANCH  12  13
ENDBRANCH   1  12
TORSDOF 5
ENDMDL
MODEL 5
REMARK VINA RESULT:      -4.5      5.478      6.467
REMARK  Name = 
REMARK  5 active torsions:
REMARK  status: ('A' for Active; 'I' for Inactive)
REMARK    1  A    between atoms: N_1  and  CA_2
REMARK    2  A    between atoms: CA_2  and  C_4
REMARK    3  A    between atoms: CA_2  and  CB_6
REMARK    4  A    between atoms: C_4  and  O_5
REMARK    5  A    between atoms: CB_6  and  CG_7
REMARK                            x       y       z     vdW  Elec       q    Type
REMARK                         _______ _______ _______ _____ _____    ______ ____
ROOT
ATOM      1  CA  PHE A   1       9.292  -2.602  24.074  0.00  0.00    +0.081 C 
ENDROOT
BRANCH   1   2
ATOM      2  N   PHE A   1       9.889  -3.889  24.494  0.00  0.00    -0.325 NA
ATOM      3  H1  PHE A   1      10.817  -3.972  24.080  0.00  0.00    +0.119 HD
ATOM      4  H2  PHE A   1      10.005  -3.910  25.506  0.00  0.00    +0.119 HD
ENDBRANCH   1   2
BRANCH   1   5
ATOM      5  CB  PHE A   1      10.170  -1.970  22.975  0.00  0.00    +0.055 C 
BRANCH   5   6
ATOM      6  CG  PHE A   1      10.206  -0.458  22.991  0.00  0.00    -0.046 A 
ATOM      7  CD2 PHE A   1      10.599   0.230  24.147  0.00  0.00    +0.004 A 
ATOM      8  CE2 PHE A   1      10.617   1.627  24.170  0.00  0.00    +0.000 A 
ATOM      9  CZ  PHE A   1      10.242   2.349  23.039  0.00  0.00    +0.000 A 
ATOM     10  CE1 PHE A   1       9.844   1.676  21.885  0.00  0.00    +0.000 A 
ATOM     11  CD1 PHE A   1       9.822   0.280  21.862  0.00  0.00    +0.004 A 
ENDBRANCH   5   6
ENDBRANCH   1   5
BRANCH   1  12
ATOM     12  C   PHE A   1       7.834  -2.796  23.608  0.00  0.00    +0.174 C 
BRANCH  12  13
ATOM     13  O   PHE A   1       7.766  -2.876  22.184  0.00  0.00    -0.393 OA
ATOM     14  H   PHE A   1       7.720  -1.964  21.854  0.00  0.00    +0.209 HD
ENDBRANCH  12  13
ENDBRANCH   1  12
TORSDOF 5
ENDMDL
MODEL 6
REMARK VINA RESULT:      -4.4      5.317      5.951
REMARK  Name = 
REMARK  5 active torsions:
REMARK  status: ('A' for Active; 'I' for Inactive)
REMARK    1  A    between atoms: N_1  and  CA_2
REMARK    2  A    between atoms: CA_2  and  C_4
REMARK    3  A    between atoms: CA_2  and  CB_6
REMARK    4  A    between atoms: C_4  and  O_5
REMARK    5  A    between atoms: CB_6  and  CG_7
REMARK                            x       y       z     vdW  Elec       q    Type
REMARK                         _______ _______ _______ _____ _____    ______ ____
ROOT
ATOM      1  CA  PHE A   1       9.746   0.938  22.679  0.00  0.00    +0.081 C 
ENDROOT
BRANCH   1   2
ATOM      2  N   PHE A   1       9.839   1.972  21.625  0.00  0.00    -0.325 NA
ATOM      3  H1  PHE A   1      10.817   2.086  21.362  0.00  0.00    +0.119 HD
ATOM      4  H2  PHE A   1       9.332   1.674  20.793  0.00  0.00    +0.119 HD
ENDBRANCH   1   2
BRANCH   1   5
ATOM      5  CB  PHE A   1      10.151  -0.428  22.088  0.00  0.00    +0.055 C 
BRANCH   5   6
ATOM      6  CG  PHE A   1       9.434  -1.613  22.696  0.00  0.00    -0.046 A 
ATOM      7  CD2 PHE A   1       9.997  -2.303  23.779  0.00  0.00    +0.004 A 
ATOM      8  CE2 PHE A   1       9.347  -3.407  24.332  0.00  0.00    +0.000 A 
ATOM      9  CZ  PHE A   1       8.128  -3.835  23.809  0.00  0.00    +0.000 A 
ATOM     10  CE1 PHE A   1       7.561  -3.161  22.729  0.00  0.00    +0.000 A 
ATOM     11  CD1 PHE A   1       8.211  -2.058  22.173  0.00  0.00    +0.004 A 
ENDBRANCH   5   6
ENDBRANCH   1   5
BRANCH   1  12
ATOM     12  C   PHE A   1      10.609   1.317  23.901  0.00  0.00    +0.174 C 
BRANCH  12  13
ATOM     13  O   PHE A   1       9.888   1.100  25.114  0.00  0.00    -0.393 OA
ATOM     14  H   PHE A   1       9.035   1.555  25.018  0.00  0.00    +0.209 HD
ENDBRANCH  12  13
ENDBRANCH   1  12
TORSDOF 5
ENDMDL
MODEL 7
REMARK VINA RESULT:      -4.3      7.983      8.593
REMARK  Name = 
REMARK  5 active torsions:
REMARK  status: ('A' for Active; 'I' for Inactive)
REMARK    1  A    between atoms: N_1  and  CA_2
REMARK    2  A    between atoms: CA_2  and  C_4
REMARK    3  A    between atoms: CA_2  and  CB_6
REMARK    4  A    between atoms: C_4  and  O_5
REMARK    5  A    between atoms: CB_6  and  CG_7
REMARK                            x       y       z     vdW  Elec       q    Type
REMARK                         _______ _______ _______ _____ _____    ______ ____
ROOT
ATOM      1  CA  PHE A   1       9.334   3.831  23.700  0.00  0.00    +0.081 C 
ENDROOT
BRANCH   1   2
ATOM      2  N   PHE A   1       8.347   3.900  22.599  0.00  0.00    -0.325 NA
ATOM      3  H1  PHE A   1       7.652   3.166  22.735  0.00  0.00    +0.119 HD
ATOM      4  H2  PHE A   1       7.857   4.792  22.620  0.00  0.00    +0.119 HD
ENDBRANCH   1   2
BRANCH   1   5
ATOM      5  CB  PHE A   1      10.540   2.982  23.248  0.00  0.00    +0.055 C 
BRANCH   5   6
ATOM      6  CG  PHE A   1      10.262   1.499  23.147  0.00  0.00    -0.046 A 
ATOM      7  CD2 PHE A   1      10.329   0.685  24.287  0.00  0.00    +0.004 A 
ATOM      8  CE2 PHE A   1      10.089  -0.687  24.193  0.00  0.00    +0.000 A 
ATOM      9  CZ  PHE A   1       9.781  -1.260  22.961  0.00  0.00    +0.000 A 
ATOM     10  CE1 PHE A   1       9.717  -0.463  21.820  0.00  0.00    +0.000 A 
ATOM     11  CD1 PHE A   1       9.960   0.909  21.911  0.00  0.00    +0.004 A 
ENDBRANCH   5   6
ENDBRANCH   1   5
BRANCH   1  12
ATOM     12  C   PHE A   1       9.758   5.245  24.150  0.00  0.00    +0.174 C 
BRANCH  12  13
ATOM     13  O   PHE A   1      10.177   6.026  23.031  0.00  0.00    -0.393 OA
ATOM     14  H   PHE A   1      10.480   6.879  23.382  0.00  0.00    +0.209 HD
ENDBRANCH  12  13
ENDBRANCH   1  12
TORSDOF 5
ENDMDL
MODEL 8
REMARK VINA RESULT:      -4.2      5.553      6.088
REMARK  Name = 
REMARK  5 active torsions:
REMARK  status: ('A' for Active; 'I' for Inactive)
REMARK    1  A    between atoms: N_1  and  CA_2
REMARK    2  A    between atoms: CA_2  and  C_4
REMARK    3  A    between atoms: CA_2  and  CB_6
REMARK    4  A    between atoms: C_4  and  O_5
REMARK    5  A    between atoms: CB_6  and  CG_7
REMARK                            x       y       z     vdW  Elec       q    Type
REMARK                         _______ _______ _______ _____ _____    ______ ____
ROOT
ATOM      1  CA  PHE A   1       9.648   0.926  22.546  0.00  0.00    +0.081 C 
ENDROOT
BRANCH   1   2
ATOM      2  N   PHE A   1       9.623   1.925  21.454  0.00  0.00    -0.325 NA
ATOM      3  H1  PHE A   1       8.653   2.159  21.245  0.00  0.00    +0.119 HD
ATOM      4  H2  PHE A   1      10.086   2.782  21.749  0.00  0.00    +0.119 HD
ENDBRANCH   1   2
BRANCH   1   5
ATOM      5  CB  PHE A   1      10.063  -0.444  21.972  0.00  0.00    +0.055 C 
BRANCH   5   6
ATOM      6  CG  PHE A   1       9.402  -1.631  22.638  0.00  0.00    -0.046 A 
ATOM      7  CD2 PHE A   1       8.151  -2.085  22.197  0.00  0.00    +0.004 A 
ATOM      8  CE2 PHE A   1       7.531  -3.170  22.820  0.00  0.00    +0.000 A 
ATOM      9  CZ  PHE A   1       8.154  -3.811  23.889  0.00  0.00    +0.000 A 
ATOM     10  CE1 PHE A   1       9.395  -3.366  24.339  0.00  0.00    +0.000 A 
ATOM     11  CD1 PHE A   1      10.015  -2.279  23.719  0.00  0.00    +0.004 A 
ENDBRANCH   5   6
ENDBRANCH   1   5
BRANCH   1  12
ATOM     12  C   PHE A   1      10.580   1.381  23.688  0.00  0.00    +0.174 C 
BRANCH  12  13
ATOM     13  O   PHE A   1      10.829   2.785  23.607  0.00  0.00    -0.393 OA
ATOM     14  H   PHE A   1      11.627   2.897  23.064  0.00  0.00    +0.209 HD
ENDBRANCH  12  13
ENDBRANCH   1  12
TORSDOF 5
ENDMDL
MODEL 9
REMARK VINA RESULT:      -4.2      1.687      1.879
REMARK  Name = 
REMARK  5 active torsions:
REMARK  status: ('A' for Active; 'I' for Inactive)
REMARK    1  A    between atoms: N_1  and  CA_2
REMARK    2  A    between atoms: CA_2  and  C_4
REMARK    3  A    between atoms: CA_2  and  CB_6
REMARK    4  A    between atoms: C_4  and  O_5
REMARK    5  A    between atoms: CB_6  and  CG_7
REMARK                            x       y       z     vdW  Elec       q    Type
REMARK                         _______ _______ _______ _____ _____    ______ ____
ROOT
ATOM      1  CA  PHE A   1       9.047  -4.499  25.831  0.00  0.00    +0.081 C 
ENDROOT
BRANCH   1   2
ATOM      2  N   PHE A   1       9.850  -5.723  25.619  0.00  0.00    -0.325 NA
ATOM      3  H1  PHE A   1      10.745  -5.615  26.094  0.00  0.00    +0.119 HD
ATOM      4  H2  PHE A   1       9.382  -6.528  26.030  0.00  0.00    +0.119 HD
ENDBRANCH   1   2
BRANCH   1   5
ATOM      5  CB  PHE A   1       8.776  -3.826  24.470  0.00  0.00    +0.055 C 
BRANCH   5   6
ATOM      6  CG  PHE A   1       7.579  -4.374  23.725  0.00  0.00    -0.046 A 
ATOM      7  CD2 PHE A   1       6.344  -3.714  23.785  0.00  0.00    +0.004 A 
ATOM      8  CE2 PHE A   1       5.232  -4.227  23.112  0.00  0.00    +0.000 A 
ATOM      9  CZ  PHE A   1       5.344  -5.403  22.373  0.00  0.00    +0.000 A 
ATOM     10  CE1 PHE A   1       6.565  -6.070  22.310  0.00  0.00    +0.000 A 
ATOM     11  CD1 PHE A   1       7.677  -5.562  22.985  0.00  0.00    +0.004 A 
ENDBRANCH   5   6
ENDBRANCH   1   5
BRANCH   1  12
ATOM     12  C   PHE A   1       7.741  -4.820  26.588  0.00  0.00    +0.174 C 
BRANCH  12  13
ATOM     13  O   PHE A   1       7.930  -5.924  27.473  0.00  0.00    -0.393 OA
ATOM     14  H   PHE A   1       7.048  -6.288  27.660  0.00  0.00    +0.209 HD
ENDBRANCH  12  13
ENDBRANCH   1  12
TORSDOF 5
ENDMDL
