MODEL 1
REMARK VINA RESULT:     140.5      0.000      0.000
REMARK  Name = 
REMARK  29 active torsions:
REMARK  status: ('A' for Active; 'I' for Inactive)
REMARK    1  A    between atoms: C_1  and  N_2
REMARK    2  A    between atoms: N_2  and  CA_3
REMARK    3  A    between atoms: CA_3  and  CB_5
REMARK    4  A    between atoms: CA_3  and  C_9
REMARK    5  A    between atoms: CB_5  and  CG_6
REMARK    6  A    between atoms: CG_6  and  CD1_7
REMARK    7  A    between atoms: CG_6  and  CD2_8
REMARK    8  A    between atoms: N_11  and  C_12
REMARK    9  A    between atoms: C_14  and  O_16
REMARK   10  A    between atoms: C_23  and  O_24
REMARK   11  A    between atoms: O_24  and  C_25
REMARK   12  A    between atoms: C_28  and  C_30
REMARK   13  A    between atoms: C_30  and  O_31
REMARK   14  A    between atoms: C_32  and  O_34
REMARK   15  A    between atoms: C_35  and  O_37
REMARK   16  A    between atoms: C_38  and  O_40
REMARK   17  A    between atoms: O_40  and  C_41
REMARK   18  A    between atoms: C_44  and  C_45
REMARK   19  A    between atoms: C_44  and  N_46
REMARK   20  A    between atoms: C_47  and  O_49
REMARK   21  A    between atoms: C_50  and  C_52
REMARK   22  A    between atoms: CA_63  and  CB_65
REMARK   23  A    between atoms: CB_65  and  CG_66
REMARK   24  A    between atoms: C_80  and  O_81
REMARK   25  A    between atoms: C_85  and  O_86
REMARK   26  A    between atoms: C_88  and  O_89
REMARK   27  A    between atoms: C_92  and  C_113
REMARK   28  A    between atoms: C_102  and  O_104
REMARK   29  A    between atoms: C_113  and  O_114
REMARK                            x       y       z     vdW  Elec       q    Type
REMARK                         _______ _______ _______ _____ _____    ______ ____
ROOT
ATOM      1  C   UNK A   2       8.557  -7.843  18.917  0.00  0.00    +0.192 C 
ATOM      2  C   UNK A   2       6.726  -6.981  19.416  0.00  0.00    +0.237 C 
ATOM      3  O   UNK A   2       5.837  -7.376  18.590  0.00  0.00    -0.274 OA
ATOM      4  N   ASN A   3       5.736  -5.881  20.541  0.00  0.00    -0.302 N 
ATOM      5  H   ASN A   3       5.089  -5.876  19.751  0.00  0.00    +0.150 HD
ATOM      6  CA  ASN A   3       4.164  -5.027  21.525  0.00  0.00    +0.168 C 
ATOM      7  C   ASN A   3       3.631  -3.614  22.817  0.00  0.00    +0.235 C 
ATOM      8  O   ASN A   3       2.843  -2.735  22.439  0.00  0.00    -0.274 OA
ATOM      9  N   UNK A   4       4.146  -3.616  24.597  0.00  0.00    -0.299 N 
ATOM     10  H   UNK A   4       3.419  -3.124  25.119  0.00  0.00    +0.150 HD
ATOM     11  C   UNK A   4       5.690  -2.740  25.388  0.00  0.00    +0.190 C 
ATOM     12  C   UNK A   4       6.510  -2.388  26.728  0.00  0.00    +0.239 C 
ATOM     13  N   UNK A   5       6.435  -0.973  27.031  0.00  0.00    -0.299 N 
ATOM     14  H   UNK A   5       6.718  -0.414  26.221  0.00  0.00    +0.150 HD
ATOM     15  C   UNK A   5       6.891  -0.347  28.304  0.00  0.00    +0.190 C 
ATOM     16  C   UNK A   5       6.914   1.402  29.164  0.00  0.00    +0.239 C 
ATOM     17  O   UNK A   5       7.992   1.050  28.212  0.00  0.00    -0.273 OA
ATOM     18  N   UNK A   6       5.786   2.798  29.666  0.00  0.00    -0.300 N 
ATOM     19  H   UNK A   6       6.147   2.933  30.602  0.00  0.00    +0.150 HD
ATOM     20  C   UNK A   6       4.938   4.563  29.624  0.00  0.00    +0.192 C 
ATOM     21  C   UNK A   6       3.539   5.565  28.987  0.00  0.00    +0.174 C 
ATOM     22  C   UNK A   6       2.724   4.481  28.215  0.00  0.00    -0.015 A 
ATOM     23  C   UNK A   6       2.881   3.163  28.584  0.00  0.00    +0.010 A 
ATOM     24  C   UNK A   6       3.034   1.669  27.587  0.00  0.00    +0.048 A 
ATOM     25  C   UNK A   6       2.964   0.993  25.926  0.00  0.00    +0.147 A 
ATOM     26  O   UNK A   6       4.167  -0.143  25.036  0.00  0.00    -0.451 OA
ATOM     27  C   UNK A   6       4.614  -1.570  23.876  0.00  0.00    +0.174 A 
ATOM     28  C   UNK A   6       5.619  -0.863  23.472  0.00  0.00    +0.056 A 
ATOM     29  C   UNK A   6       5.627  -3.232  23.124  0.00  0.00    +0.208 A 
ATOM     30  C   UNK A   6       7.092  -3.893  22.935  0.00  0.00    +0.174 A 
ATOM     31  C   UNK A   6       7.727  -3.052  23.761  0.00  0.00    +0.056 A 
ATOM     32  O   UNK A   6       7.529  -5.512  23.377  0.00  0.00    -0.451 OA
ATOM     33  C   UNK A   6       8.644  -6.417  22.828  0.00  0.00    +0.147 A 
ATOM     34  C   UNK A   6       9.177  -7.761  23.311  0.00  0.00    +0.083 A 
ATOM     35  C   UNK A   2       9.752  -8.761  22.432  0.00  0.00    +0.030 A 
ATOM     36  C   UNK A   2      10.025  -8.282  21.189  0.00  0.00    -0.015 A 
ATOM     37  C   UNK A   2      10.116  -6.912  21.005  0.00  0.00    +0.010 A 
ATOM     38 CL   UNK A   6       9.688  -8.126  24.938  0.00  0.00    -0.080 Cl
ATOM     39  C   UNK A   6       9.075  -6.169  21.555  0.00  0.00    +0.048 A 
ATOM     40  C   UNK A   6       2.477   2.720  25.853  0.00  0.00    +0.083 A 
ATOM     41 CL   UNK A   6       0.448   2.740  26.456  0.00  0.00    -0.080 Cl
ATOM     42  C   UNK A   6       2.433   4.295  26.832  0.00  0.00    +0.030 A 
ATOM     43  C   UNK A   6       5.625   5.992  29.598  0.00  0.00    +0.237 C 
ATOM     44  O   UNK A   6       5.466   7.066  29.021  0.00  0.00    -0.274 OA
ATOM     45  N   UNK A   7       6.854   5.770  29.940  0.00  0.00    -0.297 N 
ATOM     46  H   UNK A   7       6.863   5.138  30.749  0.00  0.00    +0.150 HD
ATOM     47  C   UNK A   7       7.243   5.324  28.593  0.00  0.00    +0.213 C 
ATOM     48  C   UNK A   7       6.285   4.824  27.240  0.00  0.00    -0.002 A 
ATOM     49  C   UNK A   7       6.371   3.516  26.706  0.00  0.00    +0.033 A 
ATOM     50  C   UNK A   7       5.737   3.045  25.516  0.00  0.00    +0.128 A 
ATOM     51  C   UNK A   7       4.849   3.825  24.832  0.00  0.00    +0.091 A 
ATOM     52  C   UNK A   7       4.681   5.105  25.324  0.00  0.00    +0.121 A 
ATOM     53  C   UNK A   7       6.809   2.540  27.603  0.00  0.00    +0.028 A 
ATOM     54  C   UNK A   7       8.283   2.816  28.727  0.00  0.00    +0.125 A 
ATOM     55  C   UNK A   7       8.652   1.710  30.128  0.00  0.00    +0.046 A 
ATOM     56  C   UNK A   7       7.631   0.253  30.478  0.00  0.00    +0.009 A 
ATOM     57  C   UNK A   7       5.591   1.187  27.950  0.00  0.00    +0.018 A 
ATOM     58  C   UNK A   7       5.403   5.609  26.463  0.00  0.00    +0.052 A 
ATOM     59  C   UNK A   7       6.092   0.110  29.401  0.00  0.00    -0.018 A 
ATOM     60  O   UNK A   4       7.169  -3.211  27.334  0.00  0.00    -0.273 OA
ATOM     61  C   UNK A   4       6.820  -1.856  24.261  0.00  0.00    -0.011 A 
ATOM     62  C   UNK A   2       9.715  -8.885  19.875  0.00  0.00    +0.174 C 
ENDROOT
BRANCH   1  64
ATOM     63  C   LEU A   1      11.023  -8.480  16.559  0.00  0.00    +0.231 C 
ATOM     64  N   UNK A   2       9.610  -8.618  17.463  0.00  0.00    -0.300 N 
ATOM     65  H   UNK A   2      10.097  -9.294  18.083  0.00  0.00    +0.150 HD
ATOM     66  O   LEU A   1      11.852  -9.362  16.933  0.00  0.00    -0.274 OA
BRANCH  63  67
ATOM     67  CA  LEU A   1      11.616  -7.760  14.895  0.00  0.00    +0.140 C 
BRANCH  67  69
ATOM     68  C   ACE A   0      10.038  -9.643  13.491  0.00  0.00    +0.101 C 
ATOM     69  N   LEU A   1      10.934  -8.451  13.579  0.00  0.00    -0.309 NA
ATOM     70  H   LEU A   1      11.098  -8.003  12.683  0.00  0.00    +0.122 HD
ENDBRANCH  67  69
BRANCH  67  71
ATOM     71  CB  LEU A   1      13.046  -7.516  14.261  0.00  0.00    +0.031 C 
BRANCH  71  72
ATOM     72  CG  LEU A   1      13.567  -8.534  13.264  0.00  0.00    -0.015 C 
ATOM     73  CD2 LEU A   1      13.812  -9.919  13.896  0.00  0.00    +0.007 C 
ATOM     74  CD1 LEU A   1      14.845  -7.973  12.701  0.00  0.00    +0.007 C 
ENDBRANCH  71  72
ENDBRANCH  67  71
ENDBRANCH  63  67
ENDBRANCH   1  64
BRANCH  21  75
ATOM     75  O   UNK A   6       3.219   6.708  30.104  0.00  0.00    -0.385 OA
ATOM     76  H   UNK A   6       2.219   6.736  30.342  0.00  0.00    +0.210 HD
ENDBRANCH  21  75
BRANCH  62  77
ATOM     77  O   UNK A   2       9.771 -10.311  19.657  0.00  0.00    -0.385 OA
ATOM     78  H   UNK A   2      10.682 -10.675  19.628  0.00  0.00    +0.210 HD
ENDBRANCH  62  77
BRANCH  47  79
ATOM     79  C   UNK A   7       8.250   6.345  28.172  0.00  0.00    +0.330 C 
ATOM     80  O   UNK A   7       8.579   6.480  27.005  0.00  0.00    -0.249 OA
BRANCH  79  81
ATOM     81  O   UNK A   7       8.733   7.089  29.204  0.00  0.00    -0.479 OA
ATOM     82  H   UNK A   7       9.697   7.252  29.035  0.00  0.00    +0.295 HD
ENDBRANCH  79  81
ENDBRANCH  47  79
BRANCH  52  83
ATOM     83  O   UNK A   7       3.712   5.901  24.764  0.00  0.00    -0.507 OA
ATOM     84  H   UNK A   7       3.750   6.787  25.172  0.00  0.00    +0.292 HD
ENDBRANCH  52  83
BRANCH  50  85
ATOM     85  O   UNK A   7       5.986   1.802  24.994  0.00  0.00    -0.506 OA
ATOM     86  H   UNK A   7       5.403   1.152  25.418  0.00  0.00    +0.292 HD
ENDBRANCH  50  85
BRANCH  54  87
ATOM     87  O   UNK A   7       9.294   3.677  28.387  0.00  0.00    -0.506 OA
ATOM     88  H   UNK A   7      10.040   3.501  28.994  0.00  0.00    +0.292 HD
ENDBRANCH  54  87
BRANCH  29  89
ATOM     89  O   UNK A   6       5.321  -5.131  23.132  0.00  0.00    -0.453 OA
BRANCH  89  90
ATOM     90  C   UNK A   6       4.259  -6.812  23.291  0.00  0.00    +0.340 C 
ATOM     91  C   UNK A   6       2.897  -7.277  24.538  0.00  0.00    +0.220 C 
ATOM     92  C   UNK A   6       1.662  -8.413  24.861  0.00  0.00    +0.180 C 
ATOM     93  C   UNK A   6       1.170  -9.263  23.785  0.00  0.00    +0.177 C 
ATOM     94  C   UNK A   6       2.450  -9.605  22.927  0.00  0.00    +0.179 C 
ATOM     95  O   UNK A   6       3.567  -8.318  22.408  0.00  0.00    -0.331 OA
BRANCH  92  96
ATOM     96  O   UNK A   6       0.652  -7.995  25.812  0.00  0.00    -0.386 OA
ATOM     97  H   UNK A   6       0.458  -7.042  25.604  0.00  0.00    +0.210 HD
ENDBRANCH  92  96
BRANCH  93  98
ATOM     98  O   UNK A   6       0.474 -10.446  24.431  0.00  0.00    -0.386 OA
ATOM     99  H   UNK A   6       0.999 -11.269  24.519  0.00  0.00    +0.210 HD
ENDBRANCH  93  98
BRANCH  94 100
ATOM    100  C   UNK A   6       1.522 -10.847  22.081  0.00  0.00    +0.190 C 
BRANCH 100 101
ATOM    101  O   UNK A   6       0.446 -10.565  21.220  0.00  0.00    -0.392 OA
ATOM    102  H   UNK A   6       0.020  -9.743  21.547  0.00  0.00    +0.210 HD
ENDBRANCH 100 101
ENDBRANCH  94 100
BRANCH  91 103
ATOM    103  O   UNK A   6       3.509  -7.549  25.772  0.00  0.00    -0.339 OA
BRANCH 103 104
ATOM    104  C   UNK A   6       3.520  -6.421  26.671  0.00  0.00    +0.253 C 
ATOM    105  O   UNK A   6       4.664  -6.491  27.478  0.00  0.00    -0.346 OA
ATOM    106  C   UNK A   6       4.523  -7.518  28.450  0.00  0.00    +0.148 C 
ATOM    107  C   UNK A   6       5.814  -7.472  29.245  0.00  0.00    +0.041 C 
ATOM    108  C   UNK A   6       3.172  -7.292  29.208  0.00  0.00    +0.163 C 
ATOM    109  C   UNK A   6       1.965  -7.305  28.201  0.00  0.00    +0.047 C 
ATOM    110  C   UNK A   6       1.878  -8.675  27.500  0.00  0.00    +0.030 C 
ATOM    111  C   UNK A   6       2.213  -6.142  27.294  0.00  0.00    +0.085 C 
BRANCH 109 112
ATOM    112  N   UNK A   6       0.644  -6.963  28.728  0.00  0.00    -0.323 NA
ATOM    113  H   UNK A   6       0.232  -6.182  28.209  0.00  0.00    +0.119 HD
ATOM    114  H   UNK A   6      -0.003  -7.725  28.464  0.00  0.00    +0.119 HD
ENDBRANCH 109 112
BRANCH 108 115
ATOM    115  O   UNK A   6       3.198  -6.002  29.850  0.00  0.00    -0.387 OA
ATOM    116  H   UNK A   6       2.595  -5.443  29.329  0.00  0.00    +0.210 HD
ENDBRANCH 108 115
ENDBRANCH 103 104
ENDBRANCH  91 103
ENDBRANCH  89  90
ENDBRANCH  29  89
BRANCH   6 117
ATOM    117  CB  ASN A   3       3.036  -5.606  22.954  0.00  0.00    +0.127 C 
BRANCH 117 118
ATOM    118  CG  ASN A   3       1.689  -5.445  23.577  0.00  0.00    +0.213 C 
ATOM    119  OD1 ASN A   3       0.687  -6.036  23.199  0.00  0.00    -0.276 OA
ATOM    120  ND2 ASN A   3       1.808  -4.824  24.764  0.00  0.00    -0.329 N 
ATOM    121 HD21 ASN A   3       0.954  -4.593  25.230  0.00  0.00    +0.145 HD
ATOM    122 HD22 ASN A   3       2.672  -4.345  24.948  0.00  0.00    +0.145 HD
ENDBRANCH 117 118
ENDBRANCH   6 117
TORSDOF 24
ENDMDL
MODEL 2
REMARK VINA RESULT:     140.5      4.669     12.278
REMARK  Name = 
REMARK  29 active torsions:
REMARK  status: ('A' for Active; 'I' for Inactive)
REMARK    1  A    between atoms: C_1  and  N_2
REMARK    2  A    between atoms: N_2  and  CA_3
REMARK    3  A    between atoms: CA_3  and  CB_5
REMARK    4  A    between atoms: CA_3  and  C_9
REMARK    5  A    between atoms: CB_5  and  CG_6
REMARK    6  A    between atoms: CG_6  and  CD1_7
REMARK    7  A    between atoms: CG_6  and  CD2_8
REMARK    8  A    between atoms: N_11  and  C_12
REMARK    9  A    between atoms: C_14  and  O_16
REMARK   10  A    between atoms: C_23  and  O_24
REMARK   11  A    between atoms: O_24  and  C_25
REMARK   12  A    between atoms: C_28  and  C_30
REMARK   13  A    between atoms: C_30  and  O_31
REMARK   14  A    between atoms: C_32  and  O_34
REMARK   15  A    between atoms: C_35  and  O_37
REMARK   16  A    between atoms: C_38  and  O_40
REMARK   17  A    between atoms: O_40  and  C_41
REMARK   18  A    between atoms: C_44  and  C_45
REMARK   19  A    between atoms: C_44  and  N_46
REMARK   20  A    between atoms: C_47  and  O_49
REMARK   21  A    between atoms: C_50  and  C_52
REMARK   22  A    between atoms: CA_63  and  CB_65
REMARK   23  A    between atoms: CB_65  and  CG_66
REMARK   24  A    between atoms: C_80  and  O_81
REMARK   25  A    between atoms: C_85  and  O_86
REMARK   26  A    between atoms: C_88  and  O_89
REMARK   27  A    between atoms: C_92  and  C_113
REMARK   28  A    between atoms: C_102  and  O_104
REMARK   29  A    between atoms: C_113  and  O_114
REMARK                            x       y       z     vdW  Elec       q    Type
REMARK                         _______ _______ _______ _____ _____    ______ ____
ROOT
ATOM      1  C   UNK A   2      13.384   3.313  23.229  0.00  0.00    +0.192 C 
ATOM      2  C   UNK A   2      13.038   2.016  24.825  0.00  0.00    +0.237 C 
ATOM      3  O   UNK A   2      14.058   2.015  25.593  0.00  0.00    -0.274 OA
ATOM      4  N   ASN A   3      11.905   0.828  25.696  0.00  0.00    -0.302 N 
ATOM      5  H   ASN A   3      12.775   0.526  26.138  0.00  0.00    +0.150 HD
ATOM      6  CA  ASN A   3      11.049  -0.319  27.152  0.00  0.00    +0.168 C 
ATOM      7  C   ASN A   3       9.620  -1.645  27.545  0.00  0.00    +0.235 C 
ATOM      8  O   ASN A   3       9.952  -2.761  27.970  0.00  0.00    -0.274 OA
ATOM      9  N   UNK A   4       7.812  -1.255  27.435  0.00  0.00    -0.299 N 
ATOM     10  H   UNK A   4       7.334  -1.869  28.097  0.00  0.00    +0.150 HD
ATOM     11  C   UNK A   4       6.631  -1.517  25.915  0.00  0.00    +0.190 C 
ATOM     12  C   UNK A   4       5.134  -1.427  25.332  0.00  0.00    +0.239 C 
ATOM     13  N   UNK A   5       4.588  -2.747  25.086  0.00  0.00    -0.299 N 
ATOM     14  H   UNK A   5       5.222  -3.298  24.500  0.00  0.00    +0.150 HD
ATOM     15  C   UNK A   5       3.163  -3.035  24.757  0.00  0.00    +0.190 C 
ATOM     16  C   UNK A   5       2.000  -4.568  24.446  0.00  0.00    +0.239 C 
ATOM     17  O   UNK A   5       2.812  -4.038  23.328  0.00  0.00    -0.273 OA
ATOM     18  N   UNK A   6       1.438  -6.159  25.238  0.00  0.00    -0.300 N 
ATOM     19  H   UNK A   6       0.447  -6.056  25.059  0.00  0.00    +0.150 HD
ATOM     20  C   UNK A   6       1.287  -8.086  25.552  0.00  0.00    +0.192 C 
ATOM     21  C   UNK A   6       1.946  -9.535  26.464  0.00  0.00    +0.174 C 
ATOM     22  C   UNK A   6       3.029  -8.856  27.359  0.00  0.00    -0.015 A 
ATOM     23  C   UNK A   6       2.892  -7.515  27.644  0.00  0.00    +0.010 A 
ATOM     24  C   UNK A   6       4.112  -6.189  27.691  0.00  0.00    +0.048 A 
ATOM     25  C   UNK A   6       5.858  -5.790  27.589  0.00  0.00    +0.147 A 
ATOM     26  O   UNK A   6       6.736  -4.472  26.576  0.00  0.00    -0.451 OA
ATOM     27  C   UNK A   6       8.053  -3.143  26.295  0.00  0.00    +0.174 A 
ATOM     28  C   UNK A   6       8.148  -3.564  25.076  0.00  0.00    +0.056 A 
ATOM     29  C   UNK A   6       8.927  -1.368  25.631  0.00  0.00    +0.208 A 
ATOM     30  C   UNK A   6       8.994  -0.330  24.391  0.00  0.00    +0.174 A 
ATOM     31  C   UNK A   6       7.932  -0.826  23.742  0.00  0.00    +0.056 A 
ATOM     32  O   UNK A   6       8.795   1.389  24.508  0.00  0.00    -0.451 OA
ATOM     33  C   UNK A   6       9.314   2.505  23.587  0.00  0.00    +0.147 A 
ATOM     34  C   UNK A   6       9.010   3.999  23.548  0.00  0.00    +0.083 A 
ATOM     35  C   UNK A   2       9.954   5.001  23.091  0.00  0.00    +0.030 A 
ATOM     36  C   UNK A   2      11.025   4.465  22.445  0.00  0.00    -0.015 A 
ATOM     37  C   UNK A   2      10.933   3.174  21.953  0.00  0.00    +0.010 A 
ATOM     38 CL   UNK A   6       7.419   4.711  23.508  0.00  0.00    -0.080 Cl
ATOM     39  C   UNK A   6      10.431   2.233  22.848  0.00  0.00    +0.048 A 
ATOM     40  C   UNK A   6       5.686  -7.577  27.568  0.00  0.00    +0.083 A 
ATOM     41 CL   UNK A   6       5.429  -8.123  29.597  0.00  0.00    -0.080 Cl
ATOM     42  C   UNK A   6       4.451  -8.950  27.392  0.00  0.00    +0.030 A 
ATOM     43  C   UNK A   6       0.934  -9.235  24.517  0.00  0.00    +0.237 C 
ATOM     44  O   UNK A   6       1.319 -10.373  24.257  0.00  0.00    -0.274 OA
ATOM     45  N   UNK A   7       0.443  -8.612  23.494  0.00  0.00    -0.297 N 
ATOM     46  H   UNK A   7      -0.224  -7.906  23.825  0.00  0.00    +0.150 HD
ATOM     47  C   UNK A   7       1.768  -8.251  22.964  0.00  0.00    +0.213 C 
ATOM     48  C   UNK A   7       3.328  -8.243  23.715  0.00  0.00    -0.002 A 
ATOM     49  C   UNK A   7       4.076  -7.052  23.873  0.00  0.00    +0.033 A 
ATOM     50  C   UNK A   7       5.420  -6.953  24.345  0.00  0.00    +0.128 A 
ATOM     51  C   UNK A   7       6.082  -8.046  24.827  0.00  0.00    +0.091 A 
ATOM     52  C   UNK A   7       5.394  -9.241  24.745  0.00  0.00    +0.121 A 
ATOM     53  C   UNK A   7       3.318  -5.880  23.911  0.00  0.00    +0.028 A 
ATOM     54  C   UNK A   7       1.936  -5.552  22.688  0.00  0.00    +0.125 A 
ATOM     55  C   UNK A   7       0.725  -4.212  22.933  0.00  0.00    +0.046 A 
ATOM     56  C   UNK A   7       0.825  -3.095  24.357  0.00  0.00    +0.009 A 
ATOM     57  C   UNK A   7       3.433  -4.920  25.493  0.00  0.00    +0.018 A 
ATOM     58  C   UNK A   7       4.079  -9.351  24.170  0.00  0.00    +0.052 A 
ATOM     59  C   UNK A   7       2.146  -3.562  25.616  0.00  0.00    -0.018 A 
ATOM     60  O   UNK A   4       4.592  -0.373  25.060  0.00  0.00    -0.273 OA
ATOM     61  C   UNK A   4       7.373  -2.163  24.379  0.00  0.00    -0.011 A 
ATOM     62  C   UNK A   2      12.461   4.770  22.622  0.00  0.00    +0.174 C 
ENDROOT
BRANCH   1  64
ATOM     63  C   LEU A   1      15.263   4.521  20.573  0.00  0.00    +0.231 C 
ATOM     64  N   UNK A   2      14.765   4.169  22.142  0.00  0.00    -0.300 N 
ATOM     65  H   UNK A   2      14.319   5.106  22.189  0.00  0.00    +0.150 HD
ATOM     66  O   LEU A   1      15.042   5.744  20.325  0.00  0.00    -0.274 OA
BRANCH  63  67
ATOM     67  CA  LEU A   1      16.434   3.834  19.235  0.00  0.00    +0.140 C 
BRANCH  67  69
ATOM     68  C   ACE A   0      14.784   4.306  16.985  0.00  0.00    +0.101 C 
ATOM     69  N   LEU A   1      16.087   4.329  17.714  0.00  0.00    -0.309 NA
ATOM     70  H   LEU A   1      16.841   4.749  17.181  0.00  0.00    +0.122 HD
ENDBRANCH  67  69
BRANCH  67  71
ATOM     71  CB  LEU A   1      16.915   2.375  18.853  0.00  0.00    +0.031 C 
BRANCH  71  72
ATOM     72  CG  LEU A   1      17.609   1.551  19.922  0.00  0.00    -0.015 C 
ATOM     73  CD2 LEU A   1      17.803   2.324  21.241  0.00  0.00    +0.007 C 
ATOM     74  CD1 LEU A   1      18.938   1.132  19.350  0.00  0.00    +0.007 C 
ENDBRANCH  71  72
ENDBRANCH  67  71
ENDBRANCH  63  67
ENDBRANCH   1  64
BRANCH  21  75
ATOM     75  O   UNK A   6       0.703 -10.565  26.694  0.00  0.00    -0.385 OA
ATOM     76  H   UNK A   6       0.677 -11.295  25.971  0.00  0.00    +0.210 HD
ENDBRANCH  21  75
BRANCH  62  77
ATOM     77  O   UNK A   2      12.929   6.106  22.906  0.00  0.00    -0.385 OA
ATOM     78  H   UNK A   2      12.487   6.529  23.674  0.00  0.00    +0.210 HD
ENDBRANCH  62  77
BRANCH  47  79
ATOM     79  C   UNK A   7       1.821  -8.970  21.655  0.00  0.00    +0.330 C 
ATOM     80  O   UNK A   7       2.375 -10.050  21.537  0.00  0.00    -0.249 OA
BRANCH  79  81
ATOM     81  O   UNK A   7       1.192  -8.308  20.646  0.00  0.00    -0.479 OA
ATOM     82  H   UNK A   7       1.872  -7.765  20.169  0.00  0.00    +0.295 HD
ENDBRANCH  79  81
ENDBRANCH  47  79
BRANCH  52  83
ATOM     83  O   UNK A   7       5.946 -10.356  25.325  0.00  0.00    -0.507 OA
ATOM     84  H   UNK A   7       5.288 -10.771  25.914  0.00  0.00    +0.292 HD
ENDBRANCH  52  83
BRANCH  50  85
ATOM     85  O   UNK A   7       6.116  -5.773  24.335  0.00  0.00    -0.506 OA
ATOM     86  H   UNK A   7       6.390  -5.566  23.427  0.00  0.00    +0.292 HD
ENDBRANCH  50  85
BRANCH  54  87
ATOM     87  O   UNK A   7       1.940  -6.108  21.435  0.00  0.00    -0.506 OA
ATOM     88  H   UNK A   7       2.875  -6.219  21.171  0.00  0.00    +0.292 HD
ENDBRANCH  54  87
BRANCH  29  89
ATOM     89  O   UNK A   6       9.323   0.336  26.430  0.00  0.00    -0.453 OA
BRANCH  89  90
ATOM     90  C   UNK A   6       8.964   2.207  27.019  0.00  0.00    +0.340 C 
ATOM     91  C   UNK A   6       7.694   2.866  28.275  0.00  0.00    +0.220 C 
ATOM     92  C   UNK A   6       7.248   4.243  29.183  0.00  0.00    +0.180 C 
ATOM     93  C   UNK A   6       8.211   5.318  29.374  0.00  0.00    +0.177 C 
ATOM     94  C   UNK A   6       8.991   5.406  28.005  0.00  0.00    +0.179 C 
ATOM     95  O   UNK A   6       9.654   3.940  27.240  0.00  0.00    -0.331 OA
BRANCH  92  96
ATOM     96  O   UNK A   6       6.380   3.998  30.318  0.00  0.00    -0.386 OA
ATOM     97  H   UNK A   6       5.454   3.998  29.958  0.00  0.00    +0.210 HD
ENDBRANCH  92  96
BRANCH  93  98
ATOM     98  O   UNK A   6       7.429   6.557  29.768  0.00  0.00    -0.386 OA
ATOM     99  H   UNK A   6       7.816   7.419  29.512  0.00  0.00    +0.210 HD
ENDBRANCH  93  98
BRANCH  94 100
ATOM    100  C   UNK A   6       9.684   6.946  28.526  0.00  0.00    +0.190 C 
BRANCH 100 101
ATOM    101  O   UNK A   6      10.417   7.108  29.715  0.00  0.00    -0.392 OA
ATOM    102  H   UNK A   6      10.034   7.877  30.189  0.00  0.00    +0.210 HD
ENDBRANCH 100 101
ENDBRANCH  94 100
BRANCH  91 103
ATOM    103  O   UNK A   6       6.422   2.810  27.681  0.00  0.00    -0.339 OA
BRANCH 103 104
ATOM    104  C   UNK A   6       5.698   4.056  27.754  0.00  0.00    +0.253 C 
ATOM    105  O   UNK A   6       5.051   4.136  28.995  0.00  0.00    -0.346 OA
ATOM    106  C   UNK A   6       3.936   3.255  29.030  0.00  0.00    +0.148 C 
ATOM    107  C   UNK A   6       3.336   3.451  30.409  0.00  0.00    +0.041 C 
ATOM    108  C   UNK A   6       3.041   3.548  27.778  0.00  0.00    +0.163 C 
ATOM    109  C   UNK A   6       3.865   3.356  26.453  0.00  0.00    +0.047 C 
ATOM    110  C   UNK A   6       4.352   1.898  26.342  0.00  0.00    +0.030 C 
ATOM    111  C   UNK A   6       4.949   4.384  26.527  0.00  0.00    +0.085 C 
BRANCH 109 112
ATOM    112  N   UNK A   6       3.217   3.732  25.197  0.00  0.00    -0.323 NA
ATOM    113  H   UNK A   6       2.248   4.023  25.356  0.00  0.00    +0.119 HD
ATOM    114  H   UNK A   6       3.633   4.627  24.889  0.00  0.00    +0.119 HD
ENDBRANCH 109 112
BRANCH 108 115
ATOM    115  O   UNK A   6       2.593   4.917  27.826  0.00  0.00    -0.387 OA
ATOM    116  H   UNK A   6       3.404   5.451  27.905  0.00  0.00    +0.210 HD
ENDBRANCH 108 115
ENDBRANCH 103 104
ENDBRANCH  91 103
ENDBRANCH  89  90
ENDBRANCH  29  89
BRANCH   6 117
ATOM    117  CB  ASN A   3       9.957   0.078  28.668  0.00  0.00    +0.127 C 
BRANCH 117 118
ATOM    118  CG  ASN A   3       8.553   0.270  29.134  0.00  0.00    +0.213 C 
ATOM    119  OD1 ASN A   3       8.091   1.348  29.482  0.00  0.00    -0.276 OA
ATOM    120  ND2 ASN A   3       7.817  -0.812  28.823  0.00  0.00    -0.329 N 
ATOM    121 HD21 ASN A   3       6.877  -0.820  29.164  0.00  0.00    +0.145 HD
ATOM    122 HD22 ASN A   3       8.314  -1.652  28.581  0.00  0.00    +0.145 HD
ENDBRANCH 117 118
ENDBRANCH   6 117
TORSDOF 24
ENDMDL
