MODEL 1
REMARK VINA RESULT:      -7.0      0.000      0.000
REMARK  Name = 
REMARK  23 active torsions:
REMARK  status: ('A' for Active; 'I' for Inactive)
REMARK    1  A    between atoms: C_1  and  C_2
REMARK    2  A    between atoms: C_2  and  C_3
REMARK    3  A    between atoms: C_2  and  C_4
REMARK    4  A    between atoms: C_2  and  O_5
REMARK    5  A    between atoms: O_5  and  C_6
REMARK    6  A    between atoms: N_8  and  C_9
REMARK    7  A    between atoms: C_9  and  C_11
REMARK    8  A    between atoms: C_9  and  C_18
REMARK    9  A    between atoms: C_11  and  C_12
REMARK   10  A    between atoms: C_18  and  C_20
REMARK   11  A    between atoms: C_20  and  C_21
REMARK   12  A    between atoms: C_21  and  C_23
REMARK   13  A    between atoms: C_21  and  C_30
REMARK   14  A    between atoms: C_23  and  C_24
REMARK   15  A    between atoms: N_32  and  C_33
REMARK   16  A    between atoms: C_33  and  C_35
REMARK   17  A    between atoms: C_33  and  C_40
REMARK   18  A    between atoms: C_35  and  C_36
REMARK   19  A    between atoms: C_36  and  C_37
REMARK   20  A    between atoms: N_42  and  C_43
REMARK   21  A    between atoms: C_43  and  C_45
REMARK   22  A    between atoms: C_43  and  C_52
REMARK   23  A    between atoms: C_45  and  C_46
REMARK                            x       y       z     vdW  Elec       q    Type
REMARK                         _______ _______ _______ _____ _____    ______ ____
ROOT
ATOM      1  C   UNL     1       5.046   0.204  25.999  0.00  0.00    +0.217 C 
ATOM      2  N   UNL     1       6.224   0.921  26.037  0.00  0.00    -0.304 N 
ATOM      3  H   UNL     1       7.108   0.429  26.005  0.00  0.00    +0.149 HD
ATOM      4  O   UNL     1       3.943   0.741  25.987  0.00  0.00    -0.275 OA
ENDROOT
BRANCH   2   5
ATOM      5  C   UNL     1       6.313   2.401  25.824  0.00  0.00    +0.159 C 
BRANCH   5   6
ATOM      6  C   UNL     1       7.159   2.774  24.576  0.00  0.00    +0.234 C 
ATOM      7  N   UNL     1       8.414   3.278  24.821  0.00  0.00    -0.302 N 
ATOM      8  H   UNL     1       8.593   3.620  25.758  0.00  0.00    +0.150 HD
ATOM      9  O   UNL     1       6.762   2.575  23.431  0.00  0.00    -0.274 OA
BRANCH   7  10
ATOM     10  C   UNL     1       9.288   3.770  23.736  0.00  0.00    +0.163 C 
BRANCH  10  11
ATOM     11  C   UNL     1       9.659   5.201  24.157  0.00  0.00    +0.231 C 
ATOM     12  O   UNL     1       9.231   5.758  25.164  0.00  0.00    -0.274 OA
ATOM     13  N   UNL     1      10.328   5.934  23.215  0.00  0.00    -0.328 N 
ATOM     14  H   UNL     1      10.627   6.862  23.489  0.00  0.00    +0.145 HD
ATOM     15  H   UNL     1      10.789   5.506  22.421  0.00  0.00    +0.145 HD
ENDBRANCH  10  11
BRANCH  10  16
ATOM     16  C   UNL     1      10.549   2.907  23.536  0.00  0.00    +0.067 C 
BRANCH  16  17
ATOM     17  C   UNL     1      10.294   1.526  22.963  0.00  0.00    -0.045 A 
ATOM     18  C   UNL     1       9.631   1.359  21.739  0.00  0.00    +0.004 A 
ATOM     19  C   UNL     1       9.337   0.078  21.260  0.00  0.00    +0.000 A 
ATOM     20  C   UNL     1       9.715  -1.049  21.989  0.00  0.00    +0.000 A 
ATOM     21  C   UNL     1      10.395  -0.895  23.195  0.00  0.00    +0.000 A 
ATOM     22  C   UNL     1      10.680   0.382  23.678  0.00  0.00    +0.004 A 
ENDBRANCH  16  17
ENDBRANCH  10  16
ENDBRANCH   7  10
ENDBRANCH   5   6
BRANCH   5  23
ATOM     23  C   UNL     1       6.797   3.163  27.068  0.00  0.00    +0.041 C 
BRANCH  23  24
ATOM     24  C   UNL     1       6.247   2.800  28.433  0.00  0.00    +0.098 C 
BRANCH  24  25
ATOM     25  C   UNL     1       7.335   2.365  29.400  0.00  0.00    +0.211 C 
ATOM     26  O   UNL     1       7.809   3.131  30.231  0.00  0.00    -0.276 OA
ATOM     27  N   UNL     1       7.858   1.110  29.269  0.00  0.00    -0.329 N 
ATOM     28  H   UNL     1       8.559   0.842  29.949  0.00  0.00    +0.145 HD
ATOM     29  H   UNL     1       7.363   0.345  28.827  0.00  0.00    +0.145 HD
ENDBRANCH  24  25
ENDBRANCH  23  24
ENDBRANCH   5  23
ENDBRANCH   2   5
BRANCH   1  30
ATOM     30  C   UNL     1       5.116  -1.317  26.052  0.00  0.00    +0.086 C 
BRANCH  30  31
ATOM     31  C   UNL     1       3.759  -1.910  26.514  0.00  0.00    +0.048 C 
BRANCH  31  32
ATOM     32  C   UNL     1       3.166  -2.952  25.595  0.00  0.00    -0.047 A 
ATOM     33  C   UNL     1       3.972  -3.681  24.709  0.00  0.00    +0.003 A 
ATOM     34  C   UNL     1       3.422  -4.695  23.921  0.00  0.00    +0.000 A 
ATOM     35  C   UNL     1       2.057  -4.967  23.982  0.00  0.00    +0.000 A 
ATOM     36  C   UNL     1       1.234  -4.199  24.802  0.00  0.00    +0.000 A 
ATOM     37  C   UNL     1       1.784  -3.192  25.599  0.00  0.00    +0.003 A 
ENDBRANCH  31  32
ENDBRANCH  30  31
BRANCH  30  38
ATOM     38  C   UNL     1       6.269  -1.683  27.035  0.00  0.00    +0.089 C 
BRANCH  38  39
ATOM     39  C   UNL     1       7.627  -2.102  26.398  0.00  0.00    +0.155 C 
ATOM     40  O   UNL     1       8.472  -1.243  26.123  0.00  0.00    -0.295 OA
BRANCH  39  41
ATOM     41  C   UNL     1       7.955  -3.613  26.289  0.00  0.00    +0.147 C 
BRANCH  41  43
ATOM     42  C   UNL     1       6.565  -5.513  27.180  0.00  0.00    +0.401 C 
ATOM     43  N   UNL     1       6.756  -4.475  26.315  0.00  0.00    -0.271 N 
ATOM     44  H   UNL     1       5.936  -4.205  25.789  0.00  0.00    +0.153 HD
ATOM     45  O   UNL     1       7.398  -5.891  27.997  0.00  0.00    -0.226 OA
BRANCH  42  46
ATOM     46  O   UNL     1       5.339  -6.075  26.985  0.00  0.00    -0.445 OA
BRANCH  46  48
ATOM     47  C   UNL     1       4.192  -4.660  28.653  0.00  0.00    +0.055 C 
ATOM     48  C   UNL     1       4.296  -6.050  28.013  0.00  0.00    +0.107 C 
ATOM     49  C   UNL     1       2.959  -6.335  27.297  0.00  0.00    +0.055 C 
ATOM     50  C   UNL     1       4.491  -7.142  29.075  0.00  0.00    +0.055 C 
ENDBRANCH  46  48
ENDBRANCH  42  46
ENDBRANCH  41  43
BRANCH  41  51
ATOM     51  C   UNL     1       8.705  -3.748  24.955  0.00  0.00    +0.065 C 
BRANCH  51  52
ATOM     52  C   UNL     1       7.894  -4.016  23.725  0.00  0.00    -0.045 A 
ATOM     53  C   UNL     1       7.189  -2.989  23.087  0.00  0.00    +0.004 A 
ATOM     54  C   UNL     1       6.332  -3.287  22.031  0.00  0.00    +0.000 A 
ATOM     55  C   UNL     1       6.172  -4.606  21.609  0.00  0.00    +0.000 A 
ATOM     56  C   UNL     1       6.877  -5.631  22.236  0.00  0.00    +0.000 A 
ATOM     57  C   UNL     1       7.734  -5.338  23.291  0.00  0.00    +0.004 A 
ENDBRANCH  51  52
ENDBRANCH  41  51
ENDBRANCH  39  41
ENDBRANCH  38  39
ENDBRANCH  30  38
ENDBRANCH   1  30
TORSDOF 20
ENDMDL
MODEL 2
REMARK VINA RESULT:      -6.9      2.454      7.741
REMARK  Name = 
REMARK  23 active torsions:
REMARK  status: ('A' for Active; 'I' for Inactive)
REMARK    1  A    between atoms: C_1  and  C_2
REMARK    2  A    between atoms: C_2  and  C_3
REMARK    3  A    between atoms: C_2  and  C_4
REMARK    4  A    between atoms: C_2  and  O_5
REMARK    5  A    between atoms: O_5  and  C_6
REMARK    6  A    between atoms: N_8  and  C_9
REMARK    7  A    between atoms: C_9  and  C_11
REMARK    8  A    between atoms: C_9  and  C_18
REMARK    9  A    between atoms: C_11  and  C_12
REMARK   10  A    between atoms: C_18  and  C_20
REMARK   11  A    between atoms: C_20  and  C_21
REMARK   12  A    between atoms: C_21  and  C_23
REMARK   13  A    between atoms: C_21  and  C_30
REMARK   14  A    between atoms: C_23  and  C_24
REMARK   15  A    between atoms: N_32  and  C_33
REMARK   16  A    between atoms: C_33  and  C_35
REMARK   17  A    between atoms: C_33  and  C_40
REMARK   18  A    between atoms: C_35  and  C_36
REMARK   19  A    between atoms: C_36  and  C_37
REMARK   20  A    between atoms: N_42  and  C_43
REMARK   21  A    between atoms: C_43  and  C_45
REMARK   22  A    between atoms: C_43  and  C_52
REMARK   23  A    between atoms: C_45  and  C_46
REMARK                            x       y       z     vdW  Elec       q    Type
REMARK                         _______ _______ _______ _____ _____    ______ ____
ROOT
ATOM      1  C   UNL     1       7.890  -3.913  25.780  0.00  0.00    +0.217 C 
ATOM      2  N   UNL     1       7.078  -4.093  26.880  0.00  0.00    -0.304 N 
ATOM      3  H   UNL     1       6.655  -3.288  27.325  0.00  0.00    +0.149 HD
ATOM      4  O   UNL     1       8.394  -4.848  25.166  0.00  0.00    -0.275 OA
ENDROOT
BRANCH   2   5
ATOM      5  C   UNL     1       6.521  -5.417  27.304  0.00  0.00    +0.159 C 
BRANCH   5   6
ATOM      6  C   UNL     1       5.319  -5.867  26.430  0.00  0.00    +0.234 C 
ATOM      7  N   UNL     1       4.497  -4.868  25.968  0.00  0.00    -0.302 N 
ATOM      8  H   UNL     1       4.563  -3.970  26.434  0.00  0.00    +0.150 HD
ATOM      9  O   UNL     1       5.140  -7.041  26.114  0.00  0.00    -0.274 OA
BRANCH   7  10
ATOM     10  C   UNL     1       3.259  -5.155  25.212  0.00  0.00    +0.163 C 
BRANCH  10  11
ATOM     11  C   UNL     1       2.135  -4.548  26.066  0.00  0.00    +0.231 C 
ATOM     12  O   UNL     1       0.937  -4.748  25.876  0.00  0.00    -0.274 OA
ATOM     13  N   UNL     1       2.523  -3.563  26.933  0.00  0.00    -0.328 N 
ATOM     14  H   UNL     1       1.808  -3.185  27.542  0.00  0.00    +0.145 HD
ATOM     15  H   UNL     1       3.490  -3.429  27.203  0.00  0.00    +0.145 HD
ENDBRANCH  10  11
BRANCH  10  16
ATOM     16  C   UNL     1       3.263  -4.555  23.794  0.00  0.00    +0.067 C 
BRANCH  16  17
ATOM     17  C   UNL     1       4.583  -4.665  23.055  0.00  0.00    -0.045 A 
ATOM     18  C   UNL     1       5.111  -5.912  22.694  0.00  0.00    +0.004 A 
ATOM     19  C   UNL     1       6.366  -6.001  22.081  0.00  0.00    +0.000 A 
ATOM     20  C   UNL     1       7.099  -4.847  21.809  0.00  0.00    +0.000 A 
ATOM     21  C   UNL     1       6.574  -3.601  22.143  0.00  0.00    +0.000 A 
ATOM     22  C   UNL     1       5.326  -3.511  22.762  0.00  0.00    +0.004 A 
ENDBRANCH  16  17
ENDBRANCH  10  16
ENDBRANCH   7  10
ENDBRANCH   5   6
BRANCH   5  23
ATOM     23  C   UNL     1       6.171  -5.475  28.799  0.00  0.00    +0.041 C 
BRANCH  23  24
ATOM     24  C   UNL     1       4.898  -4.821  29.299  0.00  0.00    +0.098 C 
BRANCH  24  25
ATOM     25  C   UNL     1       3.772  -5.819  29.503  0.00  0.00    +0.211 C 
ATOM     26  O   UNL     1       2.594  -5.494  29.420  0.00  0.00    -0.276 OA
ATOM     27  N   UNL     1       4.091  -7.093  29.883  0.00  0.00    -0.329 N 
ATOM     28  H   UNL     1       3.318  -7.739  29.980  0.00  0.00    +0.145 HD
ATOM     29  H   UNL     1       4.996  -7.514  29.707  0.00  0.00    +0.145 HD
ENDBRANCH  24  25
ENDBRANCH  23  24
ENDBRANCH   5  23
ENDBRANCH   2   5
BRANCH   1  30
ATOM     30  C   UNL     1       8.239  -2.491  25.355  0.00  0.00    +0.086 C 
BRANCH  30  31
ATOM     31  C   UNL     1       9.375  -2.500  24.300  0.00  0.00    +0.048 C 
BRANCH  31  32
ATOM     32  C   UNL     1       9.574  -1.199  23.557  0.00  0.00    -0.047 A 
ATOM     33  C   UNL     1      10.248  -0.122  24.148  0.00  0.00    +0.003 A 
ATOM     34  C   UNL     1      10.492   1.047  23.423  0.00  0.00    +0.000 A 
ATOM     35  C   UNL     1      10.033   1.166  22.113  0.00  0.00    +0.000 A 
ATOM     36  C   UNL     1       9.295   0.133  21.541  0.00  0.00    +0.000 A 
ATOM     37  C   UNL     1       9.061  -1.041  22.261  0.00  0.00    +0.003 A 
ENDBRANCH  31  32
ENDBRANCH  30  31
BRANCH  30  38
ATOM     38  C   UNL     1       8.657  -1.724  26.646  0.00  0.00    +0.089 C 
BRANCH  38  39
ATOM     39  C   UNL     1       7.793  -0.490  27.040  0.00  0.00    +0.155 C 
ATOM     40  O   UNL     1       7.934   0.034  28.150  0.00  0.00    -0.295 OA
BRANCH  39  41
ATOM     41  C   UNL     1       6.898   0.161  25.955  0.00  0.00    +0.147 C 
BRANCH  41  43
ATOM     42  C   UNL     1       4.630  -0.859  26.345  0.00  0.00    +0.401 C 
ATOM     43  N   UNL     1       5.470   0.216  26.331  0.00  0.00    -0.271 N 
ATOM     44  H   UNL     1       5.102   1.048  26.772  0.00  0.00    +0.153 HD
ATOM     45  O   UNL     1       4.948  -1.987  25.983  0.00  0.00    -0.226 OA
BRANCH  42  46
ATOM     46  O   UNL     1       3.394  -0.491  26.787  0.00  0.00    -0.445 OA
BRANCH  46  48
ATOM     47  C   UNL     1       3.362   1.332  28.453  0.00  0.00    +0.055 C 
ATOM     48  C   UNL     1       3.135  -0.161  28.191  0.00  0.00    +0.107 C 
ATOM     49  C   UNL     1       1.643  -0.460  28.449  0.00  0.00    +0.055 C 
ATOM     50  C   UNL     1       3.951  -1.030  29.160  0.00  0.00    +0.055 C 
ENDBRANCH  46  48
ENDBRANCH  42  46
ENDBRANCH  41  43
BRANCH  41  51
ATOM     51  C   UNL     1       7.477   1.573  25.775  0.00  0.00    +0.065 C 
BRANCH  51  52
ATOM     52  C   UNL     1       7.239   2.262  24.467  0.00  0.00    -0.045 A 
ATOM     53  C   UNL     1       6.516   1.639  23.444  0.00  0.00    +0.004 A 
ATOM     54  C   UNL     1       6.428   2.238  22.190  0.00  0.00    +0.000 A 
ATOM     55  C   UNL     1       7.060   3.459  21.952  0.00  0.00    +0.000 A 
ATOM     56  C   UNL     1       7.774   4.087  22.969  0.00  0.00    +0.000 A 
ATOM     57  C   UNL     1       7.865   3.491  24.222  0.00  0.00    +0.004 A 
ENDBRANCH  51  52
ENDBRANCH  41  51
ENDBRANCH  39  41
ENDBRANCH  38  39
ENDBRANCH  30  38
ENDBRANCH   1  30
TORSDOF 20
ENDMDL
MODEL 3
REMARK VINA RESULT:      -6.5      2.186      4.074
REMARK  Name = 
REMARK  23 active torsions:
REMARK  status: ('A' for Active; 'I' for Inactive)
REMARK    1  A    between atoms: C_1  and  C_2
REMARK    2  A    between atoms: C_2  and  C_3
REMARK    3  A    between atoms: C_2  and  C_4
REMARK    4  A    between atoms: C_2  and  O_5
REMARK    5  A    between atoms: O_5  and  C_6
REMARK    6  A    between atoms: N_8  and  C_9
REMARK    7  A    between atoms: C_9  and  C_11
REMARK    8  A    between atoms: C_9  and  C_18
REMARK    9  A    between atoms: C_11  and  C_12
REMARK   10  A    between atoms: C_18  and  C_20
REMARK   11  A    between atoms: C_20  and  C_21
REMARK   12  A    between atoms: C_21  and  C_23
REMARK   13  A    between atoms: C_21  and  C_30
REMARK   14  A    between atoms: C_23  and  C_24
REMARK   15  A    between atoms: N_32  and  C_33
REMARK   16  A    between atoms: C_33  and  C_35
REMARK   17  A    between atoms: C_33  and  C_40
REMARK   18  A    between atoms: C_35  and  C_36
REMARK   19  A    between atoms: C_36  and  C_37
REMARK   20  A    between atoms: N_42  and  C_43
REMARK   21  A    between atoms: C_43  and  C_45
REMARK   22  A    between atoms: C_43  and  C_52
REMARK   23  A    between atoms: C_45  and  C_46
REMARK                            x       y       z     vdW  Elec       q    Type
REMARK                         _______ _______ _______ _____ _____    ______ ____
ROOT
ATOM      1  C   UNL     1       6.216  -0.717  25.629  0.00  0.00    +0.217 C 
ATOM      2  N   UNL     1       7.309  -0.424  24.840  0.00  0.00    -0.304 N 
ATOM      3  H   UNL     1       7.691  -1.137  24.232  0.00  0.00    +0.149 HD
ATOM      4  O   UNL     1       5.676   0.114  26.351  0.00  0.00    -0.275 OA
ENDROOT
BRANCH   2   5
ATOM      5  C   UNL     1       7.808   0.965  24.581  0.00  0.00    +0.159 C 
BRANCH   5   6
ATOM      6  C   UNL     1       7.030   1.676  23.441  0.00  0.00    +0.234 C 
ATOM      7  N   UNL     1       6.419   2.862  23.769  0.00  0.00    -0.302 N 
ATOM      8  H   UNL     1       6.286   3.048  24.757  0.00  0.00    +0.150 HD
ATOM      9  O   UNL     1       7.008   1.242  22.292  0.00  0.00    -0.274 OA
BRANCH   7  10
ATOM     10  C   UNL     1       5.561   3.595  22.815  0.00  0.00    +0.163 C 
BRANCH  10  11
ATOM     11  C   UNL     1       4.136   3.112  23.126  0.00  0.00    +0.231 C 
ATOM     12  O   UNL     1       3.799   2.588  24.186  0.00  0.00    -0.274 OA
ATOM     13  N   UNL     1       3.281   3.080  22.058  0.00  0.00    -0.328 N 
ATOM     14  H   UNL     1       2.323   2.814  22.250  0.00  0.00    +0.145 HD
ATOM     15  H   UNL     1       3.467   3.584  21.200  0.00  0.00    +0.145 HD
ENDBRANCH  10  11
BRANCH  10  16
ATOM     16  C   UNL     1       5.670   5.125  22.954  0.00  0.00    +0.067 C 
BRANCH  16  17
ATOM     17  C   UNL     1       6.957   5.621  23.586  0.00  0.00    -0.045 A 
ATOM     18  C   UNL     1       8.042   6.028  22.798  0.00  0.00    +0.004 A 
ATOM     19  C   UNL     1       9.248   6.411  23.395  0.00  0.00    +0.000 A 
ATOM     20  C   UNL     1       9.379   6.405  24.783  0.00  0.00    +0.000 A 
ATOM     21  C   UNL     1       8.300   6.024  25.576  0.00  0.00    +0.000 A 
ATOM     22  C   UNL     1       7.099   5.633  24.982  0.00  0.00    +0.004 A 
ENDBRANCH  16  17
ENDBRANCH  10  16
ENDBRANCH   7  10
ENDBRANCH   5   6
BRANCH   5  23
ATOM     23  C   UNL     1       9.324   1.027  24.339  0.00  0.00    +0.041 C 
BRANCH  23  24
ATOM     24  C   UNL     1      10.111  -0.257  24.161  0.00  0.00    +0.098 C 
BRANCH  24  25
ATOM     25  C   UNL     1      10.184  -0.698  22.709  0.00  0.00    +0.211 C 
ATOM     26  O   UNL     1      10.612  -1.799  22.387  0.00  0.00    -0.276 OA
ATOM     27  N   UNL     1       9.849   0.202  21.737  0.00  0.00    -0.329 N 
ATOM     28  H   UNL     1       9.880  -0.135  20.783  0.00  0.00    +0.145 HD
ATOM     29  H   UNL     1       9.242   0.997  21.902  0.00  0.00    +0.145 HD
ENDBRANCH  24  25
ENDBRANCH  23  24
ENDBRANCH   5  23
ENDBRANCH   2   5
BRANCH   1  30
ATOM     30  C   UNL     1       5.706  -2.153  25.663  0.00  0.00    +0.086 C 
BRANCH  30  31
ATOM     31  C   UNL     1       4.178  -2.183  25.931  0.00  0.00    +0.048 C 
BRANCH  31  32
ATOM     32  C   UNL     1       3.417  -3.258  25.191  0.00  0.00    -0.047 A 
ATOM     33  C   UNL     1       2.035  -3.417  25.361  0.00  0.00    +0.003 A 
ATOM     34  C   UNL     1       1.332  -4.364  24.612  0.00  0.00    +0.000 A 
ATOM     35  C   UNL     1       2.007  -5.186  23.713  0.00  0.00    +0.000 A 
ATOM     36  C   UNL     1       3.390  -5.090  23.591  0.00  0.00    +0.000 A 
ATOM     37  C   UNL     1       4.094  -4.136  24.330  0.00  0.00    +0.003 A 
ENDBRANCH  31  32
ENDBRANCH  30  31
BRANCH  30  38
ATOM     38  C   UNL     1       6.502  -2.889  26.783  0.00  0.00    +0.089 C 
BRANCH  38  39
ATOM     39  C   UNL     1       7.914  -3.425  26.405  0.00  0.00    +0.155 C 
ATOM     40  O   UNL     1       8.886  -2.661  26.408  0.00  0.00    -0.295 OA
BRANCH  39  41
ATOM     41  C   UNL     1       8.095  -4.951  26.204  0.00  0.00    +0.147 C 
BRANCH  41  43
ATOM     42  C   UNL     1       6.380  -6.277  27.483  0.00  0.00    +0.401 C 
ATOM     43  N   UNL     1       6.833  -5.710  26.328  0.00  0.00    -0.271 N 
ATOM     44  H   UNL     1       6.159  -5.683  25.575  0.00  0.00    +0.153 HD
ATOM     45  O   UNL     1       7.002  -6.278  28.541  0.00  0.00    -0.226 OA
BRANCH  42  46
ATOM     46  O   UNL     1       5.165  -6.859  27.283  0.00  0.00    -0.445 OA
BRANCH  46  48
ATOM     47  C   UNL     1       2.706  -6.682  27.117  0.00  0.00    +0.055 C 
ATOM     48  C   UNL     1       3.953  -6.390  27.961  0.00  0.00    +0.107 C 
ATOM     49  C   UNL     1       3.833  -7.201  29.268  0.00  0.00    +0.055 C 
ATOM     50  C   UNL     1       4.033  -4.906  28.347  0.00  0.00    +0.055 C 
ENDBRANCH  46  48
ENDBRANCH  42  46
ENDBRANCH  41  43
BRANCH  41  51
ATOM     51  C   UNL     1       8.683  -5.085  24.791  0.00  0.00    +0.065 C 
BRANCH  51  52
ATOM     52  C   UNL     1       7.772  -4.830  23.630  0.00  0.00    -0.045 A 
ATOM     53  C   UNL     1       7.224  -5.888  22.896  0.00  0.00    +0.004 A 
ATOM     54  C   UNL     1       6.496  -5.628  21.738  0.00  0.00    +0.000 A 
ATOM     55  C   UNL     1       6.312  -4.314  21.307  0.00  0.00    +0.000 A 
ATOM     56  C   UNL     1       6.849  -3.257  22.038  0.00  0.00    +0.000 A 
ATOM     57  C   UNL     1       7.577  -3.513  23.194  0.00  0.00    +0.004 A 
ENDBRANCH  51  52
ENDBRANCH  41  51
ENDBRANCH  39  41
ENDBRANCH  38  39
ENDBRANCH  30  38
ENDBRANCH   1  30
TORSDOF 20
ENDMDL
MODEL 4
REMARK VINA RESULT:      -6.4      1.922      4.862
REMARK  Name = 
REMARK  23 active torsions:
REMARK  status: ('A' for Active; 'I' for Inactive)
REMARK    1  A    between atoms: C_1  and  C_2
REMARK    2  A    between atoms: C_2  and  C_3
REMARK    3  A    between atoms: C_2  and  C_4
REMARK    4  A    between atoms: C_2  and  O_5
REMARK    5  A    between atoms: O_5  and  C_6
REMARK    6  A    between atoms: N_8  and  C_9
REMARK    7  A    between atoms: C_9  and  C_11
REMARK    8  A    between atoms: C_9  and  C_18
REMARK    9  A    between atoms: C_11  and  C_12
REMARK   10  A    between atoms: C_18  and  C_20
REMARK   11  A    between atoms: C_20  and  C_21
REMARK   12  A    between atoms: C_21  and  C_23
REMARK   13  A    between atoms: C_21  and  C_30
REMARK   14  A    between atoms: C_23  and  C_24
REMARK   15  A    between atoms: N_32  and  C_33
REMARK   16  A    between atoms: C_33  and  C_35
REMARK   17  A    between atoms: C_33  and  C_40
REMARK   18  A    between atoms: C_35  and  C_36
REMARK   19  A    between atoms: C_36  and  C_37
REMARK   20  A    between atoms: N_42  and  C_43
REMARK   21  A    between atoms: C_43  and  C_45
REMARK   22  A    between atoms: C_43  and  C_52
REMARK   23  A    between atoms: C_45  and  C_46
REMARK                            x       y       z     vdW  Elec       q    Type
REMARK                         _______ _______ _______ _____ _____    ______ ____
ROOT
ATOM      1  C   UNL     1       4.550  -0.598  26.487  0.00  0.00    +0.217 C 
ATOM      2  N   UNL     1       5.521   0.341  26.767  0.00  0.00    -0.304 N 
ATOM      3  H   UNL     1       6.497   0.103  26.638  0.00  0.00    +0.149 HD
ATOM      4  O   UNL     1       3.351  -0.359  26.575  0.00  0.00    -0.275 OA
ENDROOT
BRANCH   2   5
ATOM      5  C   UNL     1       5.245   1.799  26.967  0.00  0.00    +0.159 C 
BRANCH   5   6
ATOM      6  C   UNL     1       6.204   2.706  26.150  0.00  0.00    +0.234 C 
ATOM      7  N   UNL     1       5.631   3.447  25.144  0.00  0.00    -0.302 N 
ATOM      8  H   UNL     1       4.711   3.157  24.832  0.00  0.00    +0.150 HD
ATOM      9  O   UNL     1       7.398   2.809  26.419  0.00  0.00    -0.274 OA
BRANCH   7  10
ATOM     10  C   UNL     1       6.435   4.274  24.221  0.00  0.00    +0.163 C 
BRANCH  10  11
ATOM     11  C   UNL     1       5.584   4.370  22.944  0.00  0.00    +0.231 C 
ATOM     12  O   UNL     1       4.933   3.439  22.477  0.00  0.00    -0.274 OA
ATOM     13  N   UNL     1       5.768   5.503  22.201  0.00  0.00    -0.328 N 
ATOM     14  H   UNL     1       5.180   5.611  21.383  0.00  0.00    +0.145 HD
ATOM     15  H   UNL     1       6.206   6.335  22.579  0.00  0.00    +0.145 HD
ENDBRANCH  10  11
BRANCH  10  16
ATOM     16  C   UNL     1       6.752   5.673  24.781  0.00  0.00    +0.067 C 
BRANCH  16  17
ATOM     17  C   UNL     1       8.226   6.033  24.810  0.00  0.00    -0.045 A 
ATOM     18  C   UNL     1       9.069   5.726  23.732  0.00  0.00    +0.004 A 
ATOM     19  C   UNL     1      10.439   5.995  23.805  0.00  0.00    +0.000 A 
ATOM     20  C   UNL     1      10.980   6.587  24.945  0.00  0.00    +0.000 A 
ATOM     21  C   UNL     1      10.149   6.918  26.012  0.00  0.00    +0.000 A 
ATOM     22  C   UNL     1       8.783   6.641  25.945  0.00  0.00    +0.004 A 
ENDBRANCH  16  17
ENDBRANCH  10  16
ENDBRANCH   7  10
ENDBRANCH   5   6
BRANCH   5  23
ATOM     23  C   UNL     1       5.220   2.212  28.447  0.00  0.00    +0.041 C 
BRANCH  23  24
ATOM     24  C   UNL     1       5.882   1.329  29.486  0.00  0.00    +0.098 C 
BRANCH  24  25
ATOM     25  C   UNL     1       7.384   1.541  29.558  0.00  0.00    +0.211 C 
ATOM     26  O   UNL     1       7.875   2.529  30.090  0.00  0.00    -0.276 OA
ATOM     27  N   UNL     1       8.199   0.645  28.926  0.00  0.00    -0.329 N 
ATOM     28  H   UNL     1       9.195   0.800  29.020  0.00  0.00    +0.145 HD
ATOM     29  H   UNL     1       7.922  -0.307  28.716  0.00  0.00    +0.145 HD
ENDBRANCH  24  25
ENDBRANCH  23  24
ENDBRANCH   5  23
ENDBRANCH   2   5
BRANCH   1  30
ATOM     30  C   UNL     1       4.987  -2.014  26.128  0.00  0.00    +0.086 C 
BRANCH  30  31
ATOM     31  C   UNL     1       3.838  -3.022  26.390  0.00  0.00    +0.048 C 
BRANCH  31  32
ATOM     32  C   UNL     1       3.892  -4.287  25.565  0.00  0.00    -0.047 A 
ATOM     33  C   UNL     1       3.210  -4.387  24.344  0.00  0.00    +0.003 A 
ATOM     34  C   UNL     1       3.331  -5.534  23.556  0.00  0.00    +0.000 A 
ATOM     35  C   UNL     1       4.105  -6.606  23.994  0.00  0.00    +0.000 A 
ATOM     36  C   UNL     1       4.725  -6.548  25.239  0.00  0.00    +0.000 A 
ATOM     37  C   UNL     1       4.614  -5.398  26.024  0.00  0.00    +0.003 A 
ENDBRANCH  31  32
ENDBRANCH  30  31
BRANCH  30  38
ATOM     38  C   UNL     1       6.243  -2.333  26.993  0.00  0.00    +0.089 C 
BRANCH  38  39
ATOM     39  C   UNL     1       7.569  -2.618  26.228  0.00  0.00    +0.155 C 
ATOM     40  O   UNL     1       8.496  -3.207  26.796  0.00  0.00    -0.295 OA
BRANCH  39  41
ATOM     41  C   UNL     1       7.625  -2.311  24.710  0.00  0.00    +0.147 C 
BRANCH  41  43
ATOM     42  C   UNL     1       7.814   0.085  23.964  0.00  0.00    +0.401 C 
ATOM     43  N   UNL     1       8.379  -1.081  24.390  0.00  0.00    -0.271 N 
ATOM     44  H   UNL     1       9.353  -1.011  24.653  0.00  0.00    +0.153 HD
ATOM     45  O   UNL     1       6.618   0.228  23.734  0.00  0.00    -0.226 OA
BRANCH  42  46
ATOM     46  O   UNL     1       8.768   1.045  23.806  0.00  0.00    -0.445 OA
BRANCH  46  48
ATOM     47  C   UNL     1      10.464   2.384  22.609  0.00  0.00    +0.055 C 
ATOM     48  C   UNL     1       9.240   1.468  22.485  0.00  0.00    +0.107 C 
ATOM     49  C   UNL     1       9.686   0.191  21.743  0.00  0.00    +0.055 C 
ATOM     50  C   UNL     1       8.133   2.124  21.647  0.00  0.00    +0.055 C 
ENDBRANCH  46  48
ENDBRANCH  42  46
ENDBRANCH  41  43
BRANCH  41  51
ATOM     51  C   UNL     1       8.298  -3.548  24.093  0.00  0.00    +0.065 C 
BRANCH  51  52
ATOM     52  C   UNL     1       7.587  -4.241  22.972  0.00  0.00    -0.045 A 
ATOM     53  C   UNL     1       6.697  -3.548  22.144  0.00  0.00    +0.004 A 
ATOM     54  C   UNL     1       5.942  -4.240  21.201  0.00  0.00    +0.000 A 
ATOM     55  C   UNL     1       6.071  -5.624  21.080  0.00  0.00    +0.000 A 
ATOM     56  C   UNL     1       6.961  -6.317  21.897  0.00  0.00    +0.000 A 
ATOM     57  C   UNL     1       7.716  -5.630  22.840  0.00  0.00    +0.004 A 
ENDBRANCH  51  52
ENDBRANCH  41  51
ENDBRANCH  39  41
ENDBRANCH  38  39
ENDBRANCH  30  38
ENDBRANCH   1  30
TORSDOF 20
ENDMDL
MODEL 5
REMARK VINA RESULT:      -6.3      1.356      3.017
REMARK  Name = 
REMARK  23 active torsions:
REMARK  status: ('A' for Active; 'I' for Inactive)
REMARK    1  A    between atoms: C_1  and  C_2
REMARK    2  A    between atoms: C_2  and  C_3
REMARK    3  A    between atoms: C_2  and  C_4
REMARK    4  A    between atoms: C_2  and  O_5
REMARK    5  A    between atoms: O_5  and  C_6
REMARK    6  A    between atoms: N_8  and  C_9
REMARK    7  A    between atoms: C_9  and  C_11
REMARK    8  A    between atoms: C_9  and  C_18
REMARK    9  A    between atoms: C_11  and  C_12
REMARK   10  A    between atoms: C_18  and  C_20
REMARK   11  A    between atoms: C_20  and  C_21
REMARK   12  A    between atoms: C_21  and  C_23
REMARK   13  A    between atoms: C_21  and  C_30
REMARK   14  A    between atoms: C_23  and  C_24
REMARK   15  A    between atoms: N_32  and  C_33
REMARK   16  A    between atoms: C_33  and  C_35
REMARK   17  A    between atoms: C_33  and  C_40
REMARK   18  A    between atoms: C_35  and  C_36
REMARK   19  A    between atoms: C_36  and  C_37
REMARK   20  A    between atoms: N_42  and  C_43
REMARK   21  A    between atoms: C_43  and  C_45
REMARK   22  A    between atoms: C_43  and  C_52
REMARK   23  A    between atoms: C_45  and  C_46
REMARK                            x       y       z     vdW  Elec       q    Type
REMARK                         _______ _______ _______ _____ _____    ______ ____
ROOT
ATOM      1  C   UNL     1       5.513   0.325  26.214  0.00  0.00    +0.217 C 
ATOM      2  N   UNL     1       6.523   1.209  26.531  0.00  0.00    -0.304 N 
ATOM      3  H   UNL     1       7.433   0.852  26.797  0.00  0.00    +0.149 HD
ATOM      4  O   UNL     1       4.404   0.691  25.840  0.00  0.00    -0.275 OA
ENDROOT
BRANCH   2   5
ATOM      5  C   UNL     1       6.479   2.676  26.231  0.00  0.00    +0.159 C 
BRANCH   5   6
ATOM      6  C   UNL     1       7.198   3.034  24.902  0.00  0.00    +0.234 C 
ATOM      7  N   UNL     1       8.516   3.407  25.005  0.00  0.00    -0.302 N 
ATOM      8  H   UNL     1       8.842   3.682  25.924  0.00  0.00    +0.150 HD
ATOM      9  O   UNL     1       6.645   2.933  23.809  0.00  0.00    -0.274 OA
BRANCH   7  10
ATOM     10  C   UNL     1       9.294   3.873  23.838  0.00  0.00    +0.163 C 
BRANCH  10  11
ATOM     11  C   UNL     1       9.707   5.310  24.196  0.00  0.00    +0.231 C 
ATOM     12  O   UNL     1       9.329   5.907  25.201  0.00  0.00    -0.274 OA
ATOM     13  N   UNL     1      10.351   5.999  23.205  0.00  0.00    -0.328 N 
ATOM     14  H   UNL     1      10.677   6.930  23.436  0.00  0.00    +0.145 HD
ATOM     15  H   UNL     1      10.773   5.537  22.409  0.00  0.00    +0.145 HD
ENDBRANCH  10  11
BRANCH  10  16
ATOM     16  C   UNL     1      10.529   2.999  23.545  0.00  0.00    +0.067 C 
BRANCH  16  17
ATOM     17  C   UNL     1      10.219   1.588  23.083  0.00  0.00    -0.045 A 
ATOM     18  C   UNL     1      10.561   0.477  23.867  0.00  0.00    +0.004 A 
ATOM     19  C   UNL     1      10.337  -0.820  23.394  0.00  0.00    +0.000 A 
ATOM     20  C   UNL     1       9.757  -1.023  22.142  0.00  0.00    +0.000 A 
ATOM     21  C   UNL     1       9.392   0.074  21.366  0.00  0.00    +0.000 A 
ATOM     22  C   UNL     1       9.623   1.369  21.832  0.00  0.00    +0.004 A 
ENDBRANCH  16  17
ENDBRANCH  10  16
ENDBRANCH   7  10
ENDBRANCH   5   6
BRANCH   5  23
ATOM     23  C   UNL     1       6.993   3.546  27.389  0.00  0.00    +0.041 C 
BRANCH  23  24
ATOM     24  C   UNL     1       6.448   3.334  28.787  0.00  0.00    +0.098 C 
BRANCH  24  25
ATOM     25  C   UNL     1       7.494   2.783  29.741  0.00  0.00    +0.211 C 
ATOM     26  O   UNL     1       8.141   3.510  30.485  0.00  0.00    -0.276 OA
ATOM     27  N   UNL     1       7.780   1.448  29.693  0.00  0.00    -0.329 N 
ATOM     28  H   UNL     1       8.459   1.110  30.363  0.00  0.00    +0.145 HD
ATOM     29  H   UNL     1       7.134   0.754  29.337  0.00  0.00    +0.145 HD
ENDBRANCH  24  25
ENDBRANCH  23  24
ENDBRANCH   5  23
ENDBRANCH   2   5
BRANCH   1  30
ATOM     30  C   UNL     1       5.760  -1.166  26.411  0.00  0.00    +0.086 C 
BRANCH  30  31
ATOM     31  C   UNL     1       7.278  -1.480  26.355  0.00  0.00    +0.048 C 
BRANCH  31  32
ATOM     32  C   UNL     1       7.626  -2.920  26.058  0.00  0.00    -0.047 A 
ATOM     33  C   UNL     1       8.346  -3.271  24.907  0.00  0.00    +0.003 A 
ATOM     34  C   UNL     1       8.727  -4.596  24.685  0.00  0.00    +0.000 A 
ATOM     35  C   UNL     1       8.364  -5.590  25.590  0.00  0.00    +0.000 A 
ATOM     36  C   UNL     1       7.584  -5.266  26.698  0.00  0.00    +0.000 A 
ATOM     37  C   UNL     1       7.211  -3.940  26.928  0.00  0.00    +0.003 A 
ENDBRANCH  31  32
ENDBRANCH  30  31
BRANCH  30  38
ATOM     38  C   UNL     1       4.977  -1.906  25.285  0.00  0.00    +0.089 C 
BRANCH  38  39
ATOM     39  C   UNL     1       3.800  -2.822  25.733  0.00  0.00    +0.155 C 
ATOM     40  O   UNL     1       2.738  -2.319  26.118  0.00  0.00    -0.295 OA
BRANCH  39  41
ATOM     41  C   UNL     1       3.930  -4.350  25.515  0.00  0.00    +0.147 C 
BRANCH  41  43
ATOM     42  C   UNL     1       3.338  -6.304  26.987  0.00  0.00    +0.401 C 
ATOM     43  N   UNL     1       3.007  -5.142  26.354  0.00  0.00    -0.271 N 
ATOM     44  H   UNL     1       2.123  -4.741  26.636  0.00  0.00    +0.153 HD
ATOM     45  O   UNL     1       4.424  -6.862  26.879  0.00  0.00    -0.226 OA
BRANCH  42  46
ATOM     46  O   UNL     1       2.286  -6.760  27.723  0.00  0.00    -0.445 OA
BRANCH  46  48
ATOM     47  C   UNL     1       0.726  -6.060  29.506  0.00  0.00    +0.055 C 
ATOM     48  C   UNL     1       2.158  -6.483  29.156  0.00  0.00    +0.107 C 
ATOM     49  C   UNL     1       2.447  -7.807  29.894  0.00  0.00    +0.055 C 
ATOM     50  C   UNL     1       3.182  -5.450  29.649  0.00  0.00    +0.055 C 
ENDBRANCH  46  48
ENDBRANCH  42  46
ENDBRANCH  41  43
BRANCH  41  51
ATOM     51  C   UNL     1       3.630  -4.552  24.021  0.00  0.00    +0.065 C 
BRANCH  51  52
ATOM     52  C   UNL     1       4.783  -4.855  23.114  0.00  0.00    -0.045 A 
ATOM     53  C   UNL     1       5.354  -6.131  23.073  0.00  0.00    +0.004 A 
ATOM     54  C   UNL     1       6.510  -6.352  22.329  0.00  0.00    +0.000 A 
ATOM     55  C   UNL     1       7.102  -5.303  21.627  0.00  0.00    +0.000 A 
ATOM     56  C   UNL     1       6.534  -4.032  21.659  0.00  0.00    +0.000 A 
ATOM     57  C   UNL     1       5.380  -3.807  22.400  0.00  0.00    +0.004 A 
ENDBRANCH  51  52
ENDBRANCH  41  51
ENDBRANCH  39  41
ENDBRANCH  38  39
ENDBRANCH  30  38
ENDBRANCH   1  30
TORSDOF 20
ENDMDL
MODEL 6
REMARK VINA RESULT:      -6.3      2.678      8.877
REMARK  Name = 
REMARK  23 active torsions:
REMARK  status: ('A' for Active; 'I' for Inactive)
REMARK    1  A    between atoms: C_1  and  C_2
REMARK    2  A    between atoms: C_2  and  C_3
REMARK    3  A    between atoms: C_2  and  C_4
REMARK    4  A    between atoms: C_2  and  O_5
REMARK    5  A    between atoms: O_5  and  C_6
REMARK    6  A    between atoms: N_8  and  C_9
REMARK    7  A    between atoms: C_9  and  C_11
REMARK    8  A    between atoms: C_9  and  C_18
REMARK    9  A    between atoms: C_11  and  C_12
REMARK   10  A    between atoms: C_18  and  C_20
REMARK   11  A    between atoms: C_20  and  C_21
REMARK   12  A    between atoms: C_21  and  C_23
REMARK   13  A    between atoms: C_21  and  C_30
REMARK   14  A    between atoms: C_23  and  C_24
REMARK   15  A    between atoms: N_32  and  C_33
REMARK   16  A    between atoms: C_33  and  C_35
REMARK   17  A    between atoms: C_33  and  C_40
REMARK   18  A    between atoms: C_35  and  C_36
REMARK   19  A    between atoms: C_36  and  C_37
REMARK   20  A    between atoms: N_42  and  C_43
REMARK   21  A    between atoms: C_43  and  C_45
REMARK   22  A    between atoms: C_43  and  C_52
REMARK   23  A    between atoms: C_45  and  C_46
REMARK                            x       y       z     vdW  Elec       q    Type
REMARK                         _______ _______ _______ _____ _____    ______ ____
ROOT
ATOM      1  C   UNL     1       7.604  -2.672  26.241  0.00  0.00    +0.217 C 
ATOM      2  N   UNL     1       6.373  -2.881  26.827  0.00  0.00    -0.304 N 
ATOM      3  H   UNL     1       5.587  -2.304  26.555  0.00  0.00    +0.149 HD
ATOM      4  O   UNL     1       8.584  -3.366  26.490  0.00  0.00    -0.275 OA
ENDROOT
BRANCH   2   5
ATOM      5  C   UNL     1       6.021  -4.097  27.627  0.00  0.00    +0.159 C 
BRANCH   5   6
ATOM      6  C   UNL     1       5.854  -5.364  26.745  0.00  0.00    +0.234 C 
ATOM      7  N   UNL     1       4.823  -5.342  25.837  0.00  0.00    -0.302 N 
ATOM      8  H   UNL     1       4.100  -4.648  25.986  0.00  0.00    +0.150 HD
ATOM      9  O   UNL     1       6.633  -6.313  26.806  0.00  0.00    -0.274 OA
BRANCH   7  10
ATOM     10  C   UNL     1       4.483  -6.515  25.005  0.00  0.00    +0.163 C 
BRANCH  10  11
ATOM     11  C   UNL     1       3.036  -6.859  25.394  0.00  0.00    +0.231 C 
ATOM     12  O   UNL     1       2.114  -6.048  25.412  0.00  0.00    -0.274 OA
ATOM     13  N   UNL     1       2.859  -8.094  25.955  0.00  0.00    -0.328 N 
ATOM     14  H   UNL     1       1.906  -8.362  26.172  0.00  0.00    +0.145 HD
ATOM     15  H   UNL     1       3.548  -8.831  25.874  0.00  0.00    +0.145 HD
ENDBRANCH  10  11
BRANCH  10  16
ATOM     16  C   UNL     1       4.600  -6.240  23.494  0.00  0.00    +0.067 C 
BRANCH  16  17
ATOM     17  C   UNL     1       5.510  -5.085  23.121  0.00  0.00    -0.045 A 
ATOM     18  C   UNL     1       4.987  -3.828  22.785  0.00  0.00    +0.004 A 
ATOM     19  C   UNL     1       5.835  -2.795  22.371  0.00  0.00    +0.000 A 
ATOM     20  C   UNL     1       7.212  -3.000  22.302  0.00  0.00    +0.000 A 
ATOM     21  C   UNL     1       7.744  -4.238  22.655  0.00  0.00    +0.000 A 
ATOM     22  C   UNL     1       6.899  -5.272  23.060  0.00  0.00    +0.004 A 
ENDBRANCH  16  17
ENDBRANCH  10  16
ENDBRANCH   7  10
ENDBRANCH   5   6
BRANCH   5  23
ATOM     23  C   UNL     1       4.798  -3.891  28.534  0.00  0.00    +0.041 C 
BRANCH  23  24
ATOM     24  C   UNL     1       4.331  -5.016  29.436  0.00  0.00    +0.098 C 
BRANCH  24  25
ATOM     25  C   UNL     1       3.074  -5.694  28.918  0.00  0.00    +0.211 C 
ATOM     26  O   UNL     1       2.939  -6.911  28.937  0.00  0.00    -0.276 OA
ATOM     27  N   UNL     1       2.113  -4.921  28.330  0.00  0.00    -0.329 N 
ATOM     28  H   UNL     1       1.276  -5.401  28.024  0.00  0.00    +0.145 HD
ATOM     29  H   UNL     1       2.008  -3.930  28.514  0.00  0.00    +0.145 HD
ENDBRANCH  24  25
ENDBRANCH  23  24
ENDBRANCH   5  23
ENDBRANCH   2   5
BRANCH   1  30
ATOM     30  C   UNL     1       7.774  -1.481  25.304  0.00  0.00    +0.086 C 
BRANCH  30  31
ATOM     31  C   UNL     1       9.277  -1.205  25.040  0.00  0.00    +0.048 C 
BRANCH  31  32
ATOM     32  C   UNL     1       9.565  -0.026  24.139  0.00  0.00    -0.047 A 
ATOM     33  C   UNL     1      10.374   1.034  24.568  0.00  0.00    +0.003 A 
ATOM     34  C   UNL     1      10.695   2.079  23.697  0.00  0.00    +0.000 A 
ATOM     35  C   UNL     1      10.181   2.094  22.403  0.00  0.00    +0.000 A 
ATOM     36  C   UNL     1       9.314   1.085  21.990  0.00  0.00    +0.000 A 
ATOM     37  C   UNL     1       9.002   0.034  22.855  0.00  0.00    +0.003 A 
ENDBRANCH  31  32
ENDBRANCH  30  31
BRANCH  30  38
ATOM     38  C   UNL     1       7.075  -0.267  25.987  0.00  0.00    +0.089 C 
BRANCH  38  39
ATOM     39  C   UNL     1       5.699   0.171  25.403  0.00  0.00    +0.155 C 
ATOM     40  O   UNL     1       4.712  -0.562  25.533  0.00  0.00    -0.295 OA
BRANCH  39  41
ATOM     41  C   UNL     1       5.565   1.603  24.826  0.00  0.00    +0.147 C 
BRANCH  41  43
ATOM     42  C   UNL     1       3.425   2.926  24.753  0.00  0.00    +0.401 C 
ATOM     43  N   UNL     1       4.469   2.381  25.441  0.00  0.00    -0.271 N 
ATOM     44  H   UNL     1       4.364   2.384  26.447  0.00  0.00    +0.153 HD
ATOM     45  O   UNL     1       3.308   2.889  23.533  0.00  0.00    -0.226 OA
BRANCH  42  46
ATOM     46  O   UNL     1       2.557   3.534  25.610  0.00  0.00    -0.445 OA
BRANCH  46  48
ATOM     47  C   UNL     1       1.377   5.702  25.701  0.00  0.00    +0.055 C 
ATOM     48  C   UNL     1       2.683   4.947  25.977  0.00  0.00    +0.107 C 
ATOM     49  C   UNL     1       2.935   4.991  27.499  0.00  0.00    +0.055 C 
ATOM     50  C   UNL     1       3.878   5.627  25.293  0.00  0.00    +0.055 C 
ENDBRANCH  46  48
ENDBRANCH  42  46
ENDBRANCH  41  43
BRANCH  41  51
ATOM     51  C   UNL     1       6.928   2.257  25.099  0.00  0.00    +0.065 C 
BRANCH  51  52
ATOM     52  C   UNL     1       7.267   3.502  24.340  0.00  0.00    -0.045 A 
ATOM     53  C   UNL     1       6.817   3.694  23.029  0.00  0.00    +0.004 A 
ATOM     54  C   UNL     1       7.261   4.791  22.295  0.00  0.00    +0.000 A 
ATOM     55  C   UNL     1       8.154   5.699  22.863  0.00  0.00    +0.000 A 
ATOM     56  C   UNL     1       8.600   5.516  24.170  0.00  0.00    +0.000 A 
ATOM     57  C   UNL     1       8.160   4.422  24.906  0.00  0.00    +0.004 A 
ENDBRANCH  51  52
ENDBRANCH  41  51
ENDBRANCH  39  41
ENDBRANCH  38  39
ENDBRANCH  30  38
ENDBRANCH   1  30
TORSDOF 20
ENDMDL
MODEL 7
REMARK VINA RESULT:      -6.3      2.138      4.631
REMARK  Name = 
REMARK  23 active torsions:
REMARK  status: ('A' for Active; 'I' for Inactive)
REMARK    1  A    between atoms: C_1  and  C_2
REMARK    2  A    between atoms: C_2  and  C_3
REMARK    3  A    between atoms: C_2  and  C_4
REMARK    4  A    between atoms: C_2  and  O_5
REMARK    5  A    between atoms: O_5  and  C_6
REMARK    6  A    between atoms: N_8  and  C_9
REMARK    7  A    between atoms: C_9  and  C_11
REMARK    8  A    between atoms: C_9  and  C_18
REMARK    9  A    between atoms: C_11  and  C_12
REMARK   10  A    between atoms: C_18  and  C_20
REMARK   11  A    between atoms: C_20  and  C_21
REMARK   12  A    between atoms: C_21  and  C_23
REMARK   13  A    between atoms: C_21  and  C_30
REMARK   14  A    between atoms: C_23  and  C_24
REMARK   15  A    between atoms: N_32  and  C_33
REMARK   16  A    between atoms: C_33  and  C_35
REMARK   17  A    between atoms: C_33  and  C_40
REMARK   18  A    between atoms: C_35  and  C_36
REMARK   19  A    between atoms: C_36  and  C_37
REMARK   20  A    between atoms: N_42  and  C_43
REMARK   21  A    between atoms: C_43  and  C_45
REMARK   22  A    between atoms: C_43  and  C_52
REMARK   23  A    between atoms: C_45  and  C_46
REMARK                            x       y       z     vdW  Elec       q    Type
REMARK                         _______ _______ _______ _____ _____    ______ ____
ROOT
ATOM      1  C   UNL     1       6.637   0.606  25.557  0.00  0.00    +0.217 C 
ATOM      2  N   UNL     1       5.924   0.745  24.384  0.00  0.00    -0.304 N 
ATOM      3  H   UNL     1       5.408  -0.046  24.018  0.00  0.00    +0.149 HD
ATOM      4  O   UNL     1       7.243   1.536  26.079  0.00  0.00    -0.275 OA
ENDROOT
BRANCH   2   5
ATOM      5  C   UNL     1       5.601   2.063  23.749  0.00  0.00    +0.159 C 
BRANCH   5   6
ATOM      6  C   UNL     1       6.809   2.667  22.982  0.00  0.00    +0.234 C 
ATOM      7  N   UNL     1       7.959   2.855  23.710  0.00  0.00    -0.302 N 
ATOM      8  H   UNL     1       7.865   2.850  24.720  0.00  0.00    +0.150 HD
ATOM      9  O   UNL     1       6.767   2.908  21.778  0.00  0.00    -0.274 OA
BRANCH   7  10
ATOM     10  C   UNL     1       9.152   3.515  23.139  0.00  0.00    +0.163 C 
BRANCH  10  11
ATOM     11  C   UNL     1       9.341   4.779  23.992  0.00  0.00    +0.231 C 
ATOM     12  O   UNL     1       8.921   4.908  25.139  0.00  0.00    -0.274 OA
ATOM     13  N   UNL     1       9.814   5.874  23.321  0.00  0.00    -0.328 N 
ATOM     14  H   UNL     1       9.994   6.703  23.873  0.00  0.00    +0.145 HD
ATOM     15  H   UNL     1      10.265   5.803  22.417  0.00  0.00    +0.145 HD
ENDBRANCH  10  11
BRANCH  10  16
ATOM     16  C   UNL     1      10.411   2.628  23.176  0.00  0.00    +0.067 C 
BRANCH  16  17
ATOM     17  C   UNL     1      10.149   1.139  23.052  0.00  0.00    -0.045 A 
ATOM     18  C   UNL     1      10.305   0.281  24.150  0.00  0.00    +0.004 A 
ATOM     19  C   UNL     1      10.133  -1.099  24.002  0.00  0.00    +0.000 A 
ATOM     20  C   UNL     1       9.790  -1.636  22.762  0.00  0.00    +0.000 A 
ATOM     21  C   UNL     1       9.610  -0.791  21.670  0.00  0.00    +0.000 A 
ATOM     22  C   UNL     1       9.790   0.585  21.814  0.00  0.00    +0.004 A 
ENDBRANCH  16  17
ENDBRANCH  10  16
ENDBRANCH   7  10
ENDBRANCH   5   6
BRANCH   5  23
ATOM     23  C   UNL     1       5.008   3.081  24.735  0.00  0.00    +0.041 C 
BRANCH  23  24
ATOM     24  C   UNL     1       4.043   4.138  24.236  0.00  0.00    +0.098 C 
BRANCH  24  25
ATOM     25  C   UNL     1       3.261   3.682  23.016  0.00  0.00    +0.211 C 
ATOM     26  O   UNL     1       2.336   2.884  23.100  0.00  0.00    -0.276 OA
ATOM     27  N   UNL     1       3.670   4.107  21.783  0.00  0.00    -0.329 N 
ATOM     28  H   UNL     1       3.108   3.809  20.996  0.00  0.00    +0.145 HD
ATOM     29  H   UNL     1       4.214   4.950  21.639  0.00  0.00    +0.145 HD
ENDBRANCH  24  25
ENDBRANCH  23  24
ENDBRANCH   5  23
ENDBRANCH   2   5
BRANCH   1  30
ATOM     30  C   UNL     1       6.740  -0.776  26.189  0.00  0.00    +0.086 C 
BRANCH  30  31
ATOM     31  C   UNL     1       6.458  -1.880  25.137  0.00  0.00    +0.048 C 
BRANCH  31  32
ATOM     32  C   UNL     1       7.347  -3.099  25.230  0.00  0.00    -0.047 A 
ATOM     33  C   UNL     1       7.268  -4.128  24.282  0.00  0.00    +0.003 A 
ATOM     34  C   UNL     1       8.149  -5.211  24.336  0.00  0.00    +0.000 A 
ATOM     35  C   UNL     1       9.092  -5.295  25.357  0.00  0.00    +0.000 A 
ATOM     36  C   UNL     1       9.129  -4.318  26.348  0.00  0.00    +0.000 A 
ATOM     37  C   UNL     1       8.257  -3.228  26.289  0.00  0.00    +0.003 A 
ENDBRANCH  31  32
ENDBRANCH  30  31
BRANCH  30  38
ATOM     38  C   UNL     1       5.709  -0.816  27.357  0.00  0.00    +0.089 C 
BRANCH  38  39
ATOM     39  C   UNL     1       4.207  -0.938  26.965  0.00  0.00    +0.155 C 
ATOM     40  O   UNL     1       3.657  -0.028  26.334  0.00  0.00    -0.295 OA
BRANCH  39  41
ATOM     41  C   UNL     1       3.484  -2.284  27.223  0.00  0.00    +0.147 C 
BRANCH  41  43
ATOM     42  C   UNL     1       2.700  -3.513  25.170  0.00  0.00    +0.401 C 
ATOM     43  N   UNL     1       3.645  -3.255  26.121  0.00  0.00    -0.271 N 
ATOM     44  H   UNL     1       4.557  -3.645  25.929  0.00  0.00    +0.153 HD
ATOM     45  O   UNL     1       1.580  -3.014  25.159  0.00  0.00    -0.226 OA
BRANCH  42  46
ATOM     46  O   UNL     1       3.170  -4.415  24.265  0.00  0.00    -0.445 OA
BRANCH  46  48
ATOM     47  C   UNL     1       2.453  -6.483  23.119  0.00  0.00    +0.055 C 
ATOM     48  C   UNL     1       2.966  -5.858  24.422  0.00  0.00    +0.107 C 
ATOM     49  C   UNL     1       4.349  -6.473  24.722  0.00  0.00    +0.055 C 
ATOM     50  C   UNL     1       2.047  -6.196  25.605  0.00  0.00    +0.055 C 
ENDBRANCH  46  48
ENDBRANCH  42  46
ENDBRANCH  41  43
BRANCH  41  51
ATOM     51  C   UNL     1       4.111  -2.814  28.522  0.00  0.00    +0.065 C 
BRANCH  51  52
ATOM     52  C   UNL     1       4.525  -4.253  28.558  0.00  0.00    -0.045 A 
ATOM     53  C   UNL     1       5.793  -4.651  28.122  0.00  0.00    +0.004 A 
ATOM     54  C   UNL     1       6.104  -6.005  28.033  0.00  0.00    +0.000 A 
ATOM     55  C   UNL     1       5.154  -6.967  28.377  0.00  0.00    +0.000 A 
ATOM     56  C   UNL     1       3.892  -6.575  28.819  0.00  0.00    +0.000 A 
ATOM     57  C   UNL     1       3.577  -5.224  28.909  0.00  0.00    +0.004 A 
ENDBRANCH  51  52
ENDBRANCH  41  51
ENDBRANCH  39  41
ENDBRANCH  38  39
ENDBRANCH  30  38
ENDBRANCH   1  30
TORSDOF 20
ENDMDL
MODEL 8
REMARK VINA RESULT:      -6.2      3.169      8.895
REMARK  Name = 
REMARK  23 active torsions:
REMARK  status: ('A' for Active; 'I' for Inactive)
REMARK    1  A    between atoms: C_1  and  C_2
REMARK    2  A    between atoms: C_2  and  C_3
REMARK    3  A    between atoms: C_2  and  C_4
REMARK    4  A    between atoms: C_2  and  O_5
REMARK    5  A    between atoms: O_5  and  C_6
REMARK    6  A    between atoms: N_8  and  C_9
REMARK    7  A    between atoms: C_9  and  C_11
REMARK    8  A    between atoms: C_9  and  C_18
REMARK    9  A    between atoms: C_11  and  C_12
REMARK   10  A    between atoms: C_18  and  C_20
REMARK   11  A    between atoms: C_20  and  C_21
REMARK   12  A    between atoms: C_21  and  C_23
REMARK   13  A    between atoms: C_21  and  C_30
REMARK   14  A    between atoms: C_23  and  C_24
REMARK   15  A    between atoms: N_32  and  C_33
REMARK   16  A    between atoms: C_33  and  C_35
REMARK   17  A    between atoms: C_33  and  C_40
REMARK   18  A    between atoms: C_35  and  C_36
REMARK   19  A    between atoms: C_36  and  C_37
REMARK   20  A    between atoms: N_42  and  C_43
REMARK   21  A    between atoms: C_43  and  C_45
REMARK   22  A    between atoms: C_43  and  C_52
REMARK   23  A    between atoms: C_45  and  C_46
REMARK                            x       y       z     vdW  Elec       q    Type
REMARK                         _______ _______ _______ _____ _____    ______ ____
ROOT
ATOM      1  C   UNL     1       9.102   0.316  22.367  0.00  0.00    +0.217 C 
ATOM      2  N   UNL     1       8.256  -0.425  23.164  0.00  0.00    -0.304 N 
ATOM      3  H   UNL     1       7.471   0.029  23.615  0.00  0.00    +0.149 HD
ATOM      4  O   UNL     1      10.042  -0.180  21.754  0.00  0.00    -0.275 OA
ENDROOT
BRANCH   2   5
ATOM      5  C   UNL     1       8.223  -1.922  23.188  0.00  0.00    +0.159 C 
BRANCH   5   6
ATOM      6  C   UNL     1       6.866  -2.497  22.698  0.00  0.00    +0.234 C 
ATOM      7  N   UNL     1       6.637  -3.826  22.964  0.00  0.00    -0.302 N 
ATOM      8  H   UNL     1       7.446  -4.389  23.202  0.00  0.00    +0.150 HD
ATOM      9  O   UNL     1       6.013  -1.797  22.158  0.00  0.00    -0.274 OA
BRANCH   7  10
ATOM     10  C   UNL     1       5.437  -4.531  22.468  0.00  0.00    +0.163 C 
BRANCH  10  11
ATOM     11  C   UNL     1       5.986  -5.622  21.535  0.00  0.00    +0.231 C 
ATOM     12  O   UNL     1       5.907  -5.588  20.309  0.00  0.00    -0.274 OA
ATOM     13  N   UNL     1       6.377  -6.779  22.152  0.00  0.00    -0.328 N 
ATOM     14  H   UNL     1       6.789  -7.492  21.563  0.00  0.00    +0.145 HD
ATOM     15  H   UNL     1       6.558  -6.828  23.147  0.00  0.00    +0.145 HD
ENDBRANCH  10  11
BRANCH  10  16
ATOM     16  C   UNL     1       4.585  -5.144  23.596  0.00  0.00    +0.067 C 
BRANCH  16  17
ATOM     17  C   UNL     1       5.097  -4.881  24.999  0.00  0.00    -0.045 A 
ATOM     18  C   UNL     1       4.880  -3.648  25.631  0.00  0.00    +0.004 A 
ATOM     19  C   UNL     1       5.423  -3.394  26.895  0.00  0.00    +0.000 A 
ATOM     20  C   UNL     1       6.174  -4.371  27.548  0.00  0.00    +0.000 A 
ATOM     21  C   UNL     1       6.376  -5.607  26.939  0.00  0.00    +0.000 A 
ATOM     22  C   UNL     1       5.843  -5.859  25.675  0.00  0.00    +0.004 A 
ENDBRANCH  16  17
ENDBRANCH  10  16
ENDBRANCH   7  10
ENDBRANCH   5   6
BRANCH   5  23
ATOM     23  C   UNL     1       8.614  -2.514  24.551  0.00  0.00    +0.041 C 
BRANCH  23  24
ATOM     24  C   UNL     1       9.826  -3.419  24.658  0.00  0.00    +0.098 C 
BRANCH  24  25
ATOM     25  C   UNL     1       9.448  -4.884  24.792  0.00  0.00    +0.211 C 
ATOM     26  O   UNL     1       8.711  -5.440  23.987  0.00  0.00    -0.276 OA
ATOM     27  N   UNL     1       9.870  -5.567  25.898  0.00  0.00    -0.329 N 
ATOM     28  H   UNL     1       9.626  -6.549  25.939  0.00  0.00    +0.145 HD
ATOM     29  H   UNL     1      10.677  -5.293  26.445  0.00  0.00    +0.145 HD
ENDBRANCH  24  25
ENDBRANCH  23  24
ENDBRANCH   5  23
ENDBRANCH   2   5
BRANCH   1  30
ATOM     30  C   UNL     1       8.909   1.827  22.304  0.00  0.00    +0.086 C 
BRANCH  30  31
ATOM     31  C   UNL     1       9.131   2.464  23.701  0.00  0.00    +0.048 C 
BRANCH  31  32
ATOM     32  C   UNL     1      10.073   3.645  23.727  0.00  0.00    -0.047 A 
ATOM     33  C   UNL     1      11.410   3.515  23.326  0.00  0.00    +0.003 A 
ATOM     34  C   UNL     1      12.249   4.632  23.282  0.00  0.00    +0.000 A 
ATOM     35  C   UNL     1      11.772   5.881  23.671  0.00  0.00    +0.000 A 
ATOM     36  C   UNL     1      10.469   6.008  24.144  0.00  0.00    +0.000 A 
ATOM     37  C   UNL     1       9.625   4.895  24.178  0.00  0.00    +0.003 A 
ENDBRANCH  31  32
ENDBRANCH  30  31
BRANCH  30  38
ATOM     38  C   UNL     1       7.463   2.076  21.779  0.00  0.00    +0.089 C 
BRANCH  38  39
ATOM     39  C   UNL     1       6.739   3.354  22.297  0.00  0.00    +0.155 C 
ATOM     40  O   UNL     1       7.082   4.468  21.886  0.00  0.00    -0.295 OA
BRANCH  39  41
ATOM     41  C   UNL     1       5.481   3.180  23.185  0.00  0.00    +0.147 C 
BRANCH  41  43
ATOM     42  C   UNL     1       6.009   1.753  25.190  0.00  0.00    +0.401 C 
ATOM     43  N   UNL     1       5.797   2.971  24.613  0.00  0.00    -0.271 N 
ATOM     44  H   UNL     1       6.046   3.764  25.189  0.00  0.00    +0.153 HD
ATOM     45  O   UNL     1       5.898   0.683  24.601  0.00  0.00    -0.226 OA
BRANCH  42  46
ATOM     46  O   UNL     1       6.332   1.900  26.505  0.00  0.00    -0.445 OA
BRANCH  46  48
ATOM     47  C   UNL     1       4.752   0.174  27.296  0.00  0.00    +0.055 C 
ATOM     48  C   UNL     1       6.125   0.830  27.484  0.00  0.00    +0.107 C 
ATOM     49  C   UNL     1       7.198  -0.243  27.204  0.00  0.00    +0.055 C 
ATOM     50  C   UNL     1       6.322   1.310  28.930  0.00  0.00    +0.055 C 
ENDBRANCH  46  48
ENDBRANCH  42  46
ENDBRANCH  41  43
BRANCH  41  51
ATOM     51  C   UNL     1       4.684   4.478  22.979  0.00  0.00    +0.065 C 
BRANCH  51  52
ATOM     52  C   UNL     1       3.406   4.395  22.203  0.00  0.00    -0.045 A 
ATOM     53  C   UNL     1       2.678   5.546  21.883  0.00  0.00    +0.004 A 
ATOM     54  C   UNL     1       1.426   5.434  21.285  0.00  0.00    +0.000 A 
ATOM     55  C   UNL     1       0.894   4.175  21.006  0.00  0.00    +0.000 A 
ATOM     56  C   UNL     1       1.617   3.026  21.315  0.00  0.00    +0.000 A 
ATOM     57  C   UNL     1       2.868   3.134  21.912  0.00  0.00    +0.004 A 
ENDBRANCH  51  52
ENDBRANCH  41  51
ENDBRANCH  39  41
ENDBRANCH  38  39
ENDBRANCH  30  38
ENDBRANCH   1  30
TORSDOF 20
ENDMDL
MODEL 9
REMARK VINA RESULT:      -6.2      2.184      5.309
REMARK  Name = 
REMARK  23 active torsions:
REMARK  status: ('A' for Active; 'I' for Inactive)
REMARK    1  A    between atoms: C_1  and  C_2
REMARK    2  A    between atoms: C_2  and  C_3
REMARK    3  A    between atoms: C_2  and  C_4
REMARK    4  A    between atoms: C_2  and  O_5
REMARK    5  A    between atoms: O_5  and  C_6
REMARK    6  A    between atoms: N_8  and  C_9
REMARK    7  A    between atoms: C_9  and  C_11
REMARK    8  A    between atoms: C_9  and  C_18
REMARK    9  A    between atoms: C_11  and  C_12
REMARK   10  A    between atoms: C_18  and  C_20
REMARK   11  A    between atoms: C_20  and  C_21
REMARK   12  A    between atoms: C_21  and  C_23
REMARK   13  A    between atoms: C_21  and  C_30
REMARK   14  A    between atoms: C_23  and  C_24
REMARK   15  A    between atoms: N_32  and  C_33
REMARK   16  A    between atoms: C_33  and  C_35
REMARK   17  A    between atoms: C_33  and  C_40
REMARK   18  A    between atoms: C_35  and  C_36
REMARK   19  A    between atoms: C_36  and  C_37
REMARK   20  A    between atoms: N_42  and  C_43
REMARK   21  A    between atoms: C_43  and  C_45
REMARK   22  A    between atoms: C_43  and  C_52
REMARK   23  A    between atoms: C_45  and  C_46
REMARK                            x       y       z     vdW  Elec       q    Type
REMARK                         _______ _______ _______ _____ _____    ______ ____
ROOT
ATOM      1  C   UNL     1       7.288  -1.603  23.717  0.00  0.00    +0.217 C 
ATOM      2  N   UNL     1       6.920  -1.047  24.924  0.00  0.00    -0.304 N 
ATOM      3  H   UNL     1       7.567  -1.074  25.703  0.00  0.00    +0.149 HD
ATOM      4  O   UNL     1       6.572  -1.562  22.722  0.00  0.00    -0.275 OA
ENDROOT
BRANCH   2   5
ATOM      5  C   UNL     1       5.746  -0.135  25.106  0.00  0.00    +0.159 C 
BRANCH   5   6
ATOM      6  C   UNL     1       5.998   1.284  24.528  0.00  0.00    +0.234 C 
ATOM      7  N   UNL     1       4.889   1.968  24.091  0.00  0.00    -0.302 N 
ATOM      8  H   UNL     1       4.053   1.421  23.923  0.00  0.00    +0.150 HD
ATOM      9  O   UNL     1       7.114   1.799  24.516  0.00  0.00    -0.274 OA
BRANCH   7  10
ATOM     10  C   UNL     1       4.990   3.284  23.426  0.00  0.00    +0.163 C 
BRANCH  10  11
ATOM     11  C   UNL     1       3.600   3.513  22.810  0.00  0.00    +0.231 C 
ATOM     12  O   UNL     1       2.590   2.893  23.133  0.00  0.00    -0.274 OA
ATOM     13  N   UNL     1       3.577   4.302  21.692  0.00  0.00    -0.328 N 
ATOM     14  H   UNL     1       2.667   4.509  21.300  0.00  0.00    +0.145 HD
ATOM     15  H   UNL     1       4.346   4.912  21.443  0.00  0.00    +0.145 HD
ENDBRANCH  10  11
BRANCH  10  16
ATOM     16  C   UNL     1       5.363   4.424  24.391  0.00  0.00    +0.067 C 
BRANCH  16  17
ATOM     17  C   UNL     1       6.643   5.162  24.047  0.00  0.00    -0.045 A 
ATOM     18  C   UNL     1       6.852   5.691  22.766  0.00  0.00    +0.004 A 
ATOM     19  C   UNL     1       8.068   6.302  22.441  0.00  0.00    +0.000 A 
ATOM     20  C   UNL     1       9.080   6.406  23.395  0.00  0.00    +0.000 A 
ATOM     21  C   UNL     1       8.873   5.905  24.677  0.00  0.00    +0.000 A 
ATOM     22  C   UNL     1       7.665   5.287  25.000  0.00  0.00    +0.004 A 
ENDBRANCH  16  17
ENDBRANCH  10  16
ENDBRANCH   7  10
ENDBRANCH   5   6
BRANCH   5  23
ATOM     23  C   UNL     1       5.257  -0.061  26.561  0.00  0.00    +0.041 C 
BRANCH  23  24
ATOM     24  C   UNL     1       6.260   0.115  27.684  0.00  0.00    +0.098 C 
BRANCH  24  25
ATOM     25  C   UNL     1       6.341   1.551  28.172  0.00  0.00    +0.211 C 
ATOM     26  O   UNL     1       5.513   2.022  28.941  0.00  0.00    -0.276 OA
ATOM     27  N   UNL     1       7.315   2.360  27.657  0.00  0.00    -0.329 N 
ATOM     28  H   UNL     1       7.358   3.301  28.028  0.00  0.00    +0.145 HD
ATOM     29  H   UNL     1       8.176   2.006  27.256  0.00  0.00    +0.145 HD
ENDBRANCH  24  25
ENDBRANCH  23  24
ENDBRANCH   5  23
ENDBRANCH   2   5
BRANCH   1  30
ATOM     30  C   UNL     1       8.605  -2.365  23.635  0.00  0.00    +0.086 C 
BRANCH  30  31
ATOM     31  C   UNL     1       9.540  -1.727  22.575  0.00  0.00    +0.048 C 
BRANCH  31  32
ATOM     32  C   UNL     1       9.858  -0.266  22.794  0.00  0.00    -0.047 A 
ATOM     33  C   UNL     1       9.569   0.694  21.816  0.00  0.00    +0.003 A 
ATOM     34  C   UNL     1       9.798   2.051  22.063  0.00  0.00    +0.000 A 
ATOM     35  C   UNL     1      10.350   2.457  23.275  0.00  0.00    +0.000 A 
ATOM     36  C   UNL     1      10.712   1.506  24.225  0.00  0.00    +0.000 A 
ATOM     37  C   UNL     1      10.474   0.150  23.984  0.00  0.00    +0.003 A 
ENDBRANCH  31  32
ENDBRANCH  30  31
BRANCH  30  38
ATOM     38  C   UNL     1       8.251  -3.841  23.278  0.00  0.00    +0.089 C 
BRANCH  38  39
ATOM     39  C   UNL     1       8.464  -4.904  24.396  0.00  0.00    +0.155 C 
ATOM     40  O   UNL     1       9.549  -4.972  24.985  0.00  0.00    -0.295 OA
BRANCH  39  41
ATOM     41  C   UNL     1       7.244  -5.737  24.864  0.00  0.00    +0.147 C 
BRANCH  41  43
ATOM     42  C   UNL     1       6.870  -4.693  27.123  0.00  0.00    +0.401 C 
ATOM     43  N   UNL     1       7.096  -5.782  26.333  0.00  0.00    -0.271 N 
ATOM     44  H   UNL     1       6.980  -6.674  26.795  0.00  0.00    +0.153 HD
ATOM     45  O   UNL     1       6.828  -3.539  26.710  0.00  0.00    -0.226 OA
BRANCH  42  46
ATOM     46  O   UNL     1       6.727  -5.071  28.425  0.00  0.00    -0.445 OA
BRANCH  46  48
ATOM     47  C   UNL     1       4.953  -6.787  28.338  0.00  0.00    +0.055 C 
ATOM     48  C   UNL     1       5.436  -5.482  28.981  0.00  0.00    +0.107 C 
ATOM     49  C   UNL     1       5.666  -5.757  30.482  0.00  0.00    +0.055 C 
ATOM     50  C   UNL     1       4.372  -4.379  28.874  0.00  0.00    +0.055 C 
ENDBRANCH  46  48
ENDBRANCH  42  46
ENDBRANCH  41  43
BRANCH  41  51
ATOM     51  C   UNL     1       6.036  -5.051  24.207  0.00  0.00    +0.065 C 
BRANCH  51  52
ATOM     52  C   UNL     1       4.672  -5.564  24.552  0.00  0.00    -0.045 A 
ATOM     53  C   UNL     1       3.707  -4.726  25.120  0.00  0.00    +0.004 A 
ATOM     54  C   UNL     1       2.498  -5.256  25.561  0.00  0.00    +0.000 A 
ATOM     55  C   UNL     1       2.246  -6.623  25.439  0.00  0.00    +0.000 A 
ATOM     56  C   UNL     1       3.200  -7.461  24.867  0.00  0.00    +0.000 A 
ATOM     57  C   UNL     1       4.409  -6.935  24.426  0.00  0.00    +0.004 A 
ENDBRANCH  51  52
ENDBRANCH  41  51
ENDBRANCH  39  41
ENDBRANCH  38  39
ENDBRANCH  30  38
ENDBRANCH   1  30
TORSDOF 20
ENDMDL
