MODEL 1
REMARK VINA RESULT:      -7.4      0.000      0.000
REMARK  Name = 
REMARK  12 active torsions:
REMARK  status: ('A' for Active; 'I' for Inactive)
REMARK    1  A    between atoms: O_1  and  C_2
REMARK    2  A    between atoms: C_4  and  C_6
REMARK    3  A    between atoms: C_6  and  O_7
REMARK    4  A    between atoms: O_7  and  P_8
REMARK    5  A    between atoms: P_8  and  O_9
REMARK    6  A    between atoms: P_8  and  O_10
REMARK    7  A    between atoms: C_13  and  N_18
REMARK    8  A    between atoms: C_15  and  O_17
REMARK    9  A    between atoms: C_27  and  S_28
REMARK   10  A    between atoms: S_28  and  P_29
REMARK   11  A    between atoms: P_29  and  O_30
REMARK   12  A    between atoms: P_29  and  O_31
REMARK                            x       y       z     vdW  Elec       q    Type
REMARK                         _______ _______ _______ _____ _____    ______ ____
ROOT
ATOM      1  C   UNL     1       7.286  -5.139  24.418  0.00  0.00    +0.178 C 
ATOM      2  C   UNL     1       8.507  -4.681  25.214  0.00  0.00    +0.195 C 
ATOM      3  C   UNL     1       7.939  -3.609  26.152  0.00  0.00    +0.253 C 
ATOM      4  O   UNL     1       6.503  -3.607  26.015  0.00  0.00    -0.346 OA
ATOM      5  C   UNL     1       6.117  -4.833  25.351  0.00  0.00    +0.178 C 
ENDROOT
BRANCH   3   6
ATOM      6  N   UNL     1       8.436  -2.269  25.876  0.00  0.00    -0.285 N 
ATOM      7  C   UNL     1       9.162  -1.880  24.776  0.00  0.00    +0.175 A 
ATOM      8  N   UNL     1       9.528  -2.630  23.737  0.00  0.00    -0.173 NA
ATOM      9  C   UNL     1      10.185  -1.888  22.825  0.00  0.00    +0.430 A 
ATOM     10  N   UNL     1      10.479  -0.588  22.927  0.00  0.00    -0.187 N 
ATOM     11  C   UNL     1      10.164   0.157  23.994  0.00  0.00    +0.282 A 
ATOM     12  H   UNL     1      10.917  -0.128  22.133  0.00  0.00    +0.455 HD
ATOM     13  C   UNL     1       9.420  -0.522  24.959  0.00  0.00    +0.187 A 
ATOM     14  N   UNL     1       8.819  -0.093  26.119  0.00  0.00    -0.227 NA
ATOM     15  C   UNL     1       8.274  -1.160  26.666  0.00  0.00    +0.204 A 
BRANCH  11  16
ATOM     16  S   UNL     1      10.370   1.888  24.007  0.00  0.00    +0.066 S 
BRANCH  16  17
ATOM     17  P   UNL     1       8.767   2.520  22.771  0.00  0.00    +0.396 P 
ATOM     18  O   UNL     1       7.597   2.981  21.869  0.00  0.00    -0.246 OA
BRANCH  17  19
ATOM     19  O   UNL     1       9.736   2.190  21.495  0.00  0.00    -0.316 OA
ATOM     20  H   UNL     1      10.633   2.025  21.849  0.00  0.00    +0.221 HD
ENDBRANCH  17  19
BRANCH  17  21
ATOM     21  O   UNL     1       9.344   4.044  22.965  0.00  0.00    -0.316 OA
ATOM     22  H   UNL     1       9.171   4.453  23.831  0.00  0.00    +0.221 HD
ENDBRANCH  17  21
ENDBRANCH  16  17
ENDBRANCH  11  16
ENDBRANCH   3   6
BRANCH   1  23
ATOM     23  O   UNL     1       7.214  -4.374  23.213  0.00  0.00    -0.386 OA
ATOM     24  H   UNL     1       6.299  -4.369  22.879  0.00  0.00    +0.210 HD
ENDBRANCH   1  23
BRANCH   2  25
ATOM     25  O   UNL     1       9.047  -5.750  25.998  0.00  0.00    -0.385 OA
ATOM     26  H   UNL     1       9.419  -6.431  25.408  0.00  0.00    +0.210 HD
ENDBRANCH   2  25
BRANCH   5  27
ATOM     27  C   UNL     1       5.870  -5.957  26.367  0.00  0.00    +0.206 C 
BRANCH  27  28
ATOM     28  O   UNL     1       5.332  -5.414  27.572  0.00  0.00    -0.284 OA
BRANCH  28  29
ATOM     29  P   UNL     1       5.884  -6.250  28.983  0.00  0.00    +0.472 P 
ATOM     30  O   UNL     1       6.378  -6.998  30.245  0.00  0.00    -0.228 OA
BRANCH  29  31
ATOM     31  O   UNL     1       7.346  -6.324  28.258  0.00  0.00    -0.303 OA
ATOM     32  H   UNL     1       7.644  -7.255  28.313  0.00  0.00    +0.222 HD
ENDBRANCH  29  31
BRANCH  29  33
ATOM     33  O   UNL     1       5.297  -7.597  28.255  0.00  0.00    -0.303 OA
ATOM     34  H   UNL     1       4.334  -7.592  28.401  0.00  0.00    +0.222 HD
ENDBRANCH  29  33
ENDBRANCH  28  29
ENDBRANCH  27  28
ENDBRANCH   5  27
TORSDOF 12
ENDMDL
MODEL 2
REMARK VINA RESULT:      -7.1      2.660      8.716
REMARK  Name = 
REMARK  12 active torsions:
REMARK  status: ('A' for Active; 'I' for Inactive)
REMARK    1  A    between atoms: O_1  and  C_2
REMARK    2  A    between atoms: C_4  and  C_6
REMARK    3  A    between atoms: C_6  and  O_7
REMARK    4  A    between atoms: O_7  and  P_8
REMARK    5  A    between atoms: P_8  and  O_9
REMARK    6  A    between atoms: P_8  and  O_10
REMARK    7  A    between atoms: C_13  and  N_18
REMARK    8  A    between atoms: C_15  and  O_17
REMARK    9  A    between atoms: C_27  and  S_28
REMARK   10  A    between atoms: S_28  and  P_29
REMARK   11  A    between atoms: P_29  and  O_30
REMARK   12  A    between atoms: P_29  and  O_31
REMARK                            x       y       z     vdW  Elec       q    Type
REMARK                         _______ _______ _______ _____ _____    ______ ____
ROOT
ATOM      1  C   UNL     1      10.580   1.832  23.775  0.00  0.00    +0.178 C 
ATOM      2  C   UNL     1       9.764   1.188  22.656  0.00  0.00    +0.195 C 
ATOM      3  C   UNL     1       8.336   1.182  23.215  0.00  0.00    +0.253 C 
ATOM      4  O   UNL     1       8.335   1.924  24.453  0.00  0.00    -0.346 OA
ATOM      5  C   UNL     1       9.557   2.694  24.512  0.00  0.00    +0.178 C 
ENDROOT
BRANCH   3   6
ATOM      6  N   UNL     1       7.814  -0.153  23.470  0.00  0.00    -0.285 N 
ATOM      7  C   UNL     1       8.059  -0.925  24.581  0.00  0.00    +0.175 A 
ATOM      8  N   UNL     1       8.787  -0.604  25.649  0.00  0.00    -0.173 NA
ATOM      9  C   UNL     1       8.754  -1.595  26.560  0.00  0.00    +0.430 A 
ATOM     10  N   UNL     1       8.122  -2.766  26.432  0.00  0.00    -0.187 N 
ATOM     11  C   UNL     1       7.435  -3.117  25.337  0.00  0.00    +0.282 A 
ATOM     12  H   UNL     1       8.115  -3.401  27.227  0.00  0.00    +0.455 HD
ATOM     13  C   UNL     1       7.364  -2.114  24.369  0.00  0.00    +0.187 A 
ATOM     14  N   UNL     1       6.675  -2.039  23.181  0.00  0.00    -0.227 NA
ATOM     15  C   UNL     1       6.992  -0.878  22.647  0.00  0.00    +0.204 A 
BRANCH  11  16
ATOM     16  S   UNL     1       6.448  -4.552  25.285  0.00  0.00    +0.066 S 
BRANCH  16  17
ATOM     17  P   UNL     1       6.601  -5.251  27.281  0.00  0.00    +0.396 P 
ATOM     18  O   UNL     1       6.712  -5.759  28.739  0.00  0.00    -0.246 OA
BRANCH  17  19
ATOM     19  O   UNL     1       8.087  -5.805  26.882  0.00  0.00    -0.316 OA
ATOM     20  H   UNL     1       8.381  -6.390  27.609  0.00  0.00    +0.221 HD
ENDBRANCH  17  19
BRANCH  17  21
ATOM     21  O   UNL     1       5.829  -6.603  26.767  0.00  0.00    -0.316 OA
ATOM     22  H   UNL     1       4.901  -6.692  27.048  0.00  0.00    +0.221 HD
ENDBRANCH  17  21
ENDBRANCH  16  17
ENDBRANCH  11  16
ENDBRANCH   3   6
BRANCH   1  23
ATOM     23  O   UNL     1      11.102   0.798  24.613  0.00  0.00    -0.386 OA
ATOM     24  H   UNL     1      10.370   0.332  25.055  0.00  0.00    +0.210 HD
ENDBRANCH   1  23
BRANCH   2  25
ATOM     25  O   UNL     1       9.796   1.981  21.465  0.00  0.00    -0.385 OA
ATOM     26  H   UNL     1      10.498   1.653  20.873  0.00  0.00    +0.210 HD
ENDBRANCH   2  25
BRANCH   5  27
ATOM     27  C   UNL     1       9.375   4.071  23.858  0.00  0.00    +0.206 C 
BRANCH  27  28
ATOM     28  O   UNL     1       8.045   4.540  24.076  0.00  0.00    -0.284 OA
BRANCH  28  29
ATOM     29  P   UNL     1       7.483   5.566  22.801  0.00  0.00    +0.472 P 
ATOM     30  O   UNL     1       6.981   6.484  21.660  0.00  0.00    -0.228 OA
BRANCH  29  31
ATOM     31  O   UNL     1       7.717   4.298  21.799  0.00  0.00    -0.303 OA
ATOM     32  H   UNL     1       7.616   3.487  22.338  0.00  0.00    +0.222 HD
ENDBRANCH  29  31
BRANCH  29  33
ATOM     33  O   UNL     1       9.033   6.096  22.722  0.00  0.00    -0.303 OA
ATOM     34  H   UNL     1       9.056   6.951  23.188  0.00  0.00    +0.222 HD
ENDBRANCH  29  33
ENDBRANCH  28  29
ENDBRANCH  27  28
ENDBRANCH   5  27
TORSDOF 12
ENDMDL
MODEL 3
REMARK VINA RESULT:      -7.0      2.759      8.303
REMARK  Name = 
REMARK  12 active torsions:
REMARK  status: ('A' for Active; 'I' for Inactive)
REMARK    1  A    between atoms: O_1  and  C_2
REMARK    2  A    between atoms: C_4  and  C_6
REMARK    3  A    between atoms: C_6  and  O_7
REMARK    4  A    between atoms: O_7  and  P_8
REMARK    5  A    between atoms: P_8  and  O_9
REMARK    6  A    between atoms: P_8  and  O_10
REMARK    7  A    between atoms: C_13  and  N_18
REMARK    8  A    between atoms: C_15  and  O_17
REMARK    9  A    between atoms: C_27  and  S_28
REMARK   10  A    between atoms: S_28  and  P_29
REMARK   11  A    between atoms: P_29  and  O_30
REMARK   12  A    between atoms: P_29  and  O_31
REMARK                            x       y       z     vdW  Elec       q    Type
REMARK                         _______ _______ _______ _____ _____    ______ ____
ROOT
ATOM      1  C   UNL     1       9.834  -0.388  23.646  0.00  0.00    +0.178 C 
ATOM      2  C   UNL     1       9.796  -1.766  22.988  0.00  0.00    +0.195 C 
ATOM      3  C   UNL     1       8.314  -1.955  22.642  0.00  0.00    +0.253 C 
ATOM      4  O   UNL     1       7.627  -0.716  22.916  0.00  0.00    -0.346 OA
ATOM      5  C   UNL     1       8.621   0.325  23.051  0.00  0.00    +0.178 C 
ENDROOT
BRANCH   3   6
ATOM      6  N   UNL     1       7.671  -3.023  23.393  0.00  0.00    -0.285 N 
ATOM      7  C   UNL     1       7.209  -2.946  24.685  0.00  0.00    +0.175 A 
ATOM      8  N   UNL     1       7.228  -1.887  25.494  0.00  0.00    -0.173 NA
ATOM      9  C   UNL     1       6.638  -2.178  26.668  0.00  0.00    +0.430 A 
ATOM     10  N   UNL     1       6.126  -3.359  27.026  0.00  0.00    -0.187 N 
ATOM     11  C   UNL     1       6.155  -4.443  26.239  0.00  0.00    +0.282 A 
ATOM     12  H   UNL     1       5.642  -3.427  27.917  0.00  0.00    +0.455 HD
ATOM     13  C   UNL     1       6.692  -4.208  24.972  0.00  0.00    +0.187 A 
ATOM     14  N   UNL     1       6.793  -5.011  23.860  0.00  0.00    -0.227 NA
ATOM     15  C   UNL     1       7.415  -4.294  22.947  0.00  0.00    +0.204 A 
BRANCH  11  16
ATOM     16  S   UNL     1       5.295  -5.904  26.644  0.00  0.00    +0.066 S 
BRANCH  16  17
ATOM     17  P   UNL     1       5.866  -6.191  28.666  0.00  0.00    +0.396 P 
ATOM     18  O   UNL     1       6.282  -6.400  30.142  0.00  0.00    -0.246 OA
BRANCH  17  19
ATOM     19  O   UNL     1       7.415  -6.169  28.140  0.00  0.00    -0.316 OA
ATOM     20  H   UNL     1       7.667  -7.096  27.950  0.00  0.00    +0.221 HD
ENDBRANCH  17  19
BRANCH  17  21
ATOM     21  O   UNL     1       5.672  -7.797  28.393  0.00  0.00    -0.316 OA
ATOM     22  H   UNL     1       4.751  -8.113  28.379  0.00  0.00    +0.221 HD
ENDBRANCH  17  21
ENDBRANCH  16  17
ENDBRANCH  11  16
ENDBRANCH   3   6
BRANCH   1  23
ATOM     23  O   UNL     1       9.706  -0.554  25.060  0.00  0.00    -0.386 OA
ATOM     24  H   UNL     1       9.783   0.311  25.502  0.00  0.00    +0.210 HD
ENDBRANCH   1  23
BRANCH   2  25
ATOM     25  O   UNL     1      10.565  -1.787  21.780  0.00  0.00    -0.385 OA
ATOM     26  H   UNL     1      10.230  -2.489  21.193  0.00  0.00    +0.210 HD
ENDBRANCH   2  25
BRANCH   5  27
ATOM     27  C   UNL     1       8.932   0.970  21.693  0.00  0.00    +0.206 C 
BRANCH  27  28
ATOM     28  O   UNL     1       8.377   2.284  21.641  0.00  0.00    -0.284 OA
BRANCH  28  29
ATOM     29  P   UNL     1       8.576   3.150  23.126  0.00  0.00    +0.472 P 
ATOM     30  O   UNL     1       8.753   3.926  24.453  0.00  0.00    -0.228 OA
BRANCH  29  31
ATOM     31  O   UNL     1       8.047   4.470  22.322  0.00  0.00    -0.303 OA
ATOM     32  H   UNL     1       8.758   5.141  22.378  0.00  0.00    +0.222 HD
ENDBRANCH  29  31
BRANCH  29  33
ATOM     33  O   UNL     1      10.140   3.322  22.665  0.00  0.00    -0.303 OA
ATOM     34  H   UNL     1      10.683   3.008  23.410  0.00  0.00    +0.222 HD
ENDBRANCH  29  33
ENDBRANCH  28  29
ENDBRANCH  27  28
ENDBRANCH   5  27
TORSDOF 12
ENDMDL
MODEL 4
REMARK VINA RESULT:      -7.0      1.747      2.653
REMARK  Name = 
REMARK  12 active torsions:
REMARK  status: ('A' for Active; 'I' for Inactive)
REMARK    1  A    between atoms: O_1  and  C_2
REMARK    2  A    between atoms: C_4  and  C_6
REMARK    3  A    between atoms: C_6  and  O_7
REMARK    4  A    between atoms: O_7  and  P_8
REMARK    5  A    between atoms: P_8  and  O_9
REMARK    6  A    between atoms: P_8  and  O_10
REMARK    7  A    between atoms: C_13  and  N_18
REMARK    8  A    between atoms: C_15  and  O_17
REMARK    9  A    between atoms: C_27  and  S_28
REMARK   10  A    between atoms: S_28  and  P_29
REMARK   11  A    between atoms: P_29  and  O_30
REMARK   12  A    between atoms: P_29  and  O_31
REMARK                            x       y       z     vdW  Elec       q    Type
REMARK                         _______ _______ _______ _____ _____    ______ ____
ROOT
ATOM      1  C   UNL     1       5.911  -4.945  21.965  0.00  0.00    +0.178 C 
ATOM      2  C   UNL     1       7.413  -4.875  22.238  0.00  0.00    +0.195 C 
ATOM      3  C   UNL     1       7.499  -4.104  23.560  0.00  0.00    +0.253 C 
ATOM      4  O   UNL     1       6.159  -3.926  24.066  0.00  0.00    -0.346 OA
ATOM      5  C   UNL     1       5.291  -4.840  23.357  0.00  0.00    +0.178 C 
ENDROOT
BRANCH   3   6
ATOM      6  N   UNL     1       8.129  -2.797  23.434  0.00  0.00    -0.285 N 
ATOM      7  C   UNL     1       8.461  -1.951  24.465  0.00  0.00    +0.175 A 
ATOM      8  N   UNL     1       8.306  -2.161  25.772  0.00  0.00    -0.173 NA
ATOM      9  C   UNL     1       8.798  -1.127  26.479  0.00  0.00    +0.430 A 
ATOM     10  N   UNL     1       9.340  -0.013  25.978  0.00  0.00    -0.187 N 
ATOM     11  C   UNL     1       9.448   0.229  24.665  0.00  0.00    +0.282 A 
ATOM     12  H   UNL     1       9.742   0.662  26.625  0.00  0.00    +0.455 HD
ATOM     13  C   UNL     1       9.020  -0.827  23.859  0.00  0.00    +0.187 A 
ATOM     14  N   UNL     1       9.070  -1.015  22.498  0.00  0.00    -0.227 NA
ATOM     15  C   UNL     1       8.497  -2.179  22.268  0.00  0.00    +0.204 A 
BRANCH  11  16
ATOM     16  S   UNL     1      10.348   1.586  24.045  0.00  0.00    +0.066 S 
BRANCH  16  17
ATOM     17  P   UNL     1       8.864   2.610  22.928  0.00  0.00    +0.396 P 
ATOM     18  O   UNL     1       7.780   3.358  22.114  0.00  0.00    -0.246 OA
BRANCH  17  19
ATOM     19  O   UNL     1       9.613   2.052  21.585  0.00  0.00    -0.316 OA
ATOM     20  H   UNL     1       8.987   2.158  20.841  0.00  0.00    +0.221 HD
ENDBRANCH  17  19
BRANCH  17  21
ATOM     21  O   UNL     1       9.822   3.937  23.053  0.00  0.00    -0.316 OA
ATOM     22  H   UNL     1       9.480   4.651  23.619  0.00  0.00    +0.221 HD
ENDBRANCH  17  21
ENDBRANCH  16  17
ENDBRANCH  11  16
ENDBRANCH   3   6
BRANCH   1  23
ATOM     23  O   UNL     1       5.546  -3.837  21.139  0.00  0.00    -0.386 OA
ATOM     24  H   UNL     1       5.842  -3.995  20.225  0.00  0.00    +0.210 HD
ENDBRANCH   1  23
BRANCH   2  25
ATOM     25  O   UNL     1       7.969  -6.182  22.422  0.00  0.00    -0.385 OA
ATOM     26  H   UNL     1       7.660  -6.552  23.269  0.00  0.00    +0.210 HD
ENDBRANCH   2  25
BRANCH   5  27
ATOM     27  C   UNL     1       5.220  -6.198  24.068  0.00  0.00    +0.206 C 
BRANCH  27  28
ATOM     28  O   UNL     1       5.448  -6.027  25.467  0.00  0.00    -0.284 OA
BRANCH  28  29
ATOM     29  P   UNL     1       4.101  -6.534  26.428  0.00  0.00    +0.472 P 
ATOM     30  O   UNL     1       2.896  -6.989  27.288  0.00  0.00    -0.228 OA
BRANCH  29  31
ATOM     31  O   UNL     1       5.188  -7.263  27.405  0.00  0.00    -0.303 OA
ATOM     32  H   UNL     1       5.425  -6.615  28.100  0.00  0.00    +0.222 HD
ENDBRANCH  29  31
BRANCH  29  33
ATOM     33  O   UNL     1       3.992  -7.789  25.378  0.00  0.00    -0.303 OA
ATOM     34  H   UNL     1       3.559  -7.442  24.577  0.00  0.00    +0.222 HD
ENDBRANCH  29  33
ENDBRANCH  28  29
ENDBRANCH  27  28
ENDBRANCH   5  27
TORSDOF 12
ENDMDL
MODEL 5
REMARK VINA RESULT:      -7.0      2.121      2.760
REMARK  Name = 
REMARK  12 active torsions:
REMARK  status: ('A' for Active; 'I' for Inactive)
REMARK    1  A    between atoms: O_1  and  C_2
REMARK    2  A    between atoms: C_4  and  C_6
REMARK    3  A    between atoms: C_6  and  O_7
REMARK    4  A    between atoms: O_7  and  P_8
REMARK    5  A    between atoms: P_8  and  O_9
REMARK    6  A    between atoms: P_8  and  O_10
REMARK    7  A    between atoms: C_13  and  N_18
REMARK    8  A    between atoms: C_15  and  O_17
REMARK    9  A    between atoms: C_27  and  S_28
REMARK   10  A    between atoms: S_28  and  P_29
REMARK   11  A    between atoms: P_29  and  O_30
REMARK   12  A    between atoms: P_29  and  O_31
REMARK                            x       y       z     vdW  Elec       q    Type
REMARK                         _______ _______ _______ _____ _____    ______ ____
ROOT
ATOM      1  C   UNL     1       8.024  -5.614  25.143  0.00  0.00    +0.178 C 
ATOM      2  C   UNL     1       8.312  -4.719  26.347  0.00  0.00    +0.195 C 
ATOM      3  C   UNL     1       7.427  -3.493  26.098  0.00  0.00    +0.253 C 
ATOM      4  O   UNL     1       6.588  -3.767  24.957  0.00  0.00    -0.346 OA
ATOM      5  C   UNL     1       6.622  -5.191  24.712  0.00  0.00    +0.178 C 
ENDROOT
BRANCH   3   6
ATOM      6  N   UNL     1       8.178  -2.272  25.844  0.00  0.00    -0.285 N 
ATOM      7  C   UNL     1       8.792  -1.925  24.665  0.00  0.00    +0.175 A 
ATOM      8  N   UNL     1       8.802  -2.608  23.521  0.00  0.00    -0.173 NA
ATOM      9  C   UNL     1       9.464  -1.927  22.567  0.00  0.00    +0.430 A 
ATOM     10  N   UNL     1      10.071  -0.746  22.716  0.00  0.00    -0.187 N 
ATOM     11  C   UNL     1      10.113  -0.080  23.878  0.00  0.00    +0.282 A 
ATOM     12  H   UNL     1      10.474  -0.302  21.894  0.00  0.00    +0.455 HD
ATOM     13  C   UNL     1       9.391  -0.689  24.905  0.00  0.00    +0.187 A 
ATOM     14  N   UNL     1       9.099  -0.277  26.184  0.00  0.00    -0.227 NA
ATOM     15  C   UNL     1       8.409  -1.256  26.735  0.00  0.00    +0.204 A 
BRANCH  11  16
ATOM     16  S   UNL     1      10.723   1.549  23.989  0.00  0.00    +0.066 S 
BRANCH  16  17
ATOM     17  P   UNL     1       9.179   2.651  23.040  0.00  0.00    +0.396 P 
ATOM     18  O   UNL     1       8.051   3.455  22.349  0.00  0.00    -0.246 OA
BRANCH  17  19
ATOM     19  O   UNL     1       9.823   2.162  21.618  0.00  0.00    -0.316 OA
ATOM     20  H   UNL     1      10.704   1.784  21.816  0.00  0.00    +0.221 HD
ENDBRANCH  17  19
BRANCH  17  21
ATOM     21  O   UNL     1      10.162   3.958  23.171  0.00  0.00    -0.316 OA
ATOM     22  H   UNL     1      10.457   4.174  24.073  0.00  0.00    +0.221 HD
ENDBRANCH  17  21
ENDBRANCH  16  17
ENDBRANCH  11  16
ENDBRANCH   3   6
BRANCH   1  23
ATOM     23  O   UNL     1       8.993  -5.339  24.128  0.00  0.00    -0.386 OA
ATOM     24  H   UNL     1       8.973  -4.392  23.900  0.00  0.00    +0.210 HD
ENDBRANCH   1  23
BRANCH   2  25
ATOM     25  O   UNL     1       7.910  -5.347  27.569  0.00  0.00    -0.385 OA
ATOM     26  H   UNL     1       8.225  -6.270  27.581  0.00  0.00    +0.210 HD
ENDBRANCH   2  25
BRANCH   5  27
ATOM     27  C   UNL     1       5.525  -5.915  25.506  0.00  0.00    +0.206 C 
BRANCH  27  28
ATOM     28  O   UNL     1       4.919  -6.920  24.693  0.00  0.00    -0.284 OA
BRANCH  28  29
ATOM     29  P   UNL     1       3.500  -6.353  23.881  0.00  0.00    +0.472 P 
ATOM     30  O   UNL     1       2.230  -5.847  23.154  0.00  0.00    -0.228 OA
BRANCH  29  31
ATOM     31  O   UNL     1       3.030  -7.915  23.803  0.00  0.00    -0.303 OA
ATOM     32  H   UNL     1       3.815  -8.436  23.536  0.00  0.00    +0.222 HD
ENDBRANCH  29  31
BRANCH  29  33
ATOM     33  O   UNL     1       4.413  -6.413  22.520  0.00  0.00    -0.303 OA
ATOM     34  H   UNL     1       3.914  -5.937  21.832  0.00  0.00    +0.222 HD
ENDBRANCH  29  33
ENDBRANCH  28  29
ENDBRANCH  27  28
ENDBRANCH   5  27
TORSDOF 12
ENDMDL
MODEL 6
REMARK VINA RESULT:      -7.0      3.203      4.351
REMARK  Name = 
REMARK  12 active torsions:
REMARK  status: ('A' for Active; 'I' for Inactive)
REMARK    1  A    between atoms: O_1  and  C_2
REMARK    2  A    between atoms: C_4  and  C_6
REMARK    3  A    between atoms: C_6  and  O_7
REMARK    4  A    between atoms: O_7  and  P_8
REMARK    5  A    between atoms: P_8  and  O_9
REMARK    6  A    between atoms: P_8  and  O_10
REMARK    7  A    between atoms: C_13  and  N_18
REMARK    8  A    between atoms: C_15  and  O_17
REMARK    9  A    between atoms: C_27  and  S_28
REMARK   10  A    between atoms: S_28  and  P_29
REMARK   11  A    between atoms: P_29  and  O_30
REMARK   12  A    between atoms: P_29  and  O_31
REMARK                            x       y       z     vdW  Elec       q    Type
REMARK                         _______ _______ _______ _____ _____    ______ ____
ROOT
ATOM      1  C   UNL     1       9.409  -3.026  24.105  0.00  0.00    +0.178 C 
ATOM      2  C   UNL     1       8.687  -2.196  25.165  0.00  0.00    +0.195 C 
ATOM      3  C   UNL     1       7.397  -1.761  24.459  0.00  0.00    +0.253 C 
ATOM      4  O   UNL     1       7.327  -2.443  23.189  0.00  0.00    -0.346 OA
ATOM      5  C   UNL     1       8.275  -3.535  23.218  0.00  0.00    +0.178 C 
ENDROOT
BRANCH   3   6
ATOM      6  N   UNL     1       7.315  -0.327  24.224  0.00  0.00    -0.285 N 
ATOM      7  C   UNL     1       7.943   0.371  23.221  0.00  0.00    +0.175 A 
ATOM      8  N   UNL     1       8.720  -0.115  22.254  0.00  0.00    -0.173 NA
ATOM      9  C   UNL     1       9.114   0.867  21.423  0.00  0.00    +0.430 A 
ATOM     10  N   UNL     1       8.818   2.165  21.536  0.00  0.00    -0.187 N 
ATOM     11  C   UNL     1       8.084   2.669  22.537  0.00  0.00    +0.282 A 
ATOM     12  H   UNL     1       9.119   2.796  20.797  0.00  0.00    +0.455 HD
ATOM     13  C   UNL     1       7.579   1.704  23.409  0.00  0.00    +0.187 A 
ATOM     14  N   UNL     1       6.710   1.798  24.471  0.00  0.00    -0.227 NA
ATOM     15  C   UNL     1       6.600   0.581  24.963  0.00  0.00    +0.204 A 
BRANCH  11  16
ATOM     16  S   UNL     1       7.539   4.324  22.542  0.00  0.00    +0.066 S 
BRANCH  16  17
ATOM     17  P   UNL     1       8.878   5.213  23.926  0.00  0.00    +0.396 P 
ATOM     18  O   UNL     1       9.854   5.861  24.938  0.00  0.00    -0.246 OA
BRANCH  17  19
ATOM     19  O   UNL     1       9.144   6.365  22.796  0.00  0.00    -0.316 OA
ATOM     20  H   UNL     1       8.311   6.868  22.696  0.00  0.00    +0.221 HD
ENDBRANCH  17  19
BRANCH  17  21
ATOM     21  O   UNL     1      10.019   4.197  23.329  0.00  0.00    -0.316 OA
ATOM     22  H   UNL     1      10.923   4.337  23.661  0.00  0.00    +0.221 HD
ENDBRANCH  17  21
ENDBRANCH  16  17
ENDBRANCH  11  16
ENDBRANCH   3   6
BRANCH   1  23
ATOM     23  O   UNL     1      10.300  -2.171  23.384  0.00  0.00    -0.386 OA
ATOM     24  H   UNL     1      11.201  -2.540  23.407  0.00  0.00    +0.210 HD
ENDBRANCH   1  23
BRANCH   2  25
ATOM     25  O   UNL     1       8.350  -2.990  26.307  0.00  0.00    -0.385 OA
ATOM     26  H   UNL     1       7.384  -3.123  26.338  0.00  0.00    +0.210 HD
ENDBRANCH   2  25
BRANCH   5  27
ATOM     27  C   UNL     1       7.628  -4.813  23.772  0.00  0.00    +0.206 C 
BRANCH  27  28
ATOM     28  O   UNL     1       6.277  -4.907  23.325  0.00  0.00    -0.284 OA
BRANCH  28  29
ATOM     29  P   UNL     1       6.158  -5.286  21.640  0.00  0.00    +0.472 P 
ATOM     30  O   UNL     1       6.051  -5.624  20.133  0.00  0.00    -0.228 OA
BRANCH  29  31
ATOM     31  O   UNL     1       5.381  -3.859  21.466  0.00  0.00    -0.303 OA
ATOM     32  H   UNL     1       5.634  -3.503  20.589  0.00  0.00    +0.222 HD
ENDBRANCH  29  31
BRANCH  29  33
ATOM     33  O   UNL     1       4.814  -6.128  22.058  0.00  0.00    -0.303 OA
ATOM     34  H   UNL     1       4.181  -5.478  22.412  0.00  0.00    +0.222 HD
ENDBRANCH  29  33
ENDBRANCH  28  29
ENDBRANCH  27  28
ENDBRANCH   5  27
TORSDOF 12
ENDMDL
MODEL 7
REMARK VINA RESULT:      -6.9      3.899      8.115
REMARK  Name = 
REMARK  12 active torsions:
REMARK  status: ('A' for Active; 'I' for Inactive)
REMARK    1  A    between atoms: O_1  and  C_2
REMARK    2  A    between atoms: C_4  and  C_6
REMARK    3  A    between atoms: C_6  and  O_7
REMARK    4  A    between atoms: O_7  and  P_8
REMARK    5  A    between atoms: P_8  and  O_9
REMARK    6  A    between atoms: P_8  and  O_10
REMARK    7  A    between atoms: C_13  and  N_18
REMARK    8  A    between atoms: C_15  and  O_17
REMARK    9  A    between atoms: C_27  and  S_28
REMARK   10  A    between atoms: S_28  and  P_29
REMARK   11  A    between atoms: P_29  and  O_30
REMARK   12  A    between atoms: P_29  and  O_31
REMARK                            x       y       z     vdW  Elec       q    Type
REMARK                         _______ _______ _______ _____ _____    ______ ____
ROOT
ATOM      1  C   UNL     1       9.790  -0.400  22.253  0.00  0.00    +0.178 C 
ATOM      2  C   UNL     1       8.291  -0.457  22.541  0.00  0.00    +0.195 C 
ATOM      3  C   UNL     1       8.218  -1.127  23.919  0.00  0.00    +0.253 C 
ATOM      4  O   UNL     1       9.562  -1.258  24.427  0.00  0.00    -0.346 OA
ATOM      5  C   UNL     1      10.420  -0.396  23.644  0.00  0.00    +0.178 C 
ENDROOT
BRANCH   3   6
ATOM      6  N   UNL     1       7.596  -2.443  23.897  0.00  0.00    -0.285 N 
ATOM      7  C   UNL     1       6.890  -3.026  24.921  0.00  0.00    +0.175 A 
ATOM      8  N   UNL     1       6.608  -2.506  26.115  0.00  0.00    -0.173 NA
ATOM      9  C   UNL     1       5.851  -3.355  26.834  0.00  0.00    +0.430 A 
ATOM     10  N   UNL     1       5.447  -4.571  26.455  0.00  0.00    -0.187 N 
ATOM     11  C   UNL     1       5.774  -5.122  25.279  0.00  0.00    +0.282 A 
ATOM     12  H   UNL     1       4.815  -5.083  27.066  0.00  0.00    +0.455 HD
ATOM     13  C   UNL     1       6.505  -4.278  24.443  0.00  0.00    +0.187 A 
ATOM     14  N   UNL     1       6.926  -4.423  23.141  0.00  0.00    -0.227 NA
ATOM     15  C   UNL     1       7.607  -3.333  22.854  0.00  0.00    +0.204 A 
BRANCH  11  16
ATOM     16  S   UNL     1       5.060  -6.613  24.726  0.00  0.00    +0.066 S 
BRANCH  16  17
ATOM     17  P   UNL     1       3.405  -5.906  23.604  0.00  0.00    +0.396 P 
ATOM     18  O   UNL     1       2.197  -5.389  22.786  0.00  0.00    -0.246 OA
BRANCH  17  19
ATOM     19  O   UNL     1       2.917  -7.465  23.506  0.00  0.00    -0.316 OA
ATOM     20  H   UNL     1       2.242  -7.511  22.799  0.00  0.00    +0.221 HD
ENDBRANCH  17  19
BRANCH  17  21
ATOM     21  O   UNL     1       4.378  -6.005  22.287  0.00  0.00    -0.316 OA
ATOM     22  H   UNL     1       3.925  -5.975  21.426  0.00  0.00    +0.221 HD
ENDBRANCH  17  21
ENDBRANCH  16  17
ENDBRANCH  11  16
ENDBRANCH   3   6
BRANCH   1  23
ATOM     23  O   UNL     1      10.157  -1.565  21.511  0.00  0.00    -0.386 OA
ATOM     24  H   UNL     1      10.196  -2.336  22.105  0.00  0.00    +0.210 HD
ENDBRANCH   1  23
BRANCH   2  25
ATOM     25  O   UNL     1       7.728   0.856  22.629  0.00  0.00    -0.385 OA
ATOM     26  H   UNL     1       8.328   1.436  23.134  0.00  0.00    +0.210 HD
ENDBRANCH   2  25
BRANCH   5  27
ATOM     27  C   UNL     1      10.488   1.013  24.250  0.00  0.00    +0.206 C 
BRANCH  27  28
ATOM     28  O   UNL     1      10.531   1.988  23.210  0.00  0.00    -0.284 OA
BRANCH  28  29
ATOM     29  P   UNL     1       9.859   3.508  23.693  0.00  0.00    +0.472 P 
ATOM     30  O   UNL     1       9.258   4.867  24.126  0.00  0.00    -0.228 OA
BRANCH  29  31
ATOM     31  O   UNL     1       8.878   2.657  24.684  0.00  0.00    -0.303 OA
ATOM     32  H   UNL     1       9.457   2.154  25.294  0.00  0.00    +0.222 HD
ENDBRANCH  29  31
BRANCH  29  33
ATOM     33  O   UNL     1       8.897   3.354  22.375  0.00  0.00    -0.303 OA
ATOM     34  H   UNL     1       8.956   4.197  21.891  0.00  0.00    +0.222 HD
ENDBRANCH  29  33
ENDBRANCH  28  29
ENDBRANCH  27  28
ENDBRANCH   5  27
TORSDOF 12
ENDMDL
MODEL 8
REMARK VINA RESULT:      -6.9      2.697      8.020
REMARK  Name = 
REMARK  12 active torsions:
REMARK  status: ('A' for Active; 'I' for Inactive)
REMARK    1  A    between atoms: O_1  and  C_2
REMARK    2  A    between atoms: C_4  and  C_6
REMARK    3  A    between atoms: C_6  and  O_7
REMARK    4  A    between atoms: O_7  and  P_8
REMARK    5  A    between atoms: P_8  and  O_9
REMARK    6  A    between atoms: P_8  and  O_10
REMARK    7  A    between atoms: C_13  and  N_18
REMARK    8  A    between atoms: C_15  and  O_17
REMARK    9  A    between atoms: C_27  and  S_28
REMARK   10  A    between atoms: S_28  and  P_29
REMARK   11  A    between atoms: P_29  and  O_30
REMARK   12  A    between atoms: P_29  and  O_31
REMARK                            x       y       z     vdW  Elec       q    Type
REMARK                         _______ _______ _______ _____ _____    ______ ____
ROOT
ATOM      1  C   UNL     1       9.865  -0.326  22.206  0.00  0.00    +0.178 C 
ATOM      2  C   UNL     1       8.352  -0.186  22.362  0.00  0.00    +0.195 C 
ATOM      3  C   UNL     1       8.138  -0.307  23.875  0.00  0.00    +0.253 C 
ATOM      4  O   UNL     1       9.432  -0.326  24.513  0.00  0.00    -0.346 OA
ATOM      5  C   UNL     1      10.408   0.143  23.554  0.00  0.00    +0.178 C 
ENDROOT
BRANCH   3   6
ATOM      6  N   UNL     1       7.406  -1.503  24.268  0.00  0.00    -0.285 N 
ATOM      7  C   UNL     1       7.945  -2.741  24.523  0.00  0.00    +0.175 A 
ATOM      8  N   UNL     1       9.231  -3.089  24.494  0.00  0.00    -0.173 NA
ATOM      9  C   UNL     1       9.381  -4.378  24.852  0.00  0.00    +0.430 A 
ATOM     10  N   UNL     1       8.401  -5.231  25.166  0.00  0.00    -0.187 N 
ATOM     11  C   UNL     1       7.102  -4.902  25.142  0.00  0.00    +0.282 A 
ATOM     12  H   UNL     1       8.655  -6.160  25.491  0.00  0.00    +0.455 HD
ATOM     13  C   UNL     1       6.864  -3.560  24.844  0.00  0.00    +0.187 A 
ATOM     14  N   UNL     1       5.706  -2.819  24.833  0.00  0.00    -0.227 NA
ATOM     15  C   UNL     1       6.051  -1.607  24.448  0.00  0.00    +0.204 A 
BRANCH  11  16
ATOM     16  S   UNL     1       5.868  -5.966  25.759  0.00  0.00    +0.066 S 
BRANCH  16  17
ATOM     17  P   UNL     1       6.035  -5.651  27.849  0.00  0.00    +0.396 P 
ATOM     18  O   UNL     1       6.155  -5.420  29.375  0.00  0.00    -0.246 OA
BRANCH  17  19
ATOM     19  O   UNL     1       7.603  -6.093  27.703  0.00  0.00    -0.316 OA
ATOM     20  H   UNL     1       7.952  -5.653  26.902  0.00  0.00    +0.221 HD
ENDBRANCH  17  19
BRANCH  17  21
ATOM     21  O   UNL     1       5.495  -7.190  28.028  0.00  0.00    -0.316 OA
ATOM     22  H   UNL     1       4.798  -7.317  28.696  0.00  0.00    +0.221 HD
ENDBRANCH  17  21
ENDBRANCH  16  17
ENDBRANCH  11  16
ENDBRANCH   3   6
BRANCH   1  23
ATOM     23  O   UNL     1      10.174  -1.700  21.962  0.00  0.00    -0.386 OA
ATOM     24  H   UNL     1       9.745  -1.993  21.137  0.00  0.00    +0.210 HD
ENDBRANCH   1  23
BRANCH   2  25
ATOM     25  O   UNL     1       7.901   1.101  21.927  0.00  0.00    -0.385 OA
ATOM     26  H   UNL     1       6.957   1.208  22.150  0.00  0.00    +0.210 HD
ENDBRANCH   2  25
BRANCH   5  27
ATOM     27  C   UNL     1      10.561   1.669  23.623  0.00  0.00    +0.206 C 
BRANCH  27  28
ATOM     28  O   UNL     1       9.606   2.212  24.534  0.00  0.00    -0.284 OA
BRANCH  28  29
ATOM     29  P   UNL     1       9.080   3.798  24.080  0.00  0.00    +0.472 P 
ATOM     30  O   UNL     1       8.610   5.216  23.675  0.00  0.00    -0.228 OA
BRANCH  29  31
ATOM     31  O   UNL     1       7.574   3.173  23.983  0.00  0.00    -0.303 OA
ATOM     32  H   UNL     1       7.300   3.236  23.045  0.00  0.00    +0.222 HD
ENDBRANCH  29  31
BRANCH  29  33
ATOM     33  O   UNL     1       9.512   3.363  22.559  0.00  0.00    -0.303 OA
ATOM     34  H   UNL     1       9.127   4.031  21.963  0.00  0.00    +0.222 HD
ENDBRANCH  29  33
ENDBRANCH  28  29
ENDBRANCH  27  28
ENDBRANCH   5  27
TORSDOF 12
ENDMDL
MODEL 9
REMARK VINA RESULT:      -6.9      2.869      8.670
REMARK  Name = 
REMARK  12 active torsions:
REMARK  status: ('A' for Active; 'I' for Inactive)
REMARK    1  A    between atoms: O_1  and  C_2
REMARK    2  A    between atoms: C_4  and  C_6
REMARK    3  A    between atoms: C_6  and  O_7
REMARK    4  A    between atoms: O_7  and  P_8
REMARK    5  A    between atoms: P_8  and  O_9
REMARK    6  A    between atoms: P_8  and  O_10
REMARK    7  A    between atoms: C_13  and  N_18
REMARK    8  A    between atoms: C_15  and  O_17
REMARK    9  A    between atoms: C_27  and  S_28
REMARK   10  A    between atoms: S_28  and  P_29
REMARK   11  A    between atoms: P_29  and  O_30
REMARK   12  A    between atoms: P_29  and  O_31
REMARK                            x       y       z     vdW  Elec       q    Type
REMARK                         _______ _______ _______ _____ _____    ______ ____
ROOT
ATOM      1  C   UNL     1      10.440   1.349  24.158  0.00  0.00    +0.178 C 
ATOM      2  C   UNL     1       9.822   0.607  22.975  0.00  0.00    +0.195 C 
ATOM      3  C   UNL     1       8.314   0.735  23.222  0.00  0.00    +0.253 C 
ATOM      4  O   UNL     1       8.116   1.626  24.340  0.00  0.00    -0.346 OA
ATOM      5  C   UNL     1       9.352   2.341  24.564  0.00  0.00    +0.178 C 
ENDROOT
BRANCH   3   6
ATOM      6  N   UNL     1       7.660  -0.533  23.513  0.00  0.00    -0.285 N 
ATOM      7  C   UNL     1       8.283  -1.721  23.808  0.00  0.00    +0.175 A 
ATOM      8  N   UNL     1       9.591  -1.949  23.917  0.00  0.00    -0.173 NA
ATOM      9  C   UNL     1       9.822  -3.227  24.270  0.00  0.00    +0.430 A 
ATOM     10  N   UNL     1       8.899  -4.174  24.460  0.00  0.00    -0.187 N 
ATOM     11  C   UNL     1       7.586  -3.967  24.297  0.00  0.00    +0.282 A 
ATOM     12  H   UNL     1       9.202  -5.085  24.798  0.00  0.00    +0.455 HD
ATOM     13  C   UNL     1       7.256  -2.645  23.995  0.00  0.00    +0.187 A 
ATOM     14  N   UNL     1       6.041  -2.014  23.865  0.00  0.00    -0.227 NA
ATOM     15  C   UNL     1       6.309  -0.766  23.539  0.00  0.00    +0.204 A 
BRANCH  11  16
ATOM     16  S   UNL     1       6.397  -5.156  24.757  0.00  0.00    +0.066 S 
BRANCH  16  17
ATOM     17  P   UNL     1       6.619  -5.191  26.866  0.00  0.00    +0.396 P 
ATOM     18  O   UNL     1       6.780  -5.216  28.405  0.00  0.00    -0.246 OA
BRANCH  17  19
ATOM     19  O   UNL     1       8.073  -5.898  26.613  0.00  0.00    -0.316 OA
ATOM     20  H   UNL     1       8.260  -5.836  25.655  0.00  0.00    +0.221 HD
ENDBRANCH  17  19
BRANCH  17  21
ATOM     21  O   UNL     1       5.792  -6.608  26.833  0.00  0.00    -0.316 OA
ATOM     22  H   UNL     1       5.361  -6.825  25.988  0.00  0.00    +0.221 HD
ENDBRANCH  17  21
ENDBRANCH  16  17
ENDBRANCH  11  16
ENDBRANCH   3   6
BRANCH   1  23
ATOM     23  O   UNL     1      10.709   0.407  25.199  0.00  0.00    -0.386 OA
ATOM     24  H   UNL     1      10.897   0.878  26.031  0.00  0.00    +0.210 HD
ENDBRANCH   1  23
BRANCH   2  25
ATOM     25  O   UNL     1      10.148   1.242  21.734  0.00  0.00    -0.385 OA
ATOM     26  H   UNL     1      10.756   1.987  21.899  0.00  0.00    +0.210 HD
ENDBRANCH   2  25
BRANCH   5  27
ATOM     27  C   UNL     1       9.401   3.632  23.734  0.00  0.00    +0.206 C 
BRANCH  27  28
ATOM     28  O   UNL     1      10.695   3.787  23.153  0.00  0.00    -0.284 OA
BRANCH  28  29
ATOM     29  P   UNL     1      11.514   5.202  23.720  0.00  0.00    +0.472 P 
ATOM     30  O   UNL     1      12.247   6.468  24.227  0.00  0.00    -0.228 OA
BRANCH  29  31
ATOM     31  O   UNL     1      10.269   6.061  23.103  0.00  0.00    -0.303 OA
ATOM     32  H   UNL     1       9.725   6.358  23.862  0.00  0.00    +0.222 HD
ENDBRANCH  29  31
BRANCH  29  33
ATOM     33  O   UNL     1      12.346   5.127  22.309  0.00  0.00    -0.303 OA
ATOM     34  H   UNL     1      12.046   5.882  21.772  0.00  0.00    +0.222 HD
ENDBRANCH  29  33
ENDBRANCH  28  29
ENDBRANCH  27  28
ENDBRANCH   5  27
TORSDOF 12
ENDMDL
