MODEL 1
REMARK VINA RESULT:      -7.3      0.000      0.000
REMARK  Name = 
REMARK  10 active torsions:
REMARK  status: ('A' for Active; 'I' for Inactive)
REMARK    1  A    between atoms: C_1  and  C_2
REMARK    2  A    between atoms: C_3  and  C_4
REMARK    3  A    between atoms: C_5  and  O_6
REMARK    4  A    between atoms: O_6  and  C_7
REMARK    5  A    between atoms: C_7  and  C_8
REMARK    6  A    between atoms: C_8  and  C_9
REMARK    7  A    between atoms: C_9  and  C_10
REMARK    8  A    between atoms: C_10  and  O_11
REMARK    9  A    between atoms: C_15  and  N_16
REMARK   10  A    between atoms: C_20  and  C_22
REMARK                            x       y       z     vdW  Elec       q    Type
REMARK                         _______ _______ _______ _____ _____    ______ ____
ROOT
ATOM      1  C   UNL     1       8.738  -1.952  25.068  0.00  0.00    +0.046 C 
ATOM      2  C   UNL     1       8.337  -0.623  24.467  0.00  0.00    -0.023 A 
ATOM      3  C   UNL     1       7.049  -0.477  23.878  0.00  0.00    +0.038 A 
ATOM      4  C   UNL     1       6.634   0.777  23.451  0.00  0.00    +0.027 A 
ATOM      5  C   UNL     1       7.441   1.886  23.631  0.00  0.00    +0.048 A 
ATOM      6  C   UNL     1       8.699   1.776  24.221  0.00  0.00    +0.124 A 
ATOM      7  C   UNL     1       9.208   0.498  24.527  0.00  0.00    -0.004 A 
ATOM      8  C   UNL     1      10.665   0.356  24.907  0.00  0.00    +0.048 C 
ENDROOT
BRANCH   3   9
ATOM      9  N   UNL     1       6.219  -1.600  23.704  0.00  0.00    -0.269 N 
ATOM     10  H   UNL     1       5.447  -1.703  24.358  0.00  0.00    +0.156 HD
ATOM     11  C   UNL     1       6.328  -2.631  22.795  0.00  0.00    +0.310 C 
ATOM     12  N   UNL     1       5.416  -3.654  22.960  0.00  0.00    -0.236 N 
ATOM     13  H   UNL     1       5.561  -4.409  22.308  0.00  0.00    +0.159 HD
ATOM     14  C   UNL     1       4.486  -3.772  23.971  0.00  0.00    +0.253 C 
ATOM     15  O   UNL     1       4.238  -2.849  24.742  0.00  0.00    -0.270 OA
ATOM     16  O   UNL     1       7.154  -2.741  21.891  0.00  0.00    -0.252 OA
BRANCH  14  17
ATOM     17  C   UNL     1       3.756  -5.049  24.152  0.00  0.00    +0.055 A 
ATOM     18  C   UNL     1       4.143  -6.134  24.944  0.00  0.00    +0.054 A 
ATOM     19 CL   UNL     1       5.545  -6.131  25.953  0.00  0.00    -0.083 Cl
ATOM     20  C   UNL     1       3.391  -7.320  24.919  0.00  0.00    +0.040 A 
ATOM     21  C   UNL     1       2.254  -7.414  24.118  0.00  0.00    +0.042 A 
ATOM     22 CL   UNL     1       1.364  -8.883  24.056  0.00  0.00    -0.083 Cl
ATOM     23  C   UNL     1       1.837  -6.331  23.355  0.00  0.00    +0.021 A 
ATOM     24  C   UNL     1       2.584  -5.156  23.376  0.00  0.00    +0.016 A 
ENDBRANCH  14  17
ENDBRANCH   3   9
BRANCH   6  25
ATOM     25  O   UNL     1       9.446   2.889  24.549  0.00  0.00    -0.492 OA
BRANCH  25  26
ATOM     26  C   UNL     1       9.961   3.583  23.399  0.00  0.00    +0.229 C 
BRANCH  26  27
ATOM     27  C   UNL     1      11.476   3.708  23.440  0.00  0.00    +0.052 C 
BRANCH  27  28
ATOM     28  C   UNL     1      11.908   5.169  23.435  0.00  0.00    +0.124 C 
BRANCH  28  29
ATOM     29  C   UNL     1      13.187   5.374  22.665  0.00  0.00    +0.305 C 
ATOM     30  O   UNL     1      13.275   5.872  21.554  0.00  0.00    -0.251 OA
BRANCH  29  31
ATOM     31  O   UNL     1      14.269   4.953  23.361  0.00  0.00    -0.481 OA
ATOM     32  H   UNL     1      15.115   5.227  22.959  0.00  0.00    +0.295 HD
ENDBRANCH  29  31
ENDBRANCH  28  29
ENDBRANCH  27  28
ENDBRANCH  26  27
ENDBRANCH  25  26
ENDBRANCH   6  25
TORSDOF 8
ENDMDL
MODEL 2
REMARK VINA RESULT:      -7.2      2.398      3.435
REMARK  Name = 
REMARK  10 active torsions:
REMARK  status: ('A' for Active; 'I' for Inactive)
REMARK    1  A    between atoms: C_1  and  C_2
REMARK    2  A    between atoms: C_3  and  C_4
REMARK    3  A    between atoms: C_5  and  O_6
REMARK    4  A    between atoms: O_6  and  C_7
REMARK    5  A    between atoms: C_7  and  C_8
REMARK    6  A    between atoms: C_8  and  C_9
REMARK    7  A    between atoms: C_9  and  C_10
REMARK    8  A    between atoms: C_10  and  O_11
REMARK    9  A    between atoms: C_15  and  N_16
REMARK   10  A    between atoms: C_20  and  C_22
REMARK                            x       y       z     vdW  Elec       q    Type
REMARK                         _______ _______ _______ _____ _____    ______ ____
ROOT
ATOM      1  C   UNL     1       7.410  -1.954  25.576  0.00  0.00    +0.046 C 
ATOM      2  C   UNL     1       8.225  -1.709  24.325  0.00  0.00    -0.023 A 
ATOM      3  C   UNL     1       7.948  -2.457  23.147  0.00  0.00    +0.038 A 
ATOM      4  C   UNL     1       8.604  -2.135  21.966  0.00  0.00    +0.027 A 
ATOM      5  C   UNL     1       9.486  -1.071  21.917  0.00  0.00    +0.048 A 
ATOM      6  C   UNL     1       9.762  -0.309  23.051  0.00  0.00    +0.124 A 
ATOM      7  C   UNL     1       9.229  -0.703  24.295  0.00  0.00    -0.004 A 
ATOM      8  C   UNL     1       9.742  -0.050  25.558  0.00  0.00    +0.048 C 
ENDROOT
BRANCH   3   9
ATOM      9  N   UNL     1       7.042  -3.533  23.188  0.00  0.00    -0.269 N 
ATOM     10  H   UNL     1       6.055  -3.302  23.108  0.00  0.00    +0.156 HD
ATOM     11  C   UNL     1       7.292  -4.876  23.377  0.00  0.00    +0.310 C 
ATOM     12  N   UNL     1       6.168  -5.669  23.487  0.00  0.00    -0.236 N 
ATOM     13  H   UNL     1       6.393  -6.634  23.674  0.00  0.00    +0.159 HD
ATOM     14  C   UNL     1       4.857  -5.242  23.505  0.00  0.00    +0.253 C 
ATOM     15  O   UNL     1       4.542  -4.090  23.219  0.00  0.00    -0.270 OA
ATOM     16  O   UNL     1       8.389  -5.420  23.483  0.00  0.00    -0.252 OA
BRANCH  14  17
ATOM     17  C   UNL     1       3.781  -6.187  23.884  0.00  0.00    +0.055 A 
ATOM     18  C   UNL     1       3.713  -6.962  25.046  0.00  0.00    +0.054 A 
ATOM     19 CL   UNL     1       4.871  -6.875  26.324  0.00  0.00    -0.083 Cl
ATOM     20  C   UNL     1       2.675  -7.895  25.201  0.00  0.00    +0.040 A 
ATOM     21  C   UNL     1       1.707  -8.043  24.210  0.00  0.00    +0.042 A 
ATOM     22 CL   UNL     1       0.466  -9.219  24.386  0.00  0.00    -0.083 Cl
ATOM     23  C   UNL     1       1.742  -7.253  23.067  0.00  0.00    +0.021 A 
ATOM     24  C   UNL     1       2.772  -6.330  22.910  0.00  0.00    +0.016 A 
ENDBRANCH  14  17
ENDBRANCH   3   9
BRANCH   6  25
ATOM     25  O   UNL     1      10.514   0.846  22.983  0.00  0.00    -0.492 OA
BRANCH  25  26
ATOM     26  C   UNL     1       9.919   1.859  22.152  0.00  0.00    +0.229 C 
BRANCH  26  27
ATOM     27  C   UNL     1       9.037   2.806  22.951  0.00  0.00    +0.052 C 
BRANCH  27  28
ATOM     28  C   UNL     1       7.586   2.723  22.495  0.00  0.00    +0.124 C 
BRANCH  28  29
ATOM     29  C   UNL     1       6.795   1.736  23.315  0.00  0.00    +0.305 C 
ATOM     30  O   UNL     1       6.592   1.811  24.516  0.00  0.00    -0.251 OA
BRANCH  29  31
ATOM     31  O   UNL     1       6.300   0.731  22.556  0.00  0.00    -0.481 OA
ATOM     32  H   UNL     1       5.661   0.167  23.033  0.00  0.00    +0.295 HD
ENDBRANCH  29  31
ENDBRANCH  28  29
ENDBRANCH  27  28
ENDBRANCH  26  27
ENDBRANCH  25  26
ENDBRANCH   6  25
TORSDOF 8
ENDMDL
MODEL 3
REMARK VINA RESULT:      -7.1      3.046      4.169
REMARK  Name = 
REMARK  10 active torsions:
REMARK  status: ('A' for Active; 'I' for Inactive)
REMARK    1  A    between atoms: C_1  and  C_2
REMARK    2  A    between atoms: C_3  and  C_4
REMARK    3  A    between atoms: C_5  and  O_6
REMARK    4  A    between atoms: O_6  and  C_7
REMARK    5  A    between atoms: C_7  and  C_8
REMARK    6  A    between atoms: C_8  and  C_9
REMARK    7  A    between atoms: C_9  and  C_10
REMARK    8  A    between atoms: C_10  and  O_11
REMARK    9  A    between atoms: C_15  and  N_16
REMARK   10  A    between atoms: C_20  and  C_22
REMARK                            x       y       z     vdW  Elec       q    Type
REMARK                         _______ _______ _______ _____ _____    ______ ____
ROOT
ATOM      1  C   UNL     1       7.432   2.919  21.858  0.00  0.00    +0.046 C 
ATOM      2  C   UNL     1       7.600   3.622  23.187  0.00  0.00    -0.023 A 
ATOM      3  C   UNL     1       7.615   2.860  24.389  0.00  0.00    +0.038 A 
ATOM      4  C   UNL     1       7.904   3.490  25.592  0.00  0.00    +0.027 A 
ATOM      5  C   UNL     1       8.219   4.837  25.624  0.00  0.00    +0.048 A 
ATOM      6  C   UNL     1       8.230   5.604  24.460  0.00  0.00    +0.124 A 
ATOM      7  C   UNL     1       7.795   5.029  23.249  0.00  0.00    -0.004 A 
ATOM      8  C   UNL     1       7.545   5.922  22.055  0.00  0.00    +0.048 C 
ENDROOT
BRANCH   3   9
ATOM      9  N   UNL     1       7.308   1.486  24.360  0.00  0.00    -0.269 N 
ATOM     10  H   UNL     1       8.092   0.845  24.269  0.00  0.00    +0.156 HD
ATOM     11  C   UNL     1       6.076   0.868  24.384  0.00  0.00    +0.310 C 
ATOM     12  N   UNL     1       6.106  -0.501  24.220  0.00  0.00    -0.236 N 
ATOM     13  H   UNL     1       5.184  -0.907  24.194  0.00  0.00    +0.159 HD
ATOM     14  C   UNL     1       7.217  -1.275  23.962  0.00  0.00    +0.253 C 
ATOM     15  O   UNL     1       8.359  -0.829  24.048  0.00  0.00    -0.270 OA
ATOM     16  O   UNL     1       4.977   1.406  24.506  0.00  0.00    -0.252 OA
BRANCH  14  17
ATOM     17  C   UNL     1       7.050  -2.691  23.561  0.00  0.00    +0.055 A 
ATOM     18  C   UNL     1       7.821  -3.781  23.976  0.00  0.00    +0.054 A 
ATOM     19 CL   UNL     1       9.089  -3.666  25.143  0.00  0.00    -0.083 Cl
ATOM     20  C   UNL     1       7.600  -5.048  23.412  0.00  0.00    +0.040 A 
ATOM     21  C   UNL     1       6.607  -5.226  22.450  0.00  0.00    +0.042 A 
ATOM     22 CL   UNL     1       6.372  -6.768  21.730  0.00  0.00    -0.083 Cl
ATOM     23  C   UNL     1       5.808  -4.159  22.055  0.00  0.00    +0.021 A 
ATOM     24  C   UNL     1       6.029  -2.902  22.611  0.00  0.00    +0.016 A 
ENDBRANCH  14  17
ENDBRANCH   3   9
BRANCH   6  25
ATOM     25  O   UNL     1       8.692   6.904  24.453  0.00  0.00    -0.492 OA
BRANCH  25  26
ATOM     26  C   UNL     1      10.117   6.998  24.628  0.00  0.00    +0.229 C 
BRANCH  26  27
ATOM     27  C   UNL     1      10.865   6.014  23.741  0.00  0.00    +0.052 C 
BRANCH  27  28
ATOM     28  C   UNL     1      12.356   6.011  24.056  0.00  0.00    +0.124 C 
BRANCH  28  29
ATOM     29  C   UNL     1      13.175   5.505  22.897  0.00  0.00    +0.305 C 
ATOM     30  O   UNL     1      12.883   5.620  21.717  0.00  0.00    -0.251 OA
BRANCH  29  31
ATOM     31  O   UNL     1      14.316   4.905  23.308  0.00  0.00    -0.481 OA
ATOM     32  H   UNL     1      15.121   5.311  22.933  0.00  0.00    +0.295 HD
ENDBRANCH  29  31
ENDBRANCH  28  29
ENDBRANCH  27  28
ENDBRANCH  26  27
ENDBRANCH  25  26
ENDBRANCH   6  25
TORSDOF 8
ENDMDL
MODEL 4
REMARK VINA RESULT:      -7.1      1.585      1.962
REMARK  Name = 
REMARK  10 active torsions:
REMARK  status: ('A' for Active; 'I' for Inactive)
REMARK    1  A    between atoms: C_1  and  C_2
REMARK    2  A    between atoms: C_3  and  C_4
REMARK    3  A    between atoms: C_5  and  O_6
REMARK    4  A    between atoms: O_6  and  C_7
REMARK    5  A    between atoms: C_7  and  C_8
REMARK    6  A    between atoms: C_8  and  C_9
REMARK    7  A    between atoms: C_9  and  C_10
REMARK    8  A    between atoms: C_10  and  O_11
REMARK    9  A    between atoms: C_15  and  N_16
REMARK   10  A    between atoms: C_20  and  C_22
REMARK                            x       y       z     vdW  Elec       q    Type
REMARK                         _______ _______ _______ _____ _____    ______ ____
ROOT
ATOM      1  C   UNL     1       8.854  -1.023  22.680  0.00  0.00    +0.046 C 
ATOM      2  C   UNL     1       8.644   0.273  23.432  0.00  0.00    -0.023 A 
ATOM      3  C   UNL     1       7.732   0.312  24.524  0.00  0.00    +0.038 A 
ATOM      4  C   UNL     1       7.643   1.463  25.296  0.00  0.00    +0.027 A 
ATOM      5  C   UNL     1       8.460   2.549  25.039  0.00  0.00    +0.048 A 
ATOM      6  C   UNL     1       9.375   2.532  23.988  0.00  0.00    +0.124 A 
ATOM      7  C   UNL     1       9.383   1.440  23.097  0.00  0.00    -0.004 A 
ATOM      8  C   UNL     1      10.173   1.541  21.812  0.00  0.00    +0.048 C 
ENDROOT
BRANCH   3   9
ATOM      9  N   UNL     1       6.907  -0.795  24.798  0.00  0.00    -0.269 N 
ATOM     10  H   UNL     1       7.317  -1.715  24.659  0.00  0.00    +0.156 HD
ATOM     11  C   UNL     1       5.583  -0.821  25.183  0.00  0.00    +0.310 C 
ATOM     12  N   UNL     1       5.021  -2.079  25.256  0.00  0.00    -0.236 N 
ATOM     13  H   UNL     1       4.042  -2.050  25.492  0.00  0.00    +0.159 HD
ATOM     14  C   UNL     1       5.623  -3.271  24.912  0.00  0.00    +0.253 C 
ATOM     15  O   UNL     1       6.826  -3.352  24.682  0.00  0.00    -0.270 OA
ATOM     16  O   UNL     1       4.863   0.144  25.434  0.00  0.00    -0.252 OA
BRANCH  14  17
ATOM     17  C   UNL     1       4.806  -4.502  24.806  0.00  0.00    +0.055 A 
ATOM     18  C   UNL     1       4.943  -5.671  25.560  0.00  0.00    +0.054 A 
ATOM     19 CL   UNL     1       6.073  -5.848  26.854  0.00  0.00    -0.083 Cl
ATOM     20  C   UNL     1       4.157  -6.794  25.256  0.00  0.00    +0.040 A 
ATOM     21  C   UNL     1       3.231  -6.743  24.215  0.00  0.00    +0.042 A 
ATOM     22 CL   UNL     1       2.304  -8.135  23.818  0.00  0.00    -0.083 Cl
ATOM     23  C   UNL     1       3.058  -5.576  23.482  0.00  0.00    +0.021 A 
ATOM     24  C   UNL     1       3.840  -4.463  23.780  0.00  0.00    +0.016 A 
ENDBRANCH  14  17
ENDBRANCH   3   9
BRANCH   6  25
ATOM     25  O   UNL     1      10.302   3.540  23.817  0.00  0.00    -0.492 OA
BRANCH  25  26
ATOM     26  C   UNL     1       9.739   4.856  23.965  0.00  0.00    +0.229 C 
BRANCH  26  27
ATOM     27  C   UNL     1      10.696   5.941  23.496  0.00  0.00    +0.052 C 
BRANCH  27  28
ATOM     28  C   UNL     1      12.111   5.682  23.998  0.00  0.00    +0.124 C 
BRANCH  28  29
ATOM     29  C   UNL     1      13.064   5.395  22.866  0.00  0.00    +0.305 C 
ATOM     30  O   UNL     1      12.817   5.527  21.678  0.00  0.00    -0.251 OA
BRANCH  29  31
ATOM     31  O   UNL     1      14.272   4.980  23.316  0.00  0.00    -0.481 OA
ATOM     32  H   UNL     1      14.221   4.174  23.864  0.00  0.00    +0.295 HD
ENDBRANCH  29  31
ENDBRANCH  28  29
ENDBRANCH  27  28
ENDBRANCH  26  27
ENDBRANCH  25  26
ENDBRANCH   6  25
TORSDOF 8
ENDMDL
MODEL 5
REMARK VINA RESULT:      -7.0      4.191     10.474
REMARK  Name = 
REMARK  10 active torsions:
REMARK  status: ('A' for Active; 'I' for Inactive)
REMARK    1  A    between atoms: C_1  and  C_2
REMARK    2  A    between atoms: C_3  and  C_4
REMARK    3  A    between atoms: C_5  and  O_6
REMARK    4  A    between atoms: O_6  and  C_7
REMARK    5  A    between atoms: C_7  and  C_8
REMARK    6  A    between atoms: C_8  and  C_9
REMARK    7  A    between atoms: C_9  and  C_10
REMARK    8  A    between atoms: C_10  and  O_11
REMARK    9  A    between atoms: C_15  and  N_16
REMARK   10  A    between atoms: C_20  and  C_22
REMARK                            x       y       z     vdW  Elec       q    Type
REMARK                         _______ _______ _______ _____ _____    ______ ____
ROOT
ATOM      1  C   UNL     1       6.703  -3.118  22.010  0.00  0.00    +0.046 C 
ATOM      2  C   UNL     1       6.604  -4.040  23.206  0.00  0.00    -0.023 A 
ATOM      3  C   UNL     1       7.081  -3.602  24.473  0.00  0.00    +0.038 A 
ATOM      4  C   UNL     1       6.866  -4.393  25.593  0.00  0.00    +0.027 A 
ATOM      5  C   UNL     1       6.157  -5.577  25.494  0.00  0.00    +0.048 A 
ATOM      6  C   UNL     1       5.663  -6.022  24.269  0.00  0.00    +0.124 A 
ATOM      7  C   UNL     1       5.994  -5.318  23.094  0.00  0.00    -0.004 A 
ATOM      8  C   UNL     1       5.694  -5.944  21.750  0.00  0.00    +0.048 C 
ENDROOT
BRANCH   3   9
ATOM      9  N   UNL     1       7.792  -2.391  24.582  0.00  0.00    -0.269 N 
ATOM     10  H   UNL     1       7.263  -1.577  24.884  0.00  0.00    +0.156 HD
ATOM     11  C   UNL     1       9.112  -2.126  24.285  0.00  0.00    +0.310 C 
ATOM     12  N   UNL     1       9.478  -0.800  24.386  0.00  0.00    -0.236 N 
ATOM     13  H   UNL     1      10.436  -0.642  24.113  0.00  0.00    +0.159 HD
ATOM     14  C   UNL     1       8.649   0.264  24.672  0.00  0.00    +0.253 C 
ATOM     15  O   UNL     1       7.497   0.106  25.069  0.00  0.00    -0.270 OA
ATOM     16  O   UNL     1       9.968  -2.930  23.920  0.00  0.00    -0.252 OA
BRANCH  14  17
ATOM     17  C   UNL     1       9.143   1.649  24.493  0.00  0.00    +0.055 A 
ATOM     18  C   UNL     1       8.517   2.827  24.914  0.00  0.00    +0.054 A 
ATOM     19 CL   UNL     1       7.051   2.857  25.827  0.00  0.00    -0.083 Cl
ATOM     20  C   UNL     1       9.066   4.071  24.566  0.00  0.00    +0.040 A 
ATOM     21  C   UNL     1      10.239   4.137  23.815  0.00  0.00    +0.042 A 
ATOM     22 CL   UNL     1      10.880   5.664  23.353  0.00  0.00    -0.083 Cl
ATOM     23  C   UNL     1      10.891   2.976  23.423  0.00  0.00    +0.021 A 
ATOM     24  C   UNL     1      10.346   1.741  23.764  0.00  0.00    +0.016 A 
ENDBRANCH  14  17
ENDBRANCH   3   9
BRANCH   6  25
ATOM     25  O   UNL     1       4.824  -7.115  24.179  0.00  0.00    -0.492 OA
BRANCH  25  26
ATOM     26  C   UNL     1       4.006  -7.296  25.350  0.00  0.00    +0.229 C 
BRANCH  26  27
ATOM     27  C   UNL     1       2.539  -7.011  25.069  0.00  0.00    +0.052 C 
BRANCH  27  28
ATOM     28  C   UNL     1       2.136  -7.510  23.687  0.00  0.00    +0.124 C 
BRANCH  28  29
ATOM     29  C   UNL     1       1.693  -6.383  22.790  0.00  0.00    +0.305 C 
ATOM     30  O   UNL     1       0.753  -6.421  22.013  0.00  0.00    -0.251 OA
BRANCH  29  31
ATOM     31  O   UNL     1       2.458  -5.278  22.951  0.00  0.00    -0.481 OA
ATOM     32  H   UNL     1       2.895  -4.989  22.127  0.00  0.00    +0.295 HD
ENDBRANCH  29  31
ENDBRANCH  28  29
ENDBRANCH  27  28
ENDBRANCH  26  27
ENDBRANCH  25  26
ENDBRANCH   6  25
TORSDOF 8
ENDMDL
MODEL 6
REMARK VINA RESULT:      -6.9      2.936      4.160
REMARK  Name = 
REMARK  10 active torsions:
REMARK  status: ('A' for Active; 'I' for Inactive)
REMARK    1  A    between atoms: C_1  and  C_2
REMARK    2  A    between atoms: C_3  and  C_4
REMARK    3  A    between atoms: C_5  and  O_6
REMARK    4  A    between atoms: O_6  and  C_7
REMARK    5  A    between atoms: C_7  and  C_8
REMARK    6  A    between atoms: C_8  and  C_9
REMARK    7  A    between atoms: C_9  and  C_10
REMARK    8  A    between atoms: C_10  and  O_11
REMARK    9  A    between atoms: C_15  and  N_16
REMARK   10  A    between atoms: C_20  and  C_22
REMARK                            x       y       z     vdW  Elec       q    Type
REMARK                         _______ _______ _______ _____ _____    ______ ____
ROOT
ATOM      1  C   UNL     1       7.545  -4.018  22.650  0.00  0.00    +0.046 C 
ATOM      2  C   UNL     1       8.032  -2.977  23.633  0.00  0.00    -0.023 A 
ATOM      3  C   UNL     1       7.723  -3.114  25.015  0.00  0.00    +0.038 A 
ATOM      4  C   UNL     1       8.284  -2.233  25.930  0.00  0.00    +0.027 A 
ATOM      5  C   UNL     1       9.171  -1.256  25.515  0.00  0.00    +0.048 A 
ATOM      6  C   UNL     1       9.506  -1.110  24.170  0.00  0.00    +0.124 A 
ATOM      7  C   UNL     1       8.840  -1.889  23.203  0.00  0.00    -0.004 A 
ATOM      8  C   UNL     1       8.999  -1.543  21.739  0.00  0.00    +0.048 C 
ENDROOT
BRANCH   3   9
ATOM      9  N   UNL     1       6.831  -4.115  25.445  0.00  0.00    -0.269 N 
ATOM     10  H   UNL     1       5.839  -3.917  25.341  0.00  0.00    +0.156 HD
ATOM     11  C   UNL     1       7.104  -5.326  26.046  0.00  0.00    +0.310 C 
ATOM     12  N   UNL     1       5.996  -6.035  26.460  0.00  0.00    -0.236 N 
ATOM     13  H   UNL     1       6.240  -6.889  26.937  0.00  0.00    +0.159 HD
ATOM     14  C   UNL     1       4.682  -5.619  26.400  0.00  0.00    +0.253 C 
ATOM     15  O   UNL     1       4.341  -4.620  25.772  0.00  0.00    -0.270 OA
ATOM     16  O   UNL     1       8.211  -5.811  26.270  0.00  0.00    -0.252 OA
BRANCH  14  17
ATOM     17  C   UNL     1       3.635  -6.386  27.115  0.00  0.00    +0.055 A 
ATOM     18  C   UNL     1       2.438  -6.873  26.583  0.00  0.00    +0.054 A 
ATOM     19 CL   UNL     1       2.005  -6.735  24.917  0.00  0.00    -0.083 Cl
ATOM     20  C   UNL     1       1.498  -7.486  27.427  0.00  0.00    +0.040 A 
ATOM     21  C   UNL     1       1.760  -7.623  28.790  0.00  0.00    +0.042 A 
ATOM     22 CL   UNL     1       0.586  -8.333  29.825  0.00  0.00    -0.083 Cl
ATOM     23  C   UNL     1       2.962  -7.178  29.325  0.00  0.00    +0.021 A 
ATOM     24  C   UNL     1       3.893  -6.566  28.489  0.00  0.00    +0.016 A 
ENDBRANCH  14  17
ENDBRANCH   3   9
BRANCH   6  25
ATOM     25  O   UNL     1      10.504  -0.248  23.761  0.00  0.00    -0.492 OA
BRANCH  25  26
ATOM     26  C   UNL     1      10.638   0.904  24.613  0.00  0.00    +0.229 C 
BRANCH  26  27
ATOM     27  C   UNL     1      10.401   2.202  23.858  0.00  0.00    +0.052 C 
BRANCH  27  28
ATOM     28  C   UNL     1       8.924   2.386  23.530  0.00  0.00    +0.124 C 
BRANCH  28  29
ATOM     29  C   UNL     1       8.632   2.106  22.078  0.00  0.00    +0.305 C 
ATOM     30  O   UNL     1       7.522   2.053  21.574  0.00  0.00    -0.251 OA
BRANCH  29  31
ATOM     31  O   UNL     1       9.765   1.930  21.359  0.00  0.00    -0.481 OA
ATOM     32  H   UNL     1       9.690   1.225  20.688  0.00  0.00    +0.295 HD
ENDBRANCH  29  31
ENDBRANCH  28  29
ENDBRANCH  27  28
ENDBRANCH  26  27
ENDBRANCH  25  26
ENDBRANCH   6  25
TORSDOF 8
ENDMDL
MODEL 7
REMARK VINA RESULT:      -6.9      4.100     10.790
REMARK  Name = 
REMARK  10 active torsions:
REMARK  status: ('A' for Active; 'I' for Inactive)
REMARK    1  A    between atoms: C_1  and  C_2
REMARK    2  A    between atoms: C_3  and  C_4
REMARK    3  A    between atoms: C_5  and  O_6
REMARK    4  A    between atoms: O_6  and  C_7
REMARK    5  A    between atoms: C_7  and  C_8
REMARK    6  A    between atoms: C_8  and  C_9
REMARK    7  A    between atoms: C_9  and  C_10
REMARK    8  A    between atoms: C_10  and  O_11
REMARK    9  A    between atoms: C_15  and  N_16
REMARK   10  A    between atoms: C_20  and  C_22
REMARK                            x       y       z     vdW  Elec       q    Type
REMARK                         _______ _______ _______ _____ _____    ______ ____
ROOT
ATOM      1  C   UNL     1       7.027  -4.725  26.586  0.00  0.00    +0.046 C 
ATOM      2  C   UNL     1       6.016  -5.190  25.562  0.00  0.00    -0.023 A 
ATOM      3  C   UNL     1       6.039  -4.640  24.249  0.00  0.00    +0.038 A 
ATOM      4  C   UNL     1       5.200  -5.166  23.275  0.00  0.00    +0.027 A 
ATOM      5  C   UNL     1       4.379  -6.242  23.559  0.00  0.00    +0.048 A 
ATOM      6  C   UNL     1       4.349  -6.812  24.830  0.00  0.00    +0.124 A 
ATOM      7  C   UNL     1       5.074  -6.207  25.876  0.00  0.00    -0.004 A 
ATOM      8  C   UNL     1       4.828  -6.654  27.299  0.00  0.00    +0.048 C 
ENDROOT
BRANCH   3   9
ATOM      9  N   UNL     1       6.883  -3.553  23.952  0.00  0.00    -0.269 N 
ATOM     10  H   UNL     1       7.280  -3.054  24.744  0.00  0.00    +0.156 HD
ATOM     11  C   UNL     1       7.216  -3.020  22.725  0.00  0.00    +0.310 C 
ATOM     12  N   UNL     1       7.977  -1.870  22.776  0.00  0.00    -0.236 N 
ATOM     13  H   UNL     1       8.157  -1.485  21.862  0.00  0.00    +0.159 HD
ATOM     14  C   UNL     1       8.356  -1.183  23.910  0.00  0.00    +0.253 C 
ATOM     15  O   UNL     1       8.211  -1.650  25.036  0.00  0.00    -0.270 OA
ATOM     16  O   UNL     1       6.888  -3.439  21.618  0.00  0.00    -0.252 OA
BRANCH  14  17
ATOM     17  C   UNL     1       8.953   0.168  23.786  0.00  0.00    +0.055 A 
ATOM     18  C   UNL     1       8.361   1.301  23.219  0.00  0.00    +0.054 A 
ATOM     19 CL   UNL     1       6.739   1.338  22.629  0.00  0.00    -0.083 Cl
ATOM     20  C   UNL     1       9.108   2.481  23.079  0.00  0.00    +0.040 A 
ATOM     21  C   UNL     1      10.432   2.532  23.514  0.00  0.00    +0.042 A 
ATOM     22 CL   UNL     1      11.354   3.966  23.296  0.00  0.00    -0.083 Cl
ATOM     23  C   UNL     1      11.020   1.426  24.112  0.00  0.00    +0.021 A 
ATOM     24  C   UNL     1      10.282   0.253  24.249  0.00  0.00    +0.016 A 
ENDBRANCH  14  17
ENDBRANCH   3   9
BRANCH   6  25
ATOM     25  O   UNL     1       3.656  -7.978  25.085  0.00  0.00    -0.492 OA
BRANCH  25  26
ATOM     26  C   UNL     1       2.228  -7.812  25.023  0.00  0.00    +0.229 C 
BRANCH  26  27
ATOM     27  C   UNL     1       1.548  -8.978  24.323  0.00  0.00    +0.052 C 
BRANCH  27  28
ATOM     28  C   UNL     1       0.444  -8.493  23.391  0.00  0.00    +0.124 C 
BRANCH  28  29
ATOM     29  C   UNL     1       1.001  -7.824  22.161  0.00  0.00    +0.305 C 
ATOM     30  O   UNL     1       1.126  -6.621  22.001  0.00  0.00    -0.251 OA
BRANCH  29  31
ATOM     31  O   UNL     1       1.378  -8.725  21.223  0.00  0.00    -0.481 OA
ATOM     32  H   UNL     1       2.234  -9.150  21.421  0.00  0.00    +0.295 HD
ENDBRANCH  29  31
ENDBRANCH  28  29
ENDBRANCH  27  28
ENDBRANCH  26  27
ENDBRANCH  25  26
ENDBRANCH   6  25
TORSDOF 8
ENDMDL
MODEL 8
REMARK VINA RESULT:      -6.7      1.735      2.677
REMARK  Name = 
REMARK  10 active torsions:
REMARK  status: ('A' for Active; 'I' for Inactive)
REMARK    1  A    between atoms: C_1  and  C_2
REMARK    2  A    between atoms: C_3  and  C_4
REMARK    3  A    between atoms: C_5  and  O_6
REMARK    4  A    between atoms: O_6  and  C_7
REMARK    5  A    between atoms: C_7  and  C_8
REMARK    6  A    between atoms: C_8  and  C_9
REMARK    7  A    between atoms: C_9  and  C_10
REMARK    8  A    between atoms: C_10  and  O_11
REMARK    9  A    between atoms: C_15  and  N_16
REMARK   10  A    between atoms: C_20  and  C_22
REMARK                            x       y       z     vdW  Elec       q    Type
REMARK                         _______ _______ _______ _____ _____    ______ ____
ROOT
ATOM      1  C   UNL     1       5.583   1.637  24.206  0.00  0.00    +0.046 C 
ATOM      2  C   UNL     1       7.043   1.985  24.013  0.00  0.00    -0.023 A 
ATOM      3  C   UNL     1       7.976   0.956  23.703  0.00  0.00    +0.038 A 
ATOM      4  C   UNL     1       9.286   1.296  23.394  0.00  0.00    +0.027 A 
ATOM      5  C   UNL     1       9.678   2.622  23.343  0.00  0.00    +0.048 A 
ATOM      6  C   UNL     1       8.781   3.651  23.624  0.00  0.00    +0.124 A 
ATOM      7  C   UNL     1       7.488   3.333  24.087  0.00  0.00    -0.004 A 
ATOM      8  C   UNL     1       6.615   4.431  24.650  0.00  0.00    +0.048 C 
ENDROOT
BRANCH   3   9
ATOM      9  N   UNL     1       7.580  -0.394  23.740  0.00  0.00    -0.269 N 
ATOM     10  H   UNL     1       6.892  -0.687  23.051  0.00  0.00    +0.156 HD
ATOM     11  C   UNL     1       7.951  -1.386  24.622  0.00  0.00    +0.310 C 
ATOM     12  N   UNL     1       7.289  -2.586  24.464  0.00  0.00    -0.236 N 
ATOM     13  H   UNL     1       7.553  -3.268  25.158  0.00  0.00    +0.159 HD
ATOM     14  C   UNL     1       6.263  -2.850  23.581  0.00  0.00    +0.253 C 
ATOM     15  O   UNL     1       5.958  -2.070  22.683  0.00  0.00    -0.270 OA
ATOM     16  O   UNL     1       8.774  -1.303  25.532  0.00  0.00    -0.252 OA
BRANCH  14  17
ATOM     17  C   UNL     1       5.488  -4.106  23.709  0.00  0.00    +0.055 A 
ATOM     18  C   UNL     1       5.874  -5.381  23.282  0.00  0.00    +0.054 A 
ATOM     19 CL   UNL     1       7.417  -5.731  22.590  0.00  0.00    -0.083 Cl
ATOM     20  C   UNL     1       4.972  -6.452  23.378  0.00  0.00    +0.040 A 
ATOM     21  C   UNL     1       3.698  -6.253  23.909  0.00  0.00    +0.042 A 
ATOM     22 CL   UNL     1       2.582  -7.558  23.982  0.00  0.00    -0.083 Cl
ATOM     23  C   UNL     1       3.314  -5.000  24.372  0.00  0.00    +0.021 A 
ATOM     24  C   UNL     1       4.207  -3.937  24.273  0.00  0.00    +0.016 A 
ENDBRANCH  14  17
ENDBRANCH   3   9
BRANCH   6  25
ATOM     25  O   UNL     1       9.112   4.976  23.426  0.00  0.00    -0.492 OA
BRANCH  25  26
ATOM     26  C   UNL     1       9.994   5.495  24.438  0.00  0.00    +0.229 C 
BRANCH  26  27
ATOM     27  C   UNL     1      11.311   5.978  23.852  0.00  0.00    +0.052 C 
BRANCH  27  28
ATOM     28  C   UNL     1      12.156   4.810  23.359  0.00  0.00    +0.124 C 
BRANCH  28  29
ATOM     29  C   UNL     1      13.365   5.276  22.588  0.00  0.00    +0.305 C 
ATOM     30  O   UNL     1      13.342   5.848  21.511  0.00  0.00    -0.251 OA
BRANCH  29  31
ATOM     31  O   UNL     1      14.518   5.003  23.242  0.00  0.00    -0.481 OA
ATOM     32  H   UNL     1      15.137   4.459  22.719  0.00  0.00    +0.295 HD
ENDBRANCH  29  31
ENDBRANCH  28  29
ENDBRANCH  27  28
ENDBRANCH  26  27
ENDBRANCH  25  26
ENDBRANCH   6  25
TORSDOF 8
ENDMDL
MODEL 9
REMARK VINA RESULT:      -6.7      2.158      2.707
REMARK  Name = 
REMARK  10 active torsions:
REMARK  status: ('A' for Active; 'I' for Inactive)
REMARK    1  A    between atoms: C_1  and  C_2
REMARK    2  A    between atoms: C_3  and  C_4
REMARK    3  A    between atoms: C_5  and  O_6
REMARK    4  A    between atoms: O_6  and  C_7
REMARK    5  A    between atoms: C_7  and  C_8
REMARK    6  A    between atoms: C_8  and  C_9
REMARK    7  A    between atoms: C_9  and  C_10
REMARK    8  A    between atoms: C_10  and  O_11
REMARK    9  A    between atoms: C_15  and  N_16
REMARK   10  A    between atoms: C_20  and  C_22
REMARK                            x       y       z     vdW  Elec       q    Type
REMARK                         _______ _______ _______ _____ _____    ______ ____
ROOT
ATOM      1  C   UNL     1       7.290  -1.950  25.550  0.00  0.00    +0.046 C 
ATOM      2  C   UNL     1       8.119  -1.711  24.307  0.00  0.00    -0.023 A 
ATOM      3  C   UNL     1       7.865  -2.474  23.134  0.00  0.00    +0.038 A 
ATOM      4  C   UNL     1       8.533  -2.160  21.958  0.00  0.00    +0.027 A 
ATOM      5  C   UNL     1       9.406  -1.088  21.908  0.00  0.00    +0.048 A 
ATOM      6  C   UNL     1       9.660  -0.311  23.037  0.00  0.00    +0.124 A 
ATOM      7  C   UNL     1       9.114  -0.696  24.278  0.00  0.00    -0.004 A 
ATOM      8  C   UNL     1       9.605  -0.025  25.541  0.00  0.00    +0.048 C 
ENDROOT
BRANCH   3   9
ATOM      9  N   UNL     1       6.967  -3.558  23.175  0.00  0.00    -0.269 N 
ATOM     10  H   UNL     1       5.978  -3.335  23.096  0.00  0.00    +0.156 HD
ATOM     11  C   UNL     1       7.229  -4.899  23.364  0.00  0.00    +0.310 C 
ATOM     12  N   UNL     1       6.112  -5.702  23.475  0.00  0.00    -0.236 N 
ATOM     13  H   UNL     1       6.346  -6.664  23.661  0.00  0.00    +0.159 HD
ATOM     14  C   UNL     1       4.797  -5.286  23.492  0.00  0.00    +0.253 C 
ATOM     15  O   UNL     1       4.472  -4.136  23.207  0.00  0.00    -0.270 OA
ATOM     16  O   UNL     1       8.330  -5.434  23.469  0.00  0.00    -0.252 OA
BRANCH  14  17
ATOM     17  C   UNL     1       3.730  -6.240  23.872  0.00  0.00    +0.055 A 
ATOM     18  C   UNL     1       3.664  -7.009  25.039  0.00  0.00    +0.054 A 
ATOM     19 CL   UNL     1       4.815  -6.902  26.321  0.00  0.00    -0.083 Cl
ATOM     20  C   UNL     1       2.636  -7.952  25.195  0.00  0.00    +0.040 A 
ATOM     21  C   UNL     1       1.674  -8.116  24.199  0.00  0.00    +0.042 A 
ATOM     22 CL   UNL     1       0.445  -9.304  24.376  0.00  0.00    -0.083 Cl
ATOM     23  C   UNL     1       1.706  -7.332  23.052  0.00  0.00    +0.021 A 
ATOM     24  C   UNL     1       2.727  -6.399  22.894  0.00  0.00    +0.016 A 
ENDBRANCH  14  17
ENDBRANCH   3   9
BRANCH   6  25
ATOM     25  O   UNL     1      10.403   0.850  22.966  0.00  0.00    -0.492 OA
BRANCH  25  26
ATOM     26  C   UNL     1       9.843   1.824  22.066  0.00  0.00    +0.229 C 
BRANCH  26  27
ATOM     27  C   UNL     1       8.394   2.143  22.403  0.00  0.00    +0.052 C 
BRANCH  27  28
ATOM     28  C   UNL     1       8.226   3.611  22.776  0.00  0.00    +0.124 C 
BRANCH  28  29
ATOM     29  C   UNL     1       9.001   3.967  24.018  0.00  0.00    +0.305 C 
ATOM     30  O   UNL     1       9.893   4.798  24.086  0.00  0.00    -0.251 OA
BRANCH  29  31
ATOM     31  O   UNL     1       8.583   3.261  25.094  0.00  0.00    -0.481 OA
ATOM     32  H   UNL     1       7.801   2.706  24.910  0.00  0.00    +0.295 HD
ENDBRANCH  29  31
ENDBRANCH  28  29
ENDBRANCH  27  28
ENDBRANCH  26  27
ENDBRANCH  25  26
ENDBRANCH   6  25
TORSDOF 8
ENDMDL
