MODEL 1
REMARK VINA RESULT:      -7.2      0.000      0.000
REMARK  Name = 
REMARK  21 active torsions:
REMARK  status: ('A' for Active; 'I' for Inactive)
REMARK    1  A    between atoms: C_1  and  N_2
REMARK    2  A    between atoms: N_4  and  C_5
REMARK    3  A    between atoms: C_8  and  C_10
REMARK    4  A    between atoms: C_10  and  O_11
REMARK    5  A    between atoms: O_11  and  P_12
REMARK    6  A    between atoms: P_12  and  O_13
REMARK    7  A    between atoms: P_12  and  O_15
REMARK    8  A    between atoms: O_15  and  P_16
REMARK    9  A    between atoms: P_16  and  O_17
REMARK   10  A    between atoms: P_16  and  O_19
REMARK   11  A    between atoms: O_19  and  P_20
REMARK   12  A    between atoms: P_20  and  O_21
REMARK   13  A    between atoms: P_20  and  O_23
REMARK   14  A    between atoms: O_23  and  C_24
REMARK   15  A    between atoms: C_24  and  C_25
REMARK   16  A    between atoms: C_28  and  N_36
REMARK   17  A    between atoms: C_30  and  O_32
REMARK   18  A    between atoms: C_33  and  O_35
REMARK   19  A    between atoms: C_40  and  N_41
REMARK   20  A    between atoms: C_46  and  O_48
REMARK   21  A    between atoms: C_49  and  O_51
REMARK                            x       y       z     vdW  Elec       q    Type
REMARK                         _______ _______ _______ _____ _____    ______ ____
ROOT
ATOM      1  P   UNL     1       4.159   0.539  27.447  0.00  0.00    +0.492 P 
ATOM      2  O   UNL     1       3.239   0.638  28.617  0.00  0.00    -0.226 OA
ENDROOT
BRANCH   1   3
ATOM      3  O   UNL     1       5.610   0.048  27.935  0.00  0.00    -0.302 OA
ATOM      4  H   UNL     1       5.701   0.227  28.896  0.00  0.00    +0.222 HD
ENDBRANCH   1   3
BRANCH   1   5
ATOM      5  O   UNL     1       3.713  -0.631  26.451  0.00  0.00    -0.186 OA
BRANCH   5   6
ATOM      6  P   UNL     1       4.437  -2.159  26.818  0.00  0.00    +0.483 P 
ATOM      7  O   UNL     1       3.292  -2.584  27.739  0.00  0.00    -0.227 OA
BRANCH   6   8
ATOM      8  O   UNL     1       5.162  -3.686  27.185  0.00  0.00    -0.302 OA
ATOM      9  H   UNL     1       6.100  -3.466  27.369  0.00  0.00    +0.222 HD
ENDBRANCH   6   8
BRANCH   6  10
ATOM     10  O   UNL     1       4.023  -2.725  25.332  0.00  0.00    -0.284 OA
BRANCH  10  11
ATOM     11  C   UNL     1       4.139  -4.122  25.111  0.00  0.00    +0.206 C 
BRANCH  11  15
ATOM     12  C   UNL     1       6.011  -4.404  22.650  0.00  0.00    +0.442 C 
ATOM     13  C   UNL     1       5.686  -5.888  22.931  0.00  0.00    +0.244 C 
ATOM     14  C   UNL     1       4.207  -5.911  23.294  0.00  0.00    +0.183 C 
ATOM     15  C   UNL     1       3.898  -4.466  23.632  0.00  0.00    +0.183 C 
ATOM     16  O   UNL     1       4.773  -3.698  22.784  0.00  0.00    -0.309 OA
BRANCH  12  30
ATOM     17  C   UNL     1       9.080  -4.175  26.454  0.00  0.00    +0.155 C 
ATOM     18  N   UNL     1       8.346  -3.742  25.272  0.00  0.00    -0.286 N 
ATOM     19  C   UNL     1       7.925  -2.438  25.043  0.00  0.00    +0.204 A 
ATOM     20  C   UNL     1       8.129  -1.195  25.742  0.00  0.00    +0.305 A 
ATOM     21  N   UNL     1       7.317  -0.142  25.315  0.00  0.00    -0.175 NA
ATOM     22  C   UNL     1       6.489  -0.288  24.325  0.00  0.00    +0.198 A 
ATOM     23  N   UNL     1       6.347  -1.412  23.553  0.00  0.00    -0.273 N 
ATOM     24  H   UNL     1       5.585  -1.436  22.882  0.00  0.00    +0.174 HD
ATOM     25  N   UNL     1       5.635   0.716  24.012  0.00  0.00    -0.329 N 
ATOM     26  H   UNL     1       4.664   0.468  24.210  0.00  0.00    +0.145 HD
ATOM     27  H   UNL     1       5.812   1.513  24.628  0.00  0.00    +0.145 HD
ATOM     28  O   UNL     1       8.908  -1.053  26.684  0.00  0.00    -0.263 OA
ATOM     29  C   UNL     1       7.061  -2.486  23.984  0.00  0.00    +0.318 A 
ATOM     30  N   UNL     1       6.964  -3.815  23.605  0.00  0.00    -0.135 N 
ATOM     31  C   UNL     1       7.905  -4.513  24.271  0.00  0.00    +0.412 A 
ENDBRANCH  12  30
BRANCH  14  32
ATOM     32  O   UNL     1       3.472  -6.368  22.153  0.00  0.00    -0.386 OA
ATOM     33  H   UNL     1       3.559  -5.736  21.415  0.00  0.00    +0.210 HD
ENDBRANCH  14  32
BRANCH  13  34
ATOM     34  O   UNL     1       5.972  -6.717  21.805  0.00  0.00    -0.380 OA
ATOM     35  H   UNL     1       5.108  -7.092  21.513  0.00  0.00    +0.210 HD
ENDBRANCH  13  34
ENDBRANCH  11  15
ENDBRANCH  10  11
ENDBRANCH   6  10
ENDBRANCH   5   6
ENDBRANCH   1   5
BRANCH   1  36
ATOM     36  O   UNL     1       4.420   1.826  26.564  0.00  0.00    -0.186 OA
BRANCH  36  37
ATOM     37  P   UNL     1       3.270   2.849  26.057  0.00  0.00    +0.483 P 
ATOM     38  O   UNL     1       3.247   2.800  24.531  0.00  0.00    -0.227 OA
BRANCH  37  39
ATOM     39  O   UNL     1       2.139   1.541  26.043  0.00  0.00    -0.302 OA
ATOM     40  H   UNL     1       1.391   1.899  26.573  0.00  0.00    +0.222 HD
ENDBRANCH  37  39
BRANCH  37  41
ATOM     41  O   UNL     1       4.402   4.157  26.070  0.00  0.00    -0.284 OA
BRANCH  41  42
ATOM     42  C   UNL     1       4.466   4.850  24.827  0.00  0.00    +0.206 C 
BRANCH  42  43
ATOM     43  C   UNL     1       5.889   4.934  24.261  0.00  0.00    +0.178 C 
ATOM     44  C   UNL     1       6.007   5.734  22.963  0.00  0.00    +0.178 C 
ATOM     45  C   UNL     1       7.173   5.070  22.220  0.00  0.00    +0.195 C 
ATOM     46  C   UNL     1       7.636   3.960  23.175  0.00  0.00    +0.253 C 
ATOM     47  O   UNL     1       6.440   3.635  23.935  0.00  0.00    -0.346 OA
BRANCH  46  48
ATOM     48  N   UNL     1       8.173   2.769  22.541  0.00  0.00    -0.286 N 
ATOM     49  C   UNL     1       9.132   1.940  23.070  0.00  0.00    +0.167 A 
ATOM     50  C   UNL     1       9.183   0.854  22.210  0.00  0.00    +0.147 A 
ATOM     51  C   UNL     1      10.068  -0.184  22.547  0.00  0.00    +0.147 A 
ATOM     52  N   UNL     1      10.808  -0.058  23.674  0.00  0.00    -0.219 NA
ATOM     53  C   UNL     1      10.660   1.056  24.419  0.00  0.00    +0.225 A 
ATOM     54  N   UNL     1       8.292   1.014  21.173  0.00  0.00    -0.231 NA
ATOM     55  N   UNL     1       9.850   2.118  24.195  0.00  0.00    -0.216 NA
ATOM     56  C   UNL     1       7.680   2.152  21.424  0.00  0.00    +0.203 A 
BRANCH  51  57
ATOM     57  N   UNL     1      10.199  -1.349  21.800  0.00  0.00    -0.341 N 
ATOM     58  H   UNL     1       9.539  -2.062  22.090  0.00  0.00    +0.144 HD
ATOM     59  H   UNL     1      10.259  -1.174  20.801  0.00  0.00    +0.144 HD
ENDBRANCH  51  57
ENDBRANCH  46  48
BRANCH  44  60
ATOM     60  O   UNL     1       6.232   7.108  23.231  0.00  0.00    -0.386 OA
ATOM     61  H   UNL     1       7.205   7.226  23.256  0.00  0.00    +0.210 HD
ENDBRANCH  44  60
BRANCH  45  62
ATOM     62  O   UNL     1       8.184   6.024  21.897  0.00  0.00    -0.385 OA
ATOM     63  H   UNL     1       8.433   5.853  20.961  0.00  0.00    +0.210 HD
ENDBRANCH  45  62
ENDBRANCH  42  43
ENDBRANCH  41  42
ENDBRANCH  37  41
ENDBRANCH  36  37
ENDBRANCH   1  36
TORSDOF 20
ENDMDL
MODEL 2
REMARK VINA RESULT:      -6.8      2.107      7.192
REMARK  Name = 
REMARK  21 active torsions:
REMARK  status: ('A' for Active; 'I' for Inactive)
REMARK    1  A    between atoms: C_1  and  N_2
REMARK    2  A    between atoms: N_4  and  C_5
REMARK    3  A    between atoms: C_8  and  C_10
REMARK    4  A    between atoms: C_10  and  O_11
REMARK    5  A    between atoms: O_11  and  P_12
REMARK    6  A    between atoms: P_12  and  O_13
REMARK    7  A    between atoms: P_12  and  O_15
REMARK    8  A    between atoms: O_15  and  P_16
REMARK    9  A    between atoms: P_16  and  O_17
REMARK   10  A    between atoms: P_16  and  O_19
REMARK   11  A    between atoms: O_19  and  P_20
REMARK   12  A    between atoms: P_20  and  O_21
REMARK   13  A    between atoms: P_20  and  O_23
REMARK   14  A    between atoms: O_23  and  C_24
REMARK   15  A    between atoms: C_24  and  C_25
REMARK   16  A    between atoms: C_28  and  N_36
REMARK   17  A    between atoms: C_30  and  O_32
REMARK   18  A    between atoms: C_33  and  O_35
REMARK   19  A    between atoms: C_40  and  N_41
REMARK   20  A    between atoms: C_46  and  O_48
REMARK   21  A    between atoms: C_49  and  O_51
REMARK                            x       y       z     vdW  Elec       q    Type
REMARK                         _______ _______ _______ _____ _____    ______ ____
ROOT
ATOM      1  P   UNL     1       4.660  -1.219  26.394  0.00  0.00    +0.492 P 
ATOM      2  O   UNL     1       4.083   0.147  26.232  0.00  0.00    -0.226 OA
ENDROOT
BRANCH   1   3
ATOM      3  O   UNL     1       4.982  -1.849  24.950  0.00  0.00    -0.302 OA
ATOM      4  H   UNL     1       5.753  -2.451  25.029  0.00  0.00    +0.222 HD
ENDBRANCH   1   3
BRANCH   1   5
ATOM      5  O   UNL     1       6.106  -1.164  27.078  0.00  0.00    -0.186 OA
BRANCH   5   6
ATOM      6  P   UNL     1       6.857   0.390  26.975  0.00  0.00    +0.483 P 
ATOM      7  O   UNL     1       6.675   0.679  28.467  0.00  0.00    -0.227 OA
BRANCH   6   8
ATOM      8  O   UNL     1       7.608   1.945  26.871  0.00  0.00    -0.302 OA
ATOM      9  H   UNL     1       7.324   2.402  27.692  0.00  0.00    +0.222 HD
ENDBRANCH   6   8
BRANCH   6  10
ATOM     10  O   UNL     1       8.335  -0.320  26.854  0.00  0.00    -0.284 OA
BRANCH  10  11
ATOM     11  C   UNL     1       9.042  -0.146  25.636  0.00  0.00    +0.206 C 
BRANCH  11  15
ATOM     12  C   UNL     1       8.506  -0.209  22.578  0.00  0.00    +0.442 C 
ATOM     13  C   UNL     1       9.921  -0.827  22.631  0.00  0.00    +0.244 C 
ATOM     14  C   UNL     1       9.911  -1.744  23.848  0.00  0.00    +0.183 C 
ATOM     15  C   UNL     1       8.710  -1.271  24.643  0.00  0.00    +0.183 C 
ATOM     16  O   UNL     1       7.774  -0.811  23.649  0.00  0.00    -0.309 OA
BRANCH  12  30
ATOM     17  C   UNL     1      10.197   4.243  23.703  0.00  0.00    +0.155 C 
ATOM     18  N   UNL     1       9.264   3.216  23.258  0.00  0.00    -0.286 N 
ATOM     19  C   UNL     1       7.887   3.273  23.441  0.00  0.00    +0.204 A 
ATOM     20  C   UNL     1       7.000   4.281  23.964  0.00  0.00    +0.305 A 
ATOM     21  N   UNL     1       5.697   3.843  24.211  0.00  0.00    -0.175 NA
ATOM     22  C   UNL     1       5.330   2.629  23.929  0.00  0.00    +0.198 A 
ATOM     23  N   UNL     1       6.101   1.675  23.321  0.00  0.00    -0.273 N 
ATOM     24  H   UNL     1       5.732   0.730  23.258  0.00  0.00    +0.174 HD
ATOM     25  N   UNL     1       4.094   2.203  24.287  0.00  0.00    -0.329 N 
ATOM     26  H   UNL     1       4.132   1.492  25.019  0.00  0.00    +0.145 HD
ATOM     27  H   UNL     1       3.586   2.975  24.727  0.00  0.00    +0.145 HD
ATOM     28  O   UNL     1       7.345   5.430  24.238  0.00  0.00    -0.263 OA
ATOM     29  C   UNL     1       7.400   2.034  23.135  0.00  0.00    +0.318 A 
ATOM     30  N   UNL     1       8.488   1.247  22.791  0.00  0.00    -0.135 N 
ATOM     31  C   UNL     1       9.567   2.047  22.681  0.00  0.00    +0.412 A 
ENDBRANCH  12  30
BRANCH  14  32
ATOM     32  O   UNL     1       9.760  -3.093  23.392  0.00  0.00    -0.386 OA
ATOM     33  H   UNL     1       9.559  -3.111  22.437  0.00  0.00    +0.210 HD
ENDBRANCH  14  32
BRANCH  13  34
ATOM     34  O   UNL     1      10.238  -1.534  21.433  0.00  0.00    -0.380 OA
ATOM     35  H   UNL     1       9.426  -2.037  21.188  0.00  0.00    +0.210 HD
ENDBRANCH  13  34
ENDBRANCH  11  15
ENDBRANCH  10  11
ENDBRANCH   6  10
ENDBRANCH   5   6
ENDBRANCH   1   5
BRANCH   1  36
ATOM     36  O   UNL     1       3.824  -2.321  27.162  0.00  0.00    -0.186 OA
BRANCH  36  37
ATOM     37  P   UNL     1       2.208  -2.340  27.279  0.00  0.00    +0.483 P 
ATOM     38  O   UNL     1       1.777  -3.784  27.522  0.00  0.00    -0.227 OA
BRANCH  37  39
ATOM     39  O   UNL     1       2.349  -2.170  28.995  0.00  0.00    -0.302 OA
ATOM     40  H   UNL     1       1.472  -1.801  29.247  0.00  0.00    +0.222 HD
ENDBRANCH  37  39
BRANCH  37  41
ATOM     41  O   UNL     1       2.066  -2.509  25.564  0.00  0.00    -0.284 OA
BRANCH  41  42
ATOM     42  C   UNL     1       1.387  -3.701  25.176  0.00  0.00    +0.206 C 
BRANCH  42  43
ATOM     43  C   UNL     1       2.273  -4.660  24.372  0.00  0.00    +0.178 C 
ATOM     44  C   UNL     1       2.309  -6.090  24.912  0.00  0.00    +0.178 C 
ATOM     45  C   UNL     1       3.708  -6.596  24.540  0.00  0.00    +0.195 C 
ATOM     46  C   UNL     1       4.343  -5.411  23.795  0.00  0.00    +0.253 C 
ATOM     47  O   UNL     1       3.662  -4.251  24.346  0.00  0.00    -0.346 OA
BRANCH  46  48
ATOM     48  N   UNL     1       5.780  -5.274  23.943  0.00  0.00    -0.286 N 
ATOM     49  C   UNL     1       6.456  -5.133  25.132  0.00  0.00    +0.167 A 
ATOM     50  C   UNL     1       7.797  -5.231  24.797  0.00  0.00    +0.147 A 
ATOM     51  C   UNL     1       8.724  -5.163  25.851  0.00  0.00    +0.147 A 
ATOM     52  N   UNL     1       8.253  -5.005  27.111  0.00  0.00    -0.219 NA
ATOM     53  C   UNL     1       6.920  -4.921  27.293  0.00  0.00    +0.225 A 
ATOM     54  N   UNL     1       7.947  -5.413  23.440  0.00  0.00    -0.231 NA
ATOM     55  N   UNL     1       5.937  -4.967  26.363  0.00  0.00    -0.216 NA
ATOM     56  C   UNL     1       6.720  -5.471  22.969  0.00  0.00    +0.203 A 
BRANCH  51  57
ATOM     57  N   UNL     1      10.096  -5.284  25.671  0.00  0.00    -0.341 N 
ATOM     58  H   UNL     1      10.378  -6.248  25.536  0.00  0.00    +0.144 HD
ATOM     59  H   UNL     1      10.469  -4.610  25.007  0.00  0.00    +0.144 HD
ENDBRANCH  51  57
ENDBRANCH  46  48
BRANCH  44  60
ATOM     60  O   UNL     1       1.270  -6.873  24.347  0.00  0.00    -0.386 OA
ATOM     61  H   UNL     1       1.360  -6.787  23.375  0.00  0.00    +0.210 HD
ENDBRANCH  44  60
BRANCH  45  62
ATOM     62  O   UNL     1       3.632  -7.797  23.773  0.00  0.00    -0.385 OA
ATOM     63  H   UNL     1       3.439  -7.520  22.849  0.00  0.00    +0.210 HD
ENDBRANCH  45  62
ENDBRANCH  42  43
ENDBRANCH  41  42
ENDBRANCH  37  41
ENDBRANCH  36  37
ENDBRANCH   1  36
TORSDOF 20
ENDMDL
MODEL 3
REMARK VINA RESULT:      -6.7      2.733      4.502
REMARK  Name = 
REMARK  21 active torsions:
REMARK  status: ('A' for Active; 'I' for Inactive)
REMARK    1  A    between atoms: C_1  and  N_2
REMARK    2  A    between atoms: N_4  and  C_5
REMARK    3  A    between atoms: C_8  and  C_10
REMARK    4  A    between atoms: C_10  and  O_11
REMARK    5  A    between atoms: O_11  and  P_12
REMARK    6  A    between atoms: P_12  and  O_13
REMARK    7  A    between atoms: P_12  and  O_15
REMARK    8  A    between atoms: O_15  and  P_16
REMARK    9  A    between atoms: P_16  and  O_17
REMARK   10  A    between atoms: P_16  and  O_19
REMARK   11  A    between atoms: O_19  and  P_20
REMARK   12  A    between atoms: P_20  and  O_21
REMARK   13  A    between atoms: P_20  and  O_23
REMARK   14  A    between atoms: O_23  and  C_24
REMARK   15  A    between atoms: C_24  and  C_25
REMARK   16  A    between atoms: C_28  and  N_36
REMARK   17  A    between atoms: C_30  and  O_32
REMARK   18  A    between atoms: C_33  and  O_35
REMARK   19  A    between atoms: C_40  and  N_41
REMARK   20  A    between atoms: C_46  and  O_48
REMARK   21  A    between atoms: C_49  and  O_51
REMARK                            x       y       z     vdW  Elec       q    Type
REMARK                         _______ _______ _______ _____ _____    ______ ____
ROOT
ATOM      1  P   UNL     1       4.796  -0.160  26.541  0.00  0.00    +0.492 P 
ATOM      2  O   UNL     1       5.853   0.112  27.558  0.00  0.00    -0.226 OA
ENDROOT
BRANCH   1   3
ATOM      3  O   UNL     1       5.477  -0.443  25.112  0.00  0.00    -0.302 OA
ATOM      4  H   UNL     1       5.751  -1.385  25.070  0.00  0.00    +0.222 HD
ENDBRANCH   1   3
BRANCH   1   5
ATOM      5  O   UNL     1       4.036  -1.535  26.842  0.00  0.00    -0.186 OA
BRANCH   5   6
ATOM      6  P   UNL     1       5.106  -2.853  27.174  0.00  0.00    +0.483 P 
ATOM      7  O   UNL     1       4.571  -3.050  28.594  0.00  0.00    -0.227 OA
BRANCH   6   8
ATOM      8  O   UNL     1       6.176  -4.172  27.506  0.00  0.00    -0.302 OA
ATOM      9  H   UNL     1       7.043  -3.866  27.162  0.00  0.00    +0.222 HD
ENDBRANCH   6   8
BRANCH   6  10
ATOM     10  O   UNL     1       4.194  -3.845  26.232  0.00  0.00    -0.284 OA
BRANCH  10  11
ATOM     11  C   UNL     1       4.188  -3.591  24.835  0.00  0.00    +0.206 C 
BRANCH  11  15
ATOM     12  C   UNL     1       5.185  -6.409  23.994  0.00  0.00    +0.442 C 
ATOM     13  C   UNL     1       4.860  -5.798  22.613  0.00  0.00    +0.244 C 
ATOM     14  C   UNL     1       5.340  -4.354  22.691  0.00  0.00    +0.183 C 
ATOM     15  C   UNL     1       5.481  -4.104  24.180  0.00  0.00    +0.183 C 
ATOM     16  O   UNL     1       5.856  -5.381  24.730  0.00  0.00    -0.309 OA
BRANCH  12  30
ATOM     17  C   UNL     1       0.444  -6.838  25.129  0.00  0.00    +0.155 C 
ATOM     18  N   UNL     1       1.888  -7.011  25.232  0.00  0.00    -0.286 N 
ATOM     19  C   UNL     1       2.580  -7.140  26.430  0.00  0.00    +0.204 A 
ATOM     20  C   UNL     1       2.166  -7.246  27.806  0.00  0.00    +0.305 A 
ATOM     21  N   UNL     1       3.194  -7.107  28.740  0.00  0.00    -0.175 NA
ATOM     22  C   UNL     1       4.428  -6.949  28.365  0.00  0.00    +0.198 A 
ATOM     23  N   UNL     1       4.886  -6.964  27.074  0.00  0.00    -0.273 N 
ATOM     24  H   UNL     1       5.857  -6.718  26.909  0.00  0.00    +0.174 HD
ATOM     25  N   UNL     1       5.384  -6.702  29.294  0.00  0.00    -0.329 N 
ATOM     26  H   UNL     1       5.760  -5.756  29.213  0.00  0.00    +0.145 HD
ATOM     27  H   UNL     1       4.960  -6.714  30.224  0.00  0.00    +0.145 HD
ATOM     28  O   UNL     1       0.997  -7.390  28.165  0.00  0.00    -0.263 OA
ATOM     29  C   UNL     1       3.908  -7.018  26.130  0.00  0.00    +0.318 A 
ATOM     30  N   UNL     1       3.994  -6.800  24.764  0.00  0.00    -0.135 N 
ATOM     31  C   UNL     1       2.773  -7.005  24.228  0.00  0.00    +0.412 A 
ENDBRANCH  12  30
BRANCH  14  32
ATOM     32  O   UNL     1       6.594  -4.260  22.007  0.00  0.00    -0.386 OA
ATOM     33  H   UNL     1       7.296  -3.966  22.618  0.00  0.00    +0.210 HD
ENDBRANCH  14  32
BRANCH  13  34
ATOM     34  O   UNL     1       5.494  -6.514  21.553  0.00  0.00    -0.380 OA
ATOM     35  H   UNL     1       5.165  -6.112  20.714  0.00  0.00    +0.210 HD
ENDBRANCH  13  34
ENDBRANCH  11  15
ENDBRANCH  10  11
ENDBRANCH   6  10
ENDBRANCH   5   6
ENDBRANCH   1   5
BRANCH   1  36
ATOM     36  O   UNL     1       3.686   0.936  26.274  0.00  0.00    -0.186 OA
BRANCH  36  37
ATOM     37  P   UNL     1       3.985   2.499  25.969  0.00  0.00    +0.483 P 
ATOM     38  O   UNL     1       2.731   3.096  25.334  0.00  0.00    -0.227 OA
BRANCH  37  39
ATOM     39  O   UNL     1       3.312   2.910  27.509  0.00  0.00    -0.302 OA
ATOM     40  H   UNL     1       3.711   3.791  27.689  0.00  0.00    +0.222 HD
ENDBRANCH  37  39
BRANCH  37  41
ATOM     41  O   UNL     1       4.659   2.089  24.430  0.00  0.00    -0.284 OA
BRANCH  41  42
ATOM     42  C   UNL     1       5.444   3.138  23.868  0.00  0.00    +0.206 C 
BRANCH  42  43
ATOM     43  C   UNL     1       6.890   2.716  23.583  0.00  0.00    +0.178 C 
ATOM     44  C   UNL     1       7.318   2.874  22.123  0.00  0.00    +0.178 C 
ATOM     45  C   UNL     1       8.351   1.760  21.914  0.00  0.00    +0.195 C 
ATOM     46  C   UNL     1       8.440   1.076  23.287  0.00  0.00    +0.253 C 
ATOM     47  O   UNL     1       7.136   1.320  23.881  0.00  0.00    -0.346 OA
BRANCH  46  48
ATOM     48  N   UNL     1       8.727  -0.347  23.261  0.00  0.00    -0.286 N 
ATOM     49  C   UNL     1       8.742  -1.183  24.351  0.00  0.00    +0.167 A 
ATOM     50  C   UNL     1       8.872  -2.458  23.825  0.00  0.00    +0.147 A 
ATOM     51  C   UNL     1       8.871  -3.528  24.737  0.00  0.00    +0.147 A 
ATOM     52  N   UNL     1       8.747  -3.247  26.056  0.00  0.00    -0.219 NA
ATOM     53  C   UNL     1       8.632  -1.957  26.431  0.00  0.00    +0.225 A 
ATOM     54  N   UNL     1       8.949  -2.411  22.451  0.00  0.00    -0.231 NA
ATOM     55  N   UNL     1       8.626  -0.850  25.651  0.00  0.00    -0.216 NA
ATOM     56  C   UNL     1       8.821  -1.137  22.148  0.00  0.00    +0.203 A 
BRANCH  51  57
ATOM     57  N   UNL     1       8.955  -4.860  24.352  0.00  0.00    -0.341 N 
ATOM     58  H   UNL     1       9.629  -4.998  23.608  0.00  0.00    +0.144 HD
ATOM     59  H   UNL     1       9.022  -5.497  25.141  0.00  0.00    +0.144 HD
ENDBRANCH  51  57
ENDBRANCH  46  48
BRANCH  44  60
ATOM     60  O   UNL     1       7.846   4.169  21.886  0.00  0.00    -0.386 OA
ATOM     61  H   UNL     1       7.750   4.331  20.923  0.00  0.00    +0.210 HD
ENDBRANCH  44  60
BRANCH  45  62
ATOM     62  O   UNL     1       9.589   2.292  21.443  0.00  0.00    -0.385 OA
ATOM     63  H   UNL     1       9.360   3.084  20.908  0.00  0.00    +0.210 HD
ENDBRANCH  45  62
ENDBRANCH  42  43
ENDBRANCH  41  42
ENDBRANCH  37  41
ENDBRANCH  36  37
ENDBRANCH   1  36
TORSDOF 20
ENDMDL
MODEL 4
REMARK VINA RESULT:      -6.3      2.052      3.017
REMARK  Name = 
REMARK  21 active torsions:
REMARK  status: ('A' for Active; 'I' for Inactive)
REMARK    1  A    between atoms: C_1  and  N_2
REMARK    2  A    between atoms: N_4  and  C_5
REMARK    3  A    between atoms: C_8  and  C_10
REMARK    4  A    between atoms: C_10  and  O_11
REMARK    5  A    between atoms: O_11  and  P_12
REMARK    6  A    between atoms: P_12  and  O_13
REMARK    7  A    between atoms: P_12  and  O_15
REMARK    8  A    between atoms: O_15  and  P_16
REMARK    9  A    between atoms: P_16  and  O_17
REMARK   10  A    between atoms: P_16  and  O_19
REMARK   11  A    between atoms: O_19  and  P_20
REMARK   12  A    between atoms: P_20  and  O_21
REMARK   13  A    between atoms: P_20  and  O_23
REMARK   14  A    between atoms: O_23  and  C_24
REMARK   15  A    between atoms: C_24  and  C_25
REMARK   16  A    between atoms: C_28  and  N_36
REMARK   17  A    between atoms: C_30  and  O_32
REMARK   18  A    between atoms: C_33  and  O_35
REMARK   19  A    between atoms: C_40  and  N_41
REMARK   20  A    between atoms: C_46  and  O_48
REMARK   21  A    between atoms: C_49  and  O_51
REMARK                            x       y       z     vdW  Elec       q    Type
REMARK                         _______ _______ _______ _____ _____    ______ ____
ROOT
ATOM      1  P   UNL     1       6.803   1.132  27.756  0.00  0.00    +0.492 P 
ATOM      2  O   UNL     1       7.799   0.724  28.789  0.00  0.00    -0.226 OA
ENDROOT
BRANCH   1   3
ATOM      3  O   UNL     1       7.556   1.834  26.521  0.00  0.00    -0.302 OA
ATOM      4  H   UNL     1       7.771   2.761  26.762  0.00  0.00    +0.222 HD
ENDBRANCH   1   3
BRANCH   1   5
ATOM      5  O   UNL     1       6.120  -0.140  27.068  0.00  0.00    -0.186 OA
BRANCH   5   6
ATOM      6  P   UNL     1       6.094  -0.057  25.341  0.00  0.00    +0.483 P 
ATOM      7  O   UNL     1       7.424  -0.798  25.193  0.00  0.00    -0.227 OA
BRANCH   6   8
ATOM      8  O   UNL     1       6.068   0.027  23.613  0.00  0.00    -0.302 OA
ATOM      9  H   UNL     1       5.157   0.324  23.403  0.00  0.00    +0.222 HD
ENDBRANCH   6   8
BRANCH   6  10
ATOM     10  O   UNL     1       4.943  -1.229  25.290  0.00  0.00    -0.284 OA
BRANCH  10  11
ATOM     11  C   UNL     1       4.637  -1.894  26.506  0.00  0.00    +0.206 C 
BRANCH  11  15
ATOM     12  C   UNL     1       4.010  -4.876  25.907  0.00  0.00    +0.442 C 
ATOM     13  C   UNL     1       3.695  -4.816  27.419  0.00  0.00    +0.244 C 
ATOM     14  C   UNL     1       2.987  -3.483  27.628  0.00  0.00    +0.183 C 
ATOM     15  C   UNL     1       3.331  -2.695  26.380  0.00  0.00    +0.183 C 
ATOM     16  O   UNL     1       3.445  -3.689  25.342  0.00  0.00    -0.309 OA
BRANCH  12  30
ATOM     17  C   UNL     1       8.833  -4.882  26.735  0.00  0.00    +0.155 C 
ATOM     18  N   UNL     1       7.582  -4.910  25.988  0.00  0.00    -0.286 N 
ATOM     19  C   UNL     1       7.414  -4.372  24.718  0.00  0.00    +0.204 A 
ATOM     20  C   UNL     1       8.318  -3.774  23.768  0.00  0.00    +0.305 A 
ATOM     21  N   UNL     1       7.699  -3.127  22.697  0.00  0.00    -0.175 NA
ATOM     22  C   UNL     1       6.407  -3.126  22.566  0.00  0.00    +0.198 A 
ATOM     23  N   UNL     1       5.515  -3.781  23.374  0.00  0.00    -0.273 N 
ATOM     24  H   UNL     1       4.524  -3.609  23.229  0.00  0.00    +0.174 HD
ATOM     25  N   UNL     1       5.834  -2.392  21.581  0.00  0.00    -0.329 N 
ATOM     26  H   UNL     1       5.298  -1.606  21.953  0.00  0.00    +0.145 HD
ATOM     27  H   UNL     1       6.566  -1.944  21.026  0.00  0.00    +0.145 HD
ATOM     28  O   UNL     1       9.543  -3.768  23.892  0.00  0.00    -0.263 OA
ATOM     29  C   UNL     1       6.069  -4.359  24.473  0.00  0.00    +0.318 A 
ATOM     30  N   UNL     1       5.450  -4.871  25.602  0.00  0.00    -0.135 N 
ATOM     31  C   UNL     1       6.402  -5.379  26.411  0.00  0.00    +0.412 A 
ENDBRANCH  12  30
BRANCH  14  32
ATOM     32  O   UNL     1       1.582  -3.734  27.739  0.00  0.00    -0.386 OA
ATOM     33  H   UNL     1       1.336  -3.901  28.668  0.00  0.00    +0.210 HD
ENDBRANCH  14  32
BRANCH  13  34
ATOM     34  O   UNL     1       2.890  -5.919  27.837  0.00  0.00    -0.380 OA
ATOM     35  H   UNL     1       2.044  -5.847  27.336  0.00  0.00    +0.210 HD
ENDBRANCH  13  34
ENDBRANCH  11  15
ENDBRANCH  10  11
ENDBRANCH   6  10
ENDBRANCH   5   6
ENDBRANCH   1   5
BRANCH   1  36
ATOM     36  O   UNL     1       5.638   2.124  28.162  0.00  0.00    -0.186 OA
BRANCH  36  37
ATOM     37  P   UNL     1       5.644   3.720  27.885  0.00  0.00    +0.483 P 
ATOM     38  O   UNL     1       4.335   4.289  28.428  0.00  0.00    -0.227 OA
BRANCH  37  39
ATOM     39  O   UNL     1       6.320   3.972  29.457  0.00  0.00    -0.302 OA
ATOM     40  H   UNL     1       6.089   3.139  29.926  0.00  0.00    +0.222 HD
ENDBRANCH  37  39
BRANCH  37  41
ATOM     41  O   UNL     1       4.967   3.468  26.313  0.00  0.00    -0.284 OA
BRANCH  41  42
ATOM     42  C   UNL     1       4.966   4.647  25.512  0.00  0.00    +0.206 C 
BRANCH  42  43
ATOM     43  C   UNL     1       6.244   4.807  24.680  0.00  0.00    +0.178 C 
ATOM     44  C   UNL     1       6.041   5.514  23.339  0.00  0.00    +0.178 C 
ATOM     45  C   UNL     1       7.107   4.896  22.426  0.00  0.00    +0.195 C 
ATOM     46  C   UNL     1       7.844   3.903  23.337  0.00  0.00    +0.253 C 
ATOM     47  O   UNL     1       6.847   3.537  24.330  0.00  0.00    -0.346 OA
BRANCH  46  48
ATOM     48  N   UNL     1       8.365   2.717  22.681  0.00  0.00    -0.286 N 
ATOM     49  C   UNL     1       9.214   1.795  23.245  0.00  0.00    +0.167 A 
ATOM     50  C   UNL     1       9.282   0.760  22.325  0.00  0.00    +0.147 A 
ATOM     51  C   UNL     1      10.062  -0.355  22.677  0.00  0.00    +0.147 A 
ATOM     52  N   UNL     1      10.693  -0.345  23.875  0.00  0.00    -0.219 NA
ATOM     53  C   UNL     1      10.542   0.732  24.672  0.00  0.00    +0.225 A 
ATOM     54  N   UNL     1       8.510   1.041  21.220  0.00  0.00    -0.231 NA
ATOM     55  N   UNL     1       9.826   1.858  24.442  0.00  0.00    -0.216 NA
ATOM     56  C   UNL     1       7.948   2.201  21.485  0.00  0.00    +0.203 A 
BRANCH  51  57
ATOM     57  N   UNL     1      10.193  -1.480  21.872  0.00  0.00    -0.341 N 
ATOM     58  H   UNL     1      10.521  -2.284  22.395  0.00  0.00    +0.144 HD
ATOM     59  H   UNL     1       9.388  -1.633  21.272  0.00  0.00    +0.144 HD
ENDBRANCH  51  57
ENDBRANCH  46  48
BRANCH  44  60
ATOM     60  O   UNL     1       6.179   6.918  23.480  0.00  0.00    -0.386 OA
ATOM     61  H   UNL     1       6.729   7.061  24.278  0.00  0.00    +0.210 HD
ENDBRANCH  44  60
BRANCH  45  62
ATOM     62  O   UNL     1       7.943   5.905  21.860  0.00  0.00    -0.385 OA
ATOM     63  H   UNL     1       8.547   6.195  22.580  0.00  0.00    +0.210 HD
ENDBRANCH  45  62
ENDBRANCH  42  43
ENDBRANCH  41  42
ENDBRANCH  37  41
ENDBRANCH  36  37
ENDBRANCH   1  36
TORSDOF 20
ENDMDL
MODEL 5
REMARK VINA RESULT:      -6.3      2.320      8.035
REMARK  Name = 
REMARK  21 active torsions:
REMARK  status: ('A' for Active; 'I' for Inactive)
REMARK    1  A    between atoms: C_1  and  N_2
REMARK    2  A    between atoms: N_4  and  C_5
REMARK    3  A    between atoms: C_8  and  C_10
REMARK    4  A    between atoms: C_10  and  O_11
REMARK    5  A    between atoms: O_11  and  P_12
REMARK    6  A    between atoms: P_12  and  O_13
REMARK    7  A    between atoms: P_12  and  O_15
REMARK    8  A    between atoms: O_15  and  P_16
REMARK    9  A    between atoms: P_16  and  O_17
REMARK   10  A    between atoms: P_16  and  O_19
REMARK   11  A    between atoms: O_19  and  P_20
REMARK   12  A    between atoms: P_20  and  O_21
REMARK   13  A    between atoms: P_20  and  O_23
REMARK   14  A    between atoms: O_23  and  C_24
REMARK   15  A    between atoms: C_24  and  C_25
REMARK   16  A    between atoms: C_28  and  N_36
REMARK   17  A    between atoms: C_30  and  O_32
REMARK   18  A    between atoms: C_33  and  O_35
REMARK   19  A    between atoms: C_40  and  N_41
REMARK   20  A    between atoms: C_46  and  O_48
REMARK   21  A    between atoms: C_49  and  O_51
REMARK                            x       y       z     vdW  Elec       q    Type
REMARK                         _______ _______ _______ _____ _____    ______ ____
ROOT
ATOM      1  P   UNL     1       5.066  -0.998  25.959  0.00  0.00    +0.492 P 
ATOM      2  O   UNL     1       5.398  -1.774  24.728  0.00  0.00    -0.226 OA
ENDROOT
BRANCH   1   3
ATOM      3  O   UNL     1       5.779  -1.670  27.234  0.00  0.00    -0.302 OA
ATOM      4  H   UNL     1       5.801  -1.018  27.968  0.00  0.00    +0.222 HD
ENDBRANCH   1   3
BRANCH   1   5
ATOM      5  O   UNL     1       5.723   0.461  25.923  0.00  0.00    -0.186 OA
BRANCH   5   6
ATOM      6  P   UNL     1       5.688   1.193  24.357  0.00  0.00    +0.483 P 
ATOM      7  O   UNL     1       4.329   1.855  24.595  0.00  0.00    -0.227 OA
BRANCH   6   8
ATOM      8  O   UNL     1       5.654   1.925  22.790  0.00  0.00    -0.302 OA
ATOM      9  H   UNL     1       5.043   1.355  22.274  0.00  0.00    +0.222 HD
ENDBRANCH   6   8
BRANCH   6  10
ATOM     10  O   UNL     1       6.797   2.306  24.840  0.00  0.00    -0.284 OA
BRANCH  10  11
ATOM     11  C   UNL     1       6.954   3.462  24.032  0.00  0.00    +0.206 C 
BRANCH  11  15
ATOM     12  C   UNL     1      10.054   3.621  24.112  0.00  0.00    +0.442 C 
ATOM     13  C   UNL     1       9.736   4.761  23.118  0.00  0.00    +0.244 C 
ATOM     14  C   UNL     1       8.506   5.457  23.688  0.00  0.00    +0.183 C 
ATOM     15  C   UNL     1       7.947   4.447  24.670  0.00  0.00    +0.183 C 
ATOM     16  O   UNL     1       9.102   3.748  25.173  0.00  0.00    -0.309 OA
BRANCH  12  30
ATOM     17  C   UNL     1       9.009   0.191  20.782  0.00  0.00    +0.155 C 
ATOM     18  N   UNL     1       9.467   0.771  22.038  0.00  0.00    -0.286 N 
ATOM     19  C   UNL     1       9.371   0.144  23.274  0.00  0.00    +0.204 A 
ATOM     20  C   UNL     1       8.943  -1.168  23.687  0.00  0.00    +0.305 A 
ATOM     21  N   UNL     1       8.759  -1.318  25.063  0.00  0.00    -0.175 NA
ATOM     22  C   UNL     1       9.013  -0.346  25.887  0.00  0.00    +0.198 A 
ATOM     23  N   UNL     1       9.535   0.876  25.554  0.00  0.00    -0.273 N 
ATOM     24  H   UNL     1       9.582   1.588  26.277  0.00  0.00    +0.174 HD
ATOM     25  N   UNL     1       8.714  -0.487  27.201  0.00  0.00    -0.329 N 
ATOM     26  H   UNL     1       7.954   0.132  27.488  0.00  0.00    +0.145 HD
ATOM     27  H   UNL     1       8.338  -1.423  27.363  0.00  0.00    +0.145 HD
ATOM     28  O   UNL     1       8.696  -2.090  22.910  0.00  0.00    -0.263 OA
ATOM     29  C   UNL     1       9.656   1.092  24.217  0.00  0.00    +0.318 A 
ATOM     30  N   UNL     1       9.901   2.275  23.537  0.00  0.00    -0.135 N 
ATOM     31  C   UNL     1       9.977   1.995  22.220  0.00  0.00    +0.412 A 
ENDBRANCH  12  30
BRANCH  14  32
ATOM     32  O   UNL     1       8.932   6.661  24.335  0.00  0.00    -0.386 OA
ATOM     33  H   UNL     1       8.423   7.425  24.004  0.00  0.00    +0.210 HD
ENDBRANCH  14  32
BRANCH  13  34
ATOM     34  O   UNL     1      10.836   5.658  22.970  0.00  0.00    -0.380 OA
ATOM     35  H   UNL     1      11.020   5.710  22.002  0.00  0.00    +0.210 HD
ENDBRANCH  13  34
ENDBRANCH  11  15
ENDBRANCH  10  11
ENDBRANCH   6  10
ENDBRANCH   5   6
ENDBRANCH   1   5
BRANCH   1  36
ATOM     36  O   UNL     1       3.548  -0.815  26.366  0.00  0.00    -0.186 OA
BRANCH  36  37
ATOM     37  P   UNL     1       3.037  -0.261  27.801  0.00  0.00    +0.483 P 
ATOM     38  O   UNL     1       4.271   0.074  28.635  0.00  0.00    -0.227 OA
BRANCH  37  39
ATOM     39  O   UNL     1       3.108   1.353  27.182  0.00  0.00    -0.302 OA
ATOM     40  H   UNL     1       2.255   1.435  26.698  0.00  0.00    +0.222 HD
ENDBRANCH  37  39
BRANCH  37  41
ATOM     41  O   UNL     1       2.965  -1.874  28.419  0.00  0.00    -0.284 OA
BRANCH  41  42
ATOM     42  C   UNL     1       1.955  -2.665  27.797  0.00  0.00    +0.206 C 
BRANCH  42  43
ATOM     43  C   UNL     1       2.500  -3.962  27.189  0.00  0.00    +0.178 C 
ATOM     44  C   UNL     1       2.263  -5.209  28.043  0.00  0.00    +0.178 C 
ATOM     45  C   UNL     1       3.457  -6.115  27.721  0.00  0.00    +0.195 C 
ATOM     46  C   UNL     1       4.263  -5.312  26.689  0.00  0.00    +0.253 C 
ATOM     47  O   UNL     1       3.935  -3.929  26.992  0.00  0.00    -0.346 OA
BRANCH  46  48
ATOM     48  N   UNL     1       5.701  -5.512  26.721  0.00  0.00    -0.286 N 
ATOM     49  C   UNL     1       6.548  -5.432  25.642  0.00  0.00    +0.167 A 
ATOM     50  C   UNL     1       7.823  -5.503  26.180  0.00  0.00    +0.147 A 
ATOM     51  C   UNL     1       8.900  -5.400  25.283  0.00  0.00    +0.147 A 
ATOM     52  N   UNL     1       8.626  -5.242  23.966  0.00  0.00    -0.219 NA
ATOM     53  C   UNL     1       7.335  -5.192  23.579  0.00  0.00    +0.225 A 
ATOM     54  N   UNL     1       7.766  -5.637  27.549  0.00  0.00    -0.231 NA
ATOM     55  N   UNL     1       6.221  -5.285  24.344  0.00  0.00    -0.216 NA
ATOM     56  C   UNL     1       6.483  -5.601  27.840  0.00  0.00    +0.203 A 
BRANCH  51  57
ATOM     57  N   UNL     1      10.231  -5.417  25.682  0.00  0.00    -0.341 N 
ATOM     58  H   UNL     1      10.440  -6.215  26.271  0.00  0.00    +0.144 HD
ATOM     59  H   UNL     1      10.876  -5.243  24.916  0.00  0.00    +0.144 HD
ENDBRANCH  51  57
ENDBRANCH  46  48
BRANCH  44  60
ATOM     60  O   UNL     1       1.015  -5.807  27.733  0.00  0.00    -0.386 OA
ATOM     61  H   UNL     1       0.798  -5.529  26.818  0.00  0.00    +0.210 HD
ENDBRANCH  44  60
BRANCH  45  62
ATOM     62  O   UNL     1       3.020  -7.393  27.259  0.00  0.00    -0.385 OA
ATOM     63  H   UNL     1       3.270  -7.440  26.309  0.00  0.00    +0.210 HD
ENDBRANCH  45  62
ENDBRANCH  42  43
ENDBRANCH  41  42
ENDBRANCH  37  41
ENDBRANCH  36  37
ENDBRANCH   1  36
TORSDOF 20
ENDMDL
MODEL 6
REMARK VINA RESULT:      -6.3      2.439      7.824
REMARK  Name = 
REMARK  21 active torsions:
REMARK  status: ('A' for Active; 'I' for Inactive)
REMARK    1  A    between atoms: C_1  and  N_2
REMARK    2  A    between atoms: N_4  and  C_5
REMARK    3  A    between atoms: C_8  and  C_10
REMARK    4  A    between atoms: C_10  and  O_11
REMARK    5  A    between atoms: O_11  and  P_12
REMARK    6  A    between atoms: P_12  and  O_13
REMARK    7  A    between atoms: P_12  and  O_15
REMARK    8  A    between atoms: O_15  and  P_16
REMARK    9  A    between atoms: P_16  and  O_17
REMARK   10  A    between atoms: P_16  and  O_19
REMARK   11  A    between atoms: O_19  and  P_20
REMARK   12  A    between atoms: P_20  and  O_21
REMARK   13  A    between atoms: P_20  and  O_23
REMARK   14  A    between atoms: O_23  and  C_24
REMARK   15  A    between atoms: C_24  and  C_25
REMARK   16  A    between atoms: C_28  and  N_36
REMARK   17  A    between atoms: C_30  and  O_32
REMARK   18  A    between atoms: C_33  and  O_35
REMARK   19  A    between atoms: C_40  and  N_41
REMARK   20  A    between atoms: C_46  and  O_48
REMARK   21  A    between atoms: C_49  and  O_51
REMARK                            x       y       z     vdW  Elec       q    Type
REMARK                         _______ _______ _______ _____ _____    ______ ____
ROOT
ATOM      1  P   UNL     1       4.588  -1.435  26.430  0.00  0.00    +0.492 P 
ATOM      2  O   UNL     1       4.443   0.027  26.169  0.00  0.00    -0.226 OA
ENDROOT
BRANCH   1   3
ATOM      3  O   UNL     1       4.339  -2.258  25.071  0.00  0.00    -0.302 OA
ATOM      4  H   UNL     1       3.860  -3.088  25.284  0.00  0.00    +0.222 HD
ENDBRANCH   1   3
BRANCH   1   5
ATOM      5  O   UNL     1       6.099  -1.816  26.794  0.00  0.00    -0.186 OA
BRANCH   5   6
ATOM      6  P   UNL     1       7.210  -0.508  26.573  0.00  0.00    +0.483 P 
ATOM      7  O   UNL     1       8.435  -1.379  26.861  0.00  0.00    -0.227 OA
BRANCH   6   8
ATOM      8  O   UNL     1       8.320   0.800  26.353  0.00  0.00    -0.302 OA
ATOM      9  H   UNL     1       7.927   1.325  25.623  0.00  0.00    +0.222 HD
ENDBRANCH   6   8
BRANCH   6  10
ATOM     10  O   UNL     1       7.000  -0.590  24.945  0.00  0.00    -0.284 OA
BRANCH  10  11
ATOM     11  C   UNL     1       7.138   0.616  24.210  0.00  0.00    +0.206 C 
BRANCH  11  15
ATOM     12  C   UNL     1       8.069   2.456  21.888  0.00  0.00    +0.442 C 
ATOM     13  C   UNL     1       9.431   1.972  22.431  0.00  0.00    +0.244 C 
ATOM     14  C   UNL     1       9.231   0.497  22.757  0.00  0.00    +0.183 C 
ATOM     15  C   UNL     1       7.724   0.345  22.815  0.00  0.00    +0.183 C 
ATOM     16  O   UNL     1       7.224   1.301  21.860  0.00  0.00    -0.309 OA
BRANCH  12  30
ATOM     17  C   UNL     1       7.355   5.363  25.760  0.00  0.00    +0.155 C 
ATOM     18  N   UNL     1       7.136   4.769  24.447  0.00  0.00    -0.286 N 
ATOM     19  C   UNL     1       5.888   4.606  23.857  0.00  0.00    +0.204 A 
ATOM     20  C   UNL     1       4.556   5.010  24.231  0.00  0.00    +0.305 A 
ATOM     21  N   UNL     1       3.535   4.425  23.481  0.00  0.00    -0.175 NA
ATOM     22  C   UNL     1       3.797   3.623  22.494  0.00  0.00    +0.198 A 
ATOM     23  N   UNL     1       5.045   3.305  22.025  0.00  0.00    -0.273 N 
ATOM     24  H   UNL     1       5.119   2.579  21.318  0.00  0.00    +0.174 HD
ATOM     25  N   UNL     1       2.783   2.983  21.862  0.00  0.00    -0.329 N 
ATOM     26  H   UNL     1       2.802   1.976  22.032  0.00  0.00    +0.145 HD
ATOM     27  H   UNL     1       1.893   3.280  22.268  0.00  0.00    +0.145 HD
ATOM     28  O   UNL     1       4.303   5.764  25.170  0.00  0.00    -0.263 OA
ATOM     29  C   UNL     1       6.070   3.791  22.775  0.00  0.00    +0.318 A 
ATOM     30  N   UNL     1       7.416   3.463  22.740  0.00  0.00    -0.135 N 
ATOM     31  C   UNL     1       8.060   4.232  23.641  0.00  0.00    +0.412 A 
ENDBRANCH  12  30
BRANCH  14  32
ATOM     32  O   UNL     1       9.812  -0.279  21.703  0.00  0.00    -0.386 OA
ATOM     33  H   UNL     1       9.205  -0.329  20.941  0.00  0.00    +0.210 HD
ENDBRANCH  14  32
BRANCH  13  34
ATOM     34  O   UNL     1      10.481   2.170  21.485  0.00  0.00    -0.380 OA
ATOM     35  H   UNL     1      10.762   3.112  21.579  0.00  0.00    +0.210 HD
ENDBRANCH  13  34
ENDBRANCH  11  15
ENDBRANCH  10  11
ENDBRANCH   6  10
ENDBRANCH   5   6
ENDBRANCH   1   5
BRANCH   1  36
ATOM     36  O   UNL     1       3.662  -2.117  27.516  0.00  0.00    -0.186 OA
BRANCH  36  37
ATOM     37  P   UNL     1       2.054  -2.273  27.394  0.00  0.00    +0.483 P 
ATOM     38  O   UNL     1       1.435  -1.710  28.671  0.00  0.00    -0.227 OA
BRANCH  37  39
ATOM     39  O   UNL     1       1.967  -0.676  26.735  0.00  0.00    -0.302 OA
ATOM     40  H   UNL     1       2.386  -0.131  27.439  0.00  0.00    +0.222 HD
ENDBRANCH  37  39
BRANCH  37  41
ATOM     41  O   UNL     1       2.140  -3.870  28.053  0.00  0.00    -0.284 OA
BRANCH  41  42
ATOM     42  C   UNL     1       1.949  -4.888  27.073  0.00  0.00    +0.206 C 
BRANCH  42  43
ATOM     43  C   UNL     1       3.167  -5.805  26.918  0.00  0.00    +0.178 C 
ATOM     44  C   UNL     1       3.764  -6.292  28.239  0.00  0.00    +0.178 C 
ATOM     45  C   UNL     1       5.257  -6.463  27.934  0.00  0.00    +0.195 C 
ATOM     46  C   UNL     1       5.378  -6.080  26.451  0.00  0.00    +0.253 C 
ATOM     47  O   UNL     1       4.272  -5.160  26.240  0.00  0.00    -0.346 OA
BRANCH  46  48
ATOM     48  N   UNL     1       6.633  -5.463  26.062  0.00  0.00    -0.286 N 
ATOM     49  C   UNL     1       6.864  -4.780  24.892  0.00  0.00    +0.167 A 
ATOM     50  C   UNL     1       8.121  -4.218  25.046  0.00  0.00    +0.147 A 
ATOM     51  C   UNL     1       8.594  -3.416  23.993  0.00  0.00    +0.147 A 
ATOM     52  N   UNL     1       7.802  -3.249  22.908  0.00  0.00    -0.219 NA
ATOM     53  C   UNL     1       6.600  -3.859  22.889  0.00  0.00    +0.225 A 
ATOM     54  N   UNL     1       8.657  -4.554  26.269  0.00  0.00    -0.231 NA
ATOM     55  N   UNL     1       6.042  -4.653  23.833  0.00  0.00    -0.216 NA
ATOM     56  C   UNL     1       7.724  -5.267  26.863  0.00  0.00    +0.203 A 
BRANCH  51  57
ATOM     57  N   UNL     1       9.818  -2.759  24.023  0.00  0.00    -0.341 N 
ATOM     58  H   UNL     1      10.226  -2.759  24.951  0.00  0.00    +0.144 HD
ATOM     59  H   UNL     1      10.433  -3.032  23.262  0.00  0.00    +0.144 HD
ENDBRANCH  51  57
ENDBRANCH  46  48
BRANCH  44  60
ATOM     60  O   UNL     1       3.145  -7.495  28.665  0.00  0.00    -0.386 OA
ATOM     61  H   UNL     1       2.272  -7.526  28.219  0.00  0.00    +0.210 HD
ENDBRANCH  44  60
BRANCH  45  62
ATOM     62  O   UNL     1       5.693  -7.788  28.235  0.00  0.00    -0.385 OA
ATOM     63  H   UNL     1       6.503  -7.691  28.785  0.00  0.00    +0.210 HD
ENDBRANCH  45  62
ENDBRANCH  42  43
ENDBRANCH  41  42
ENDBRANCH  37  41
ENDBRANCH  36  37
ENDBRANCH   1  36
TORSDOF 20
ENDMDL
MODEL 7
REMARK VINA RESULT:      -6.2      1.452      1.865
REMARK  Name = 
REMARK  21 active torsions:
REMARK  status: ('A' for Active; 'I' for Inactive)
REMARK    1  A    between atoms: C_1  and  N_2
REMARK    2  A    between atoms: N_4  and  C_5
REMARK    3  A    between atoms: C_8  and  C_10
REMARK    4  A    between atoms: C_10  and  O_11
REMARK    5  A    between atoms: O_11  and  P_12
REMARK    6  A    between atoms: P_12  and  O_13
REMARK    7  A    between atoms: P_12  and  O_15
REMARK    8  A    between atoms: O_15  and  P_16
REMARK    9  A    between atoms: P_16  and  O_17
REMARK   10  A    between atoms: P_16  and  O_19
REMARK   11  A    between atoms: O_19  and  P_20
REMARK   12  A    between atoms: P_20  and  O_21
REMARK   13  A    between atoms: P_20  and  O_23
REMARK   14  A    between atoms: O_23  and  C_24
REMARK   15  A    between atoms: C_24  and  C_25
REMARK   16  A    between atoms: C_28  and  N_36
REMARK   17  A    between atoms: C_30  and  O_32
REMARK   18  A    between atoms: C_33  and  O_35
REMARK   19  A    between atoms: C_40  and  N_41
REMARK   20  A    between atoms: C_46  and  O_48
REMARK   21  A    between atoms: C_49  and  O_51
REMARK                            x       y       z     vdW  Elec       q    Type
REMARK                         _______ _______ _______ _____ _____    ______ ____
ROOT
ATOM      1  P   UNL     1       5.622   0.537  26.168  0.00  0.00    +0.492 P 
ATOM      2  O   UNL     1       6.276   0.024  27.407  0.00  0.00    -0.226 OA
ENDROOT
BRANCH   1   3
ATOM      3  O   UNL     1       6.705   0.636  24.983  0.00  0.00    -0.302 OA
ATOM      4  H   UNL     1       6.277   1.032  24.193  0.00  0.00    +0.222 HD
ENDBRANCH   1   3
BRANCH   1   5
ATOM      5  O   UNL     1       4.566  -0.515  25.587  0.00  0.00    -0.186 OA
BRANCH   5   6
ATOM      6  P   UNL     1       4.337  -1.894  26.605  0.00  0.00    +0.483 P 
ATOM      7  O   UNL     1       3.244  -1.217  27.433  0.00  0.00    -0.227 OA
BRANCH   6   8
ATOM      8  O   UNL     1       4.109  -3.274  27.623  0.00  0.00    -0.302 OA
ATOM      9  H   UNL     1       4.795  -3.908  27.322  0.00  0.00    +0.222 HD
ENDBRANCH   6   8
BRANCH   6  10
ATOM     10  O   UNL     1       3.539  -2.669  25.395  0.00  0.00    -0.284 OA
BRANCH  10  11
ATOM     11  C   UNL     1       2.818  -3.843  25.737  0.00  0.00    +0.206 C 
BRANCH  11  15
ATOM     12  C   UNL     1       4.065  -5.808  23.682  0.00  0.00    +0.442 C 
ATOM     13  C   UNL     1       3.146  -6.767  24.472  0.00  0.00    +0.244 C 
ATOM     14  C   UNL     1       1.866  -5.980  24.721  0.00  0.00    +0.183 C 
ATOM     15  C   UNL     1       2.278  -4.541  24.479  0.00  0.00    +0.183 C 
ATOM     16  O   UNL     1       3.298  -4.620  23.465  0.00  0.00    -0.309 OA
BRANCH  12  30
ATOM     17  C   UNL     1       7.221  -5.472  27.406  0.00  0.00    +0.155 C 
ATOM     18  N   UNL     1       6.686  -5.315  26.059  0.00  0.00    -0.286 N 
ATOM     19  C   UNL     1       6.969  -4.244  25.221  0.00  0.00    +0.204 A 
ATOM     20  C   UNL     1       7.858  -3.115  25.324  0.00  0.00    +0.305 A 
ATOM     21  N   UNL     1       7.659  -2.122  24.363  0.00  0.00    -0.175 NA
ATOM     22  C   UNL     1       6.767  -2.259  23.428  0.00  0.00    +0.198 A 
ATOM     23  N   UNL     1       5.985  -3.363  23.217  0.00  0.00    -0.273 N 
ATOM     24  H   UNL     1       5.248  -3.300  22.520  0.00  0.00    +0.174 HD
ATOM     25  N   UNL     1       6.520  -1.229  22.583  0.00  0.00    -0.329 N 
ATOM     26  H   UNL     1       5.589  -0.833  22.724  0.00  0.00    +0.145 HD
ATOM     27  H   UNL     1       7.147  -0.452  22.805  0.00  0.00    +0.145 HD
ATOM     28  O   UNL     1       8.700  -2.979  26.212  0.00  0.00    -0.263 OA
ATOM     29  C   UNL     1       6.091  -4.321  24.177  0.00  0.00    +0.318 A 
ATOM     30  N   UNL     1       5.284  -5.423  24.410  0.00  0.00    -0.135 N 
ATOM     31  C   UNL     1       5.803  -6.113  25.446  0.00  0.00    +0.412 A 
ENDBRANCH  12  30
BRANCH  14  32
ATOM     32  O   UNL     1       0.876  -6.423  23.786  0.00  0.00    -0.386 OA
ATOM     33  H   UNL     1       0.051  -5.914  23.894  0.00  0.00    +0.210 HD
ENDBRANCH  14  32
BRANCH  13  34
ATOM     34  O   UNL     1       2.897  -7.976  23.754  0.00  0.00    -0.380 OA
ATOM     35  H   UNL     1       2.939  -7.741  22.797  0.00  0.00    +0.210 HD
ENDBRANCH  13  34
ENDBRANCH  11  15
ENDBRANCH  10  11
ENDBRANCH   6  10
ENDBRANCH   5   6
ENDBRANCH   1   5
BRANCH   1  36
ATOM     36  O   UNL     1       4.903   1.946  26.206  0.00  0.00    -0.186 OA
BRANCH  36  37
ATOM     37  P   UNL     1       4.608   2.797  27.553  0.00  0.00    +0.483 P 
ATOM     38  O   UNL     1       3.318   3.584  27.330  0.00  0.00    -0.227 OA
BRANCH  37  39
ATOM     39  O   UNL     1       3.627   1.498  28.138  0.00  0.00    -0.302 OA
ATOM     40  H   UNL     1       3.856   0.764  27.524  0.00  0.00    +0.222 HD
ENDBRANCH  37  39
BRANCH  37  41
ATOM     41  O   UNL     1       5.588   4.097  26.969  0.00  0.00    -0.284 OA
BRANCH  41  42
ATOM     42  C   UNL     1       5.143   4.609  25.715  0.00  0.00    +0.206 C 
BRANCH  42  43
ATOM     43  C   UNL     1       6.282   4.790  24.704  0.00  0.00    +0.178 C 
ATOM     44  C   UNL     1       5.837   5.316  23.339  0.00  0.00    +0.178 C 
ATOM     45  C   UNL     1       6.839   4.699  22.356  0.00  0.00    +0.195 C 
ATOM     46  C   UNL     1       7.787   3.890  23.254  0.00  0.00    +0.253 C 
ATOM     47  O   UNL     1       6.968   3.550  24.406  0.00  0.00    -0.346 OA
BRANCH  46  48
ATOM     48  N   UNL     1       8.346   2.690  22.657  0.00  0.00    -0.286 N 
ATOM     49  C   UNL     1       9.187   1.800  23.280  0.00  0.00    +0.167 A 
ATOM     50  C   UNL     1       9.300   0.736  22.400  0.00  0.00    +0.147 A 
ATOM     51  C   UNL     1      10.083  -0.355  22.815  0.00  0.00    +0.147 A 
ATOM     52  N   UNL     1      10.673  -0.295  24.032  0.00  0.00    -0.219 NA
ATOM     53  C   UNL     1      10.482   0.806  24.786  0.00  0.00    +0.225 A 
ATOM     54  N   UNL     1       8.561   0.967  21.261  0.00  0.00    -0.231 NA
ATOM     55  N   UNL     1       9.759   1.913  24.494  0.00  0.00    -0.216 NA
ATOM     56  C   UNL     1       7.976   2.127  21.467  0.00  0.00    +0.203 A 
BRANCH  51  57
ATOM     57  N   UNL     1      10.256  -1.505  22.055  0.00  0.00    -0.341 N 
ATOM     58  H   UNL     1       9.474  -1.668  21.431  0.00  0.00    +0.144 HD
ATOM     59  H   UNL     1      11.181  -1.572  21.641  0.00  0.00    +0.144 HD
ENDBRANCH  51  57
ENDBRANCH  46  48
BRANCH  44  60
ATOM     60  O   UNL     1       5.840   6.734  23.315  0.00  0.00    -0.386 OA
ATOM     61  H   UNL     1       6.480   7.018  24.002  0.00  0.00    +0.210 HD
ENDBRANCH  44  60
BRANCH  45  62
ATOM     62  O   UNL     1       7.485   5.709  21.581  0.00  0.00    -0.385 OA
ATOM     63  H   UNL     1       7.081   5.667  20.686  0.00  0.00    +0.210 HD
ENDBRANCH  45  62
ENDBRANCH  42  43
ENDBRANCH  41  42
ENDBRANCH  37  41
ENDBRANCH  36  37
ENDBRANCH   1  36
TORSDOF 20
ENDMDL
MODEL 8
REMARK VINA RESULT:      -6.2      3.017      4.941
REMARK  Name = 
REMARK  21 active torsions:
REMARK  status: ('A' for Active; 'I' for Inactive)
REMARK    1  A    between atoms: C_1  and  N_2
REMARK    2  A    between atoms: N_4  and  C_5
REMARK    3  A    between atoms: C_8  and  C_10
REMARK    4  A    between atoms: C_10  and  O_11
REMARK    5  A    between atoms: O_11  and  P_12
REMARK    6  A    between atoms: P_12  and  O_13
REMARK    7  A    between atoms: P_12  and  O_15
REMARK    8  A    between atoms: O_15  and  P_16
REMARK    9  A    between atoms: P_16  and  O_17
REMARK   10  A    between atoms: P_16  and  O_19
REMARK   11  A    between atoms: O_19  and  P_20
REMARK   12  A    between atoms: P_20  and  O_21
REMARK   13  A    between atoms: P_20  and  O_23
REMARK   14  A    between atoms: O_23  and  C_24
REMARK   15  A    between atoms: C_24  and  C_25
REMARK   16  A    between atoms: C_28  and  N_36
REMARK   17  A    between atoms: C_30  and  O_32
REMARK   18  A    between atoms: C_33  and  O_35
REMARK   19  A    between atoms: C_40  and  N_41
REMARK   20  A    between atoms: C_46  and  O_48
REMARK   21  A    between atoms: C_49  and  O_51
REMARK                            x       y       z     vdW  Elec       q    Type
REMARK                         _______ _______ _______ _____ _____    ______ ____
ROOT
ATOM      1  P   UNL     1       8.483  -3.056  23.465  0.00  0.00    +0.492 P 
ATOM      2  O   UNL     1       9.627  -3.743  24.134  0.00  0.00    -0.226 OA
ENDROOT
BRANCH   1   3
ATOM      3  O   UNL     1       8.992  -2.340  22.118  0.00  0.00    -0.302 OA
ATOM      4  H   UNL     1       8.615  -1.434  22.076  0.00  0.00    +0.222 HD
ENDBRANCH   1   3
BRANCH   1   5
ATOM      5  O   UNL     1       7.412  -4.109  22.914  0.00  0.00    -0.186 OA
BRANCH   5   6
ATOM      6  P   UNL     1       5.777  -3.688  23.292  0.00  0.00    +0.483 P 
ATOM      7  O   UNL     1       5.442  -3.315  21.847  0.00  0.00    -0.227 OA
BRANCH   6   8
ATOM      8  O   UNL     1       4.142  -3.267  23.671  0.00  0.00    -0.302 OA
ATOM      9  H   UNL     1       3.953  -3.767  24.495  0.00  0.00    +0.222 HD
ENDBRANCH   6   8
BRANCH   6  10
ATOM     10  O   UNL     1       5.386  -5.279  23.424  0.00  0.00    -0.284 OA
BRANCH  10  11
ATOM     11  C   UNL     1       4.018  -5.628  23.281  0.00  0.00    +0.206 C 
BRANCH  11  15
ATOM     12  C   UNL     1       3.518  -7.150  25.941  0.00  0.00    +0.442 C 
ATOM     13  C   UNL     1       2.105  -7.194  25.318  0.00  0.00    +0.244 C 
ATOM     14  C   UNL     1       2.330  -7.458  23.835  0.00  0.00    +0.183 C 
ATOM     15  C   UNL     1       3.790  -7.109  23.626  0.00  0.00    +0.183 C 
ATOM     16  O   UNL     1       4.427  -7.443  24.874  0.00  0.00    -0.309 OA
BRANCH  12  30
ATOM     17  C   UNL     1       3.128  -2.377  26.944  0.00  0.00    +0.155 C 
ATOM     18  N   UNL     1       3.677  -3.727  26.952  0.00  0.00    -0.286 N 
ATOM     19  C   UNL     1       5.032  -4.024  27.033  0.00  0.00    +0.204 A 
ATOM     20  C   UNL     1       6.212  -3.219  27.222  0.00  0.00    +0.305 A 
ATOM     21  N   UNL     1       7.417  -3.884  26.991  0.00  0.00    -0.175 NA
ATOM     22  C   UNL     1       7.443  -5.146  26.681  0.00  0.00    +0.198 A 
ATOM     23  N   UNL     1       6.358  -5.979  26.609  0.00  0.00    -0.273 N 
ATOM     24  H   UNL     1       6.500  -6.918  26.247  0.00  0.00    +0.174 HD
ATOM     25  N   UNL     1       8.620  -5.730  26.351  0.00  0.00    -0.329 N 
ATOM     26  H   UNL     1       8.650  -5.999  25.365  0.00  0.00    +0.145 HD
ATOM     27  H   UNL     1       9.373  -5.044  26.436  0.00  0.00    +0.145 HD
ATOM     28  O   UNL     1       6.191  -2.023  27.509  0.00  0.00    -0.263 OA
ATOM     29  C   UNL     1       5.158  -5.355  26.750  0.00  0.00    +0.318 A 
ATOM     30  N   UNL     1       3.884  -5.834  26.487  0.00  0.00    -0.135 N 
ATOM     31  C   UNL     1       2.997  -4.873  26.816  0.00  0.00    +0.412 A 
ENDBRANCH  12  30
BRANCH  14  32
ATOM     32  O   UNL     1       2.064  -8.842  23.580  0.00  0.00    -0.386 OA
ATOM     33  H   UNL     1       1.251  -8.943  23.049  0.00  0.00    +0.210 HD
ENDBRANCH  14  32
BRANCH  13  34
ATOM     34  O   UNL     1       1.290  -8.199  25.921  0.00  0.00    -0.380 OA
ATOM     35  H   UNL     1       1.410  -8.103  26.896  0.00  0.00    +0.210 HD
ENDBRANCH  13  34
ENDBRANCH  11  15
ENDBRANCH  10  11
ENDBRANCH   6  10
ENDBRANCH   5   6
ENDBRANCH   1   5
BRANCH   1  36
ATOM     36  O   UNL     1       7.681  -1.948  24.259  0.00  0.00    -0.186 OA
BRANCH  36  37
ATOM     37  P   UNL     1       8.066  -0.374  24.294  0.00  0.00    +0.483 P 
ATOM     38  O   UNL     1       8.009   0.085  25.749  0.00  0.00    -0.227 OA
BRANCH  37  39
ATOM     39  O   UNL     1       9.718  -0.804  24.571  0.00  0.00    -0.302 OA
ATOM     40  H   UNL     1       9.646  -1.720  24.922  0.00  0.00    +0.222 HD
ENDBRANCH  37  39
BRANCH  37  41
ATOM     41  O   UNL     1       6.413   0.055  24.017  0.00  0.00    -0.284 OA
BRANCH  41  42
ATOM     42  C   UNL     1       5.904   0.963  24.991  0.00  0.00    +0.206 C 
BRANCH  42  43
ATOM     43  C   UNL     1       5.921   2.421  24.517  0.00  0.00    +0.178 C 
ATOM     44  C   UNL     1       5.901   2.592  22.997  0.00  0.00    +0.178 C 
ATOM     45  C   UNL     1       6.678   3.892  22.757  0.00  0.00    +0.195 C 
ATOM     46  C   UNL     1       7.054   4.364  24.170  0.00  0.00    +0.253 C 
ATOM     47  O   UNL     1       7.107   3.135  24.943  0.00  0.00    -0.346 OA
BRANCH  46  48
ATOM     48  N   UNL     1       8.310   5.085  24.277  0.00  0.00    -0.286 N 
ATOM     49  C   UNL     1       9.552   4.586  23.968  0.00  0.00    +0.167 A 
ATOM     50  C   UNL     1      10.406   5.675  24.042  0.00  0.00    +0.147 A 
ATOM     51  C   UNL     1      11.757   5.449  23.724  0.00  0.00    +0.147 A 
ATOM     52  N   UNL     1      12.133   4.196  23.374  0.00  0.00    -0.219 NA
ATOM     53  C   UNL     1      11.196   3.226  23.347  0.00  0.00    +0.225 A 
ATOM     54  N   UNL     1       9.715   6.811  24.398  0.00  0.00    -0.231 NA
ATOM     55  N   UNL     1       9.876   3.321  23.636  0.00  0.00    -0.216 NA
ATOM     56  C   UNL     1       8.460   6.427  24.494  0.00  0.00    +0.203 A 
BRANCH  51  57
ATOM     57  N   UNL     1      12.718   6.452  23.718  0.00  0.00    -0.341 N 
ATOM     58  H   UNL     1      12.324   7.356  23.947  0.00  0.00    +0.144 HD
ATOM     59  H   UNL     1      13.565   6.192  24.216  0.00  0.00    +0.144 HD
ENDBRANCH  51  57
ENDBRANCH  46  48
BRANCH  44  60
ATOM     60  O   UNL     1       4.571   2.644  22.509  0.00  0.00    -0.386 OA
ATOM     61  H   UNL     1       4.238   3.542  22.718  0.00  0.00    +0.210 HD
ENDBRANCH  44  60
BRANCH  45  62
ATOM     62  O   UNL     1       5.895   4.827  22.015  0.00  0.00    -0.385 OA
ATOM     63  H   UNL     1       6.447   5.636  21.926  0.00  0.00    +0.210 HD
ENDBRANCH  45  62
ENDBRANCH  42  43
ENDBRANCH  41  42
ENDBRANCH  37  41
ENDBRANCH  36  37
ENDBRANCH   1  36
TORSDOF 20
ENDMDL
MODEL 9
REMARK VINA RESULT:      -6.1      3.593      8.931
REMARK  Name = 
REMARK  21 active torsions:
REMARK  status: ('A' for Active; 'I' for Inactive)
REMARK    1  A    between atoms: C_1  and  N_2
REMARK    2  A    between atoms: N_4  and  C_5
REMARK    3  A    between atoms: C_8  and  C_10
REMARK    4  A    between atoms: C_10  and  O_11
REMARK    5  A    between atoms: O_11  and  P_12
REMARK    6  A    between atoms: P_12  and  O_13
REMARK    7  A    between atoms: P_12  and  O_15
REMARK    8  A    between atoms: O_15  and  P_16
REMARK    9  A    between atoms: P_16  and  O_17
REMARK   10  A    between atoms: P_16  and  O_19
REMARK   11  A    between atoms: O_19  and  P_20
REMARK   12  A    between atoms: P_20  and  O_21
REMARK   13  A    between atoms: P_20  and  O_23
REMARK   14  A    between atoms: O_23  and  C_24
REMARK   15  A    between atoms: C_24  and  C_25
REMARK   16  A    between atoms: C_28  and  N_36
REMARK   17  A    between atoms: C_30  and  O_32
REMARK   18  A    between atoms: C_33  and  O_35
REMARK   19  A    between atoms: C_40  and  N_41
REMARK   20  A    between atoms: C_46  and  O_48
REMARK   21  A    between atoms: C_49  and  O_51
REMARK                            x       y       z     vdW  Elec       q    Type
REMARK                         _______ _______ _______ _____ _____    ______ ____
ROOT
ATOM      1  P   UNL     1      10.092   1.185  24.302  0.00  0.00    +0.492 P 
ATOM      2  O   UNL     1      11.255   0.614  25.042  0.00  0.00    -0.226 OA
ENDROOT
BRANCH   1   3
ATOM      3  O   UNL     1       9.082   1.890  25.336  0.00  0.00    -0.302 OA
ATOM      4  H   UNL     1       9.310   1.608  26.248  0.00  0.00    +0.222 HD
ENDBRANCH   1   3
BRANCH   1   5
ATOM      5  O   UNL     1      10.536   2.404  23.366  0.00  0.00    -0.186 OA
BRANCH   5   6
ATOM      6  P   UNL     1      10.166   3.956  24.035  0.00  0.00    +0.483 P 
ATOM      7  O   UNL     1      11.248   4.668  23.221  0.00  0.00    -0.227 OA
BRANCH   6   8
ATOM      8  O   UNL     1       9.796   5.507  24.705  0.00  0.00    -0.302 OA
ATOM      9  H   UNL     1      10.665   5.852  25.001  0.00  0.00    +0.222 HD
ENDBRANCH   6   8
BRANCH   6  10
ATOM     10  O   UNL     1       8.809   4.043  23.112  0.00  0.00    -0.284 OA
BRANCH  10  11
ATOM     11  C   UNL     1       7.754   4.868  23.581  0.00  0.00    +0.206 C 
BRANCH  11  15
ATOM     12  C   UNL     1       4.672   4.512  23.466  0.00  0.00    +0.442 C 
ATOM     13  C   UNL     1       4.778   6.053  23.523  0.00  0.00    +0.244 C 
ATOM     14  C   UNL     1       5.957   6.405  22.625  0.00  0.00    +0.183 C 
ATOM     15  C   UNL     1       6.704   5.094  22.482  0.00  0.00    +0.183 C 
ATOM     16  O   UNL     1       5.679   4.083  22.545  0.00  0.00    -0.309 OA
BRANCH  12  30
ATOM     17  C   UNL     1       6.042   4.053  28.141  0.00  0.00    +0.155 C 
ATOM     18  N   UNL     1       5.515   3.675  26.836  0.00  0.00    -0.286 N 
ATOM     19  C   UNL     1       5.633   2.408  26.277  0.00  0.00    +0.204 A 
ATOM     20  C   UNL     1       6.150   1.156  26.766  0.00  0.00    +0.305 A 
ATOM     21  N   UNL     1       6.317   0.170  25.792  0.00  0.00    -0.175 NA
ATOM     22  C   UNL     1       5.973   0.379  24.556  0.00  0.00    +0.198 A 
ATOM     23  N   UNL     1       5.367   1.507  24.069  0.00  0.00    -0.273 N 
ATOM     24  H   UNL     1       5.252   1.590  23.063  0.00  0.00    +0.174 HD
ATOM     25  N   UNL     1       6.255  -0.556  23.616  0.00  0.00    -0.329 N 
ATOM     26  H   UNL     1       6.960  -0.230  22.953  0.00  0.00    +0.145 HD
ATOM     27  H   UNL     1       6.698  -1.361  24.063  0.00  0.00    +0.145 HD
ATOM     28  O   UNL     1       6.482   0.956  27.934  0.00  0.00    -0.263 OA
ATOM     29  C   UNL     1       5.258   2.521  24.968  0.00  0.00    +0.318 A 
ATOM     30  N   UNL     1       4.938   3.853  24.754  0.00  0.00    -0.135 N 
ATOM     31  C   UNL     1       4.910   4.476  25.950  0.00  0.00    +0.412 A 
ENDBRANCH  12  30
BRANCH  14  32
ATOM     32  O   UNL     1       5.444   6.873  21.373  0.00  0.00    -0.386 OA
ATOM     33  H   UNL     1       4.494   7.084  21.450  0.00  0.00    +0.210 HD
ENDBRANCH  14  32
BRANCH  13  34
ATOM     34  O   UNL     1       3.573   6.685  23.093  0.00  0.00    -0.380 OA
ATOM     35  H   UNL     1       3.530   7.547  23.571  0.00  0.00    +0.210 HD
ENDBRANCH  13  34
ENDBRANCH  11  15
ENDBRANCH  10  11
ENDBRANCH   6  10
ENDBRANCH   5   6
ENDBRANCH   1   5
BRANCH   1  36
ATOM     36  O   UNL     1       9.195   0.224  23.420  0.00  0.00    -0.186 OA
BRANCH  36  37
ATOM     37  P   UNL     1       9.708  -0.568  22.103  0.00  0.00    +0.483 P 
ATOM     38  O   UNL     1       8.492  -1.231  21.459  0.00  0.00    -0.227 OA
BRANCH  37  39
ATOM     39  O   UNL     1       9.359   0.832  21.148  0.00  0.00    -0.302 OA
ATOM     40  H   UNL     1       9.235   1.531  21.829  0.00  0.00    +0.222 HD
ENDBRANCH  37  39
BRANCH  37  41
ATOM     41  O   UNL     1      10.057  -1.967  23.057  0.00  0.00    -0.284 OA
BRANCH  41  42
ATOM     42  C   UNL     1       8.970  -2.887  23.114  0.00  0.00    +0.206 C 
BRANCH  42  43
ATOM     43  C   UNL     1       8.700  -3.408  24.531  0.00  0.00    +0.178 C 
ATOM     44  C   UNL     1       8.716  -4.932  24.658  0.00  0.00    +0.178 C 
ATOM     45  C   UNL     1       7.723  -5.222  25.790  0.00  0.00    +0.195 C 
ATOM     46  C   UNL     1       7.243  -3.830  26.227  0.00  0.00    +0.253 C 
ATOM     47  O   UNL     1       7.398  -3.019  25.032  0.00  0.00    -0.346 OA
BRANCH  46  48
ATOM     48  N   UNL     1       5.877  -3.762  26.714  0.00  0.00    -0.286 N 
ATOM     49  C   UNL     1       5.419  -4.285  27.899  0.00  0.00    +0.167 A 
ATOM     50  C   UNL     1       4.121  -3.815  28.022  0.00  0.00    +0.147 A 
ATOM     51  C   UNL     1       3.421  -4.171  29.188  0.00  0.00    +0.147 A 
ATOM     52  N   UNL     1       4.052  -4.943  30.104  0.00  0.00    -0.219 NA
ATOM     53  C   UNL     1       5.318  -5.333  29.855  0.00  0.00    +0.225 A 
ATOM     54  N   UNL     1       3.781  -3.036  26.938  0.00  0.00    -0.231 NA
ATOM     55  N   UNL     1       6.087  -5.060  28.774  0.00  0.00    -0.216 NA
ATOM     56  C   UNL     1       4.868  -2.997  26.196  0.00  0.00    +0.203 A 
BRANCH  51  57
ATOM     57  N   UNL     1       2.129  -3.743  29.464  0.00  0.00    -0.341 N 
ATOM     58  H   UNL     1       1.493  -4.521  29.602  0.00  0.00    +0.144 HD
ATOM     59  H   UNL     1       2.096  -3.007  30.164  0.00  0.00    +0.144 HD
ENDBRANCH  51  57
ENDBRANCH  46  48
BRANCH  44  60
ATOM     60  O   UNL     1      10.024  -5.405  24.934  0.00  0.00    -0.386 OA
ATOM     61  H   UNL     1      10.598  -4.612  24.978  0.00  0.00    +0.210 HD
ENDBRANCH  44  60
BRANCH  45  62
ATOM     62  O   UNL     1       8.339  -5.984  26.828  0.00  0.00    -0.385 OA
ATOM     63  H   UNL     1       8.030  -6.910  26.708  0.00  0.00    +0.210 HD
ENDBRANCH  45  62
ENDBRANCH  42  43
ENDBRANCH  41  42
ENDBRANCH  37  41
ENDBRANCH  36  37
ENDBRANCH   1  36
TORSDOF 20
ENDMDL
