MODEL 1
REMARK VINA RESULT:      -6.3      0.000      0.000
REMARK  Name = 
REMARK  7 active torsions:
REMARK  status: ('A' for Active; 'I' for Inactive)
REMARK    1  A    between atoms: C_2  and  O_3
REMARK    2  A    between atoms: N_5  and  C_6
REMARK    3  A    between atoms: C_6  and  C_7
REMARK    4  A    between atoms: C_11  and  N_12
REMARK    5  A    between atoms: C_18  and  C_20
REMARK    6  A    between atoms: C_20  and  S_21
REMARK    7  A    between atoms: S_21  and  C_22
REMARK                            x       y       z     vdW  Elec       q    Type
REMARK                         _______ _______ _______ _____ _____    ______ ____
ROOT
ATOM      1  C   UNL     1       9.212  -1.509  24.293  0.00  0.00    +0.010 A 
ATOM      2  C   UNL     1       9.150  -0.086  24.286  0.00  0.00    +0.098 A 
ATOM      3  C   UNL     1       9.733   0.364  23.110  0.00  0.00    +0.105 A 
ATOM      4  C   UNL     1       9.762   1.718  22.819  0.00  0.00    +0.144 A 
ATOM      5  N   UNL     1       9.233   2.563  23.717  0.00  0.00    -0.219 NA
ATOM      6  C   UNL     1       8.697   2.041  24.840  0.00  0.00    +0.224 A 
ATOM      7  N   UNL     1      10.165  -0.742  22.423  0.00  0.00    -0.356 N 
ATOM      8  H   UNL     1      10.604  -0.717  21.514  0.00  0.00    +0.165 HD
ATOM      9  N   UNL     1       8.614   0.753  25.199  0.00  0.00    -0.233 NA
ATOM     10  C   UNL     1       9.875  -1.879  23.134  0.00  0.00    +0.090 A 
ENDROOT
BRANCH   4  11
ATOM     11  N   UNL     1      10.303   2.252  21.662  0.00  0.00    -0.341 N 
ATOM     12  H   UNL     1      10.112   3.249  21.623  0.00  0.00    +0.144 HD
ATOM     13  H   UNL     1      11.260   1.989  21.471  0.00  0.00    +0.144 HD
ENDBRANCH   4  11
BRANCH   1  14
ATOM     14  C   UNL     1       8.648  -2.403  25.351  0.00  0.00    +0.123 C 
BRANCH  14  18
ATOM     15  C   UNL     1       7.749  -4.914  26.813  0.00  0.00    +0.134 C 
ATOM     16  C   UNL     1       6.986  -5.160  25.504  0.00  0.00    +0.043 C 
ATOM     17  C   UNL     1       7.894  -4.557  24.420  0.00  0.00    +0.091 C 
ATOM     18  N   UNL     1       8.985  -3.819  25.088  0.00  0.00    -0.295 NA
ATOM     19  C   UNL     1       9.163  -4.550  26.355  0.00  0.00    +0.116 C 
BRANCH  15  20
ATOM     20  O   UNL     1       7.730  -6.062  27.650  0.00  0.00    -0.390 OA
ATOM     21  H   UNL     1       8.156  -6.794  27.172  0.00  0.00    +0.210 HD
ENDBRANCH  15  20
BRANCH  16  22
ATOM     22  C   UNL     1       5.583  -4.545  25.551  0.00  0.00    +0.076 C 
BRANCH  22  23
ATOM     23  S   UNL     1       5.123  -3.846  23.926  0.00  0.00    -0.164 S 
ATOM     24  C   UNL     1       4.426  -5.330  23.167  0.00  0.00    +0.084 C 
ENDBRANCH  22  23
ENDBRANCH  16  22
ENDBRANCH  14  18
ENDBRANCH   1  14
TORSDOF 6
ENDMDL
MODEL 2
REMARK VINA RESULT:      -6.3      3.752      6.620
REMARK  Name = 
REMARK  7 active torsions:
REMARK  status: ('A' for Active; 'I' for Inactive)
REMARK    1  A    between atoms: C_2  and  O_3
REMARK    2  A    between atoms: N_5  and  C_6
REMARK    3  A    between atoms: C_6  and  C_7
REMARK    4  A    between atoms: C_11  and  N_12
REMARK    5  A    between atoms: C_18  and  C_20
REMARK    6  A    between atoms: C_20  and  S_21
REMARK    7  A    between atoms: S_21  and  C_22
REMARK                            x       y       z     vdW  Elec       q    Type
REMARK                         _______ _______ _______ _____ _____    ______ ____
ROOT
ATOM      1  C   UNL     1       8.433  -2.755  24.211  0.00  0.00    +0.010 A 
ATOM      2  C   UNL     1       7.396  -3.117  23.304  0.00  0.00    +0.098 A 
ATOM      3  C   UNL     1       7.386  -4.499  23.191  0.00  0.00    +0.105 A 
ATOM      4  C   UNL     1       6.437  -5.129  22.404  0.00  0.00    +0.144 A 
ATOM      5  N   UNL     1       5.556  -4.359  21.748  0.00  0.00    -0.219 NA
ATOM      6  C   UNL     1       5.644  -3.022  21.905  0.00  0.00    +0.224 A 
ATOM      7  N   UNL     1       8.400  -4.976  23.983  0.00  0.00    -0.356 N 
ATOM      8  H   UNL     1       8.610  -5.956  24.118  0.00  0.00    +0.165 HD
ATOM      9  N   UNL     1       6.516  -2.328  22.649  0.00  0.00    -0.233 NA
ATOM     10  C   UNL     1       9.052  -3.934  24.590  0.00  0.00    +0.090 A 
ENDROOT
BRANCH   4  11
ATOM     11  N   UNL     1       6.341  -6.502  22.251  0.00  0.00    -0.341 N 
ATOM     12  H   UNL     1       5.467  -6.736  21.791  0.00  0.00    +0.144 HD
ATOM     13  H   UNL     1       7.162  -6.953  21.872  0.00  0.00    +0.144 HD
ENDBRANCH   4  11
BRANCH   1  14
ATOM     14  C   UNL     1       8.753  -1.365  24.662  0.00  0.00    +0.123 C 
BRANCH  14  18
ATOM     15  C   UNL     1       9.497   0.826  22.687  0.00  0.00    +0.134 C 
ATOM     16  C   UNL     1      10.068   1.489  23.948  0.00  0.00    +0.043 C 
ATOM     17  C   UNL     1      10.555   0.311  24.807  0.00  0.00    +0.091 C 
ATOM     18  N   UNL     1      10.086  -0.943  24.180  0.00  0.00    -0.295 NA
ATOM     19  C   UNL     1      10.034  -0.606  22.747  0.00  0.00    +0.116 C 
BRANCH  15  20
ATOM     20  O   UNL     1       9.905   1.508  21.510  0.00  0.00    -0.390 OA
ATOM     21  H   UNL     1      10.334   0.865  20.919  0.00  0.00    +0.210 HD
ENDBRANCH  15  20
BRANCH  16  22
ATOM     22  C   UNL     1       9.021   2.369  24.639  0.00  0.00    +0.076 C 
BRANCH  22  23
ATOM     23  S   UNL     1       9.150   4.103  24.073  0.00  0.00    -0.164 S 
ATOM     24  C   UNL     1       7.761   4.126  22.918  0.00  0.00    +0.084 C 
ENDBRANCH  22  23
ENDBRANCH  16  22
ENDBRANCH  14  18
ENDBRANCH   1  14
TORSDOF 6
ENDMDL
MODEL 3
REMARK VINA RESULT:      -6.1      1.338      2.149
REMARK  Name = 
REMARK  7 active torsions:
REMARK  status: ('A' for Active; 'I' for Inactive)
REMARK    1  A    between atoms: C_2  and  O_3
REMARK    2  A    between atoms: N_5  and  C_6
REMARK    3  A    between atoms: C_6  and  C_7
REMARK    4  A    between atoms: C_11  and  N_12
REMARK    5  A    between atoms: C_18  and  C_20
REMARK    6  A    between atoms: C_20  and  S_21
REMARK    7  A    between atoms: S_21  and  C_22
REMARK                            x       y       z     vdW  Elec       q    Type
REMARK                         _______ _______ _______ _____ _____    ______ ____
ROOT
ATOM      1  C   UNL     1       8.196  -0.503  24.936  0.00  0.00    +0.010 A 
ATOM      2  C   UNL     1       8.753   0.021  23.734  0.00  0.00    +0.098 A 
ATOM      3  C   UNL     1       9.167   1.322  23.983  0.00  0.00    +0.105 A 
ATOM      4  C   UNL     1       9.797   2.056  22.992  0.00  0.00    +0.144 A 
ATOM      5  N   UNL     1       9.966   1.476  21.795  0.00  0.00    -0.219 NA
ATOM      6  C   UNL     1       9.522   0.212  21.634  0.00  0.00    +0.224 A 
ATOM      7  N   UNL     1       8.854   1.602  25.290  0.00  0.00    -0.356 N 
ATOM      8  H   UNL     1       9.068   2.473  25.757  0.00  0.00    +0.165 HD
ATOM      9  N   UNL     1       8.916  -0.576  22.533  0.00  0.00    -0.233 NA
ATOM     10  C   UNL     1       8.251   0.517  25.871  0.00  0.00    +0.090 A 
ENDROOT
BRANCH   4  11
ATOM     11  N   UNL     1      10.261   3.350  23.160  0.00  0.00    -0.341 N 
ATOM     12  H   UNL     1      10.361   3.553  24.151  0.00  0.00    +0.144 HD
ATOM     13  H   UNL     1      11.052   3.603  22.586  0.00  0.00    +0.144 HD
ENDBRANCH   4  11
BRANCH   1  14
ATOM     14  C   UNL     1       7.679  -1.893  25.125  0.00  0.00    +0.123 C 
BRANCH  14  18
ATOM     15  C   UNL     1       7.678  -4.768  26.117  0.00  0.00    +0.134 C 
ATOM     16  C   UNL     1       7.880  -5.071  24.626  0.00  0.00    +0.043 C 
ATOM     17  C   UNL     1       8.715  -3.887  24.111  0.00  0.00    +0.091 C 
ATOM     18  N   UNL     1       8.787  -2.871  25.182  0.00  0.00    -0.295 NA
ATOM     19  C   UNL     1       8.703  -3.673  26.415  0.00  0.00    +0.116 C 
BRANCH  15  20
ATOM     20  O   UNL     1       7.876  -5.927  26.914  0.00  0.00    -0.390 OA
ATOM     21  H   UNL     1       7.531  -6.695  26.427  0.00  0.00    +0.210 HD
ENDBRANCH  15  20
BRANCH  16  22
ATOM     22  C   UNL     1       6.540  -5.245  23.904  0.00  0.00    +0.076 C 
BRANCH  22  23
ATOM     23  S   UNL     1       6.520  -4.313  22.331  0.00  0.00    -0.164 S 
ATOM     24  C   UNL     1       6.387  -5.701  21.182  0.00  0.00    +0.084 C 
ENDBRANCH  22  23
ENDBRANCH  16  22
ENDBRANCH  14  18
ENDBRANCH   1  14
TORSDOF 6
ENDMDL
MODEL 4
REMARK VINA RESULT:      -6.1      3.681      6.881
REMARK  Name = 
REMARK  7 active torsions:
REMARK  status: ('A' for Active; 'I' for Inactive)
REMARK    1  A    between atoms: C_2  and  O_3
REMARK    2  A    between atoms: N_5  and  C_6
REMARK    3  A    between atoms: C_6  and  C_7
REMARK    4  A    between atoms: C_11  and  N_12
REMARK    5  A    between atoms: C_18  and  C_20
REMARK    6  A    between atoms: C_20  and  S_21
REMARK    7  A    between atoms: S_21  and  C_22
REMARK                            x       y       z     vdW  Elec       q    Type
REMARK                         _______ _______ _______ _____ _____    ______ ____
ROOT
ATOM      1  C   UNL     1       8.693  -2.364  24.638  0.00  0.00    +0.010 A 
ATOM      2  C   UNL     1       7.733  -2.827  25.583  0.00  0.00    +0.098 A 
ATOM      3  C   UNL     1       8.101  -4.103  25.981  0.00  0.00    +0.105 A 
ATOM      4  C   UNL     1       7.363  -4.776  26.942  0.00  0.00    +0.144 A 
ATOM      5  N   UNL     1       6.283  -4.160  27.446  0.00  0.00    -0.219 NA
ATOM      6  C   UNL     1       5.990  -2.923  26.994  0.00  0.00    +0.224 A 
ATOM      7  N   UNL     1       9.238  -4.431  25.287  0.00  0.00    -0.356 N 
ATOM      8  H   UNL     1       9.748  -5.297  25.397  0.00  0.00    +0.165 HD
ATOM      9  N   UNL     1       6.648  -2.195  26.081  0.00  0.00    -0.233 NA
ATOM     10  C   UNL     1       9.596  -3.400  24.458  0.00  0.00    +0.090 A 
ENDROOT
BRANCH   4  11
ATOM     11  N   UNL     1       7.670  -6.041  27.412  0.00  0.00    -0.341 N 
ATOM     12  H   UNL     1       7.355  -6.135  28.373  0.00  0.00    +0.144 HD
ATOM     13  H   UNL     1       7.418  -6.803  26.799  0.00  0.00    +0.144 HD
ENDBRANCH   4  11
BRANCH   1  14
ATOM     14  C   UNL     1       8.707  -1.014  23.996  0.00  0.00    +0.123 C 
BRANCH  14  18
ATOM     15  C   UNL     1       9.698   1.442  22.501  0.00  0.00    +0.134 C 
ATOM     16  C   UNL     1      10.119   1.882  23.910  0.00  0.00    +0.043 C 
ATOM     17  C   UNL     1      10.491   0.570  24.619  0.00  0.00    +0.091 C 
ATOM     18  N   UNL     1      10.091  -0.556  23.748  0.00  0.00    -0.295 NA
ATOM     19  C   UNL     1      10.213   0.005  22.391  0.00  0.00    +0.116 C 
BRANCH  15  20
ATOM     20  O   UNL     1      10.249   2.292  21.504  0.00  0.00    -0.390 OA
ATOM     21  H   UNL     1      10.827   1.757  20.934  0.00  0.00    +0.210 HD
ENDBRANCH  15  20
BRANCH  16  22
ATOM     22  C   UNL     1       9.004   2.669  24.607  0.00  0.00    +0.076 C 
BRANCH  22  23
ATOM     23  S   UNL     1       9.123   4.451  24.220  0.00  0.00    -0.164 S 
ATOM     24  C   UNL     1       7.697   4.598  23.122  0.00  0.00    +0.084 C 
ENDBRANCH  22  23
ENDBRANCH  16  22
ENDBRANCH  14  18
ENDBRANCH   1  14
TORSDOF 6
ENDMDL
MODEL 5
REMARK VINA RESULT:      -6.1      1.576      1.658
REMARK  Name = 
REMARK  7 active torsions:
REMARK  status: ('A' for Active; 'I' for Inactive)
REMARK    1  A    between atoms: C_2  and  O_3
REMARK    2  A    between atoms: N_5  and  C_6
REMARK    3  A    between atoms: C_6  and  C_7
REMARK    4  A    between atoms: C_11  and  N_12
REMARK    5  A    between atoms: C_18  and  C_20
REMARK    6  A    between atoms: C_20  and  S_21
REMARK    7  A    between atoms: S_21  and  C_22
REMARK                            x       y       z     vdW  Elec       q    Type
REMARK                         _______ _______ _______ _____ _____    ______ ____
ROOT
ATOM      1  C   UNL     1       7.853  -1.353  24.239  0.00  0.00    +0.010 A 
ATOM      2  C   UNL     1       8.966  -0.468  24.168  0.00  0.00    +0.098 A 
ATOM      3  C   UNL     1       8.827   0.308  23.026  0.00  0.00    +0.105 A 
ATOM      4  C   UNL     1       9.752   1.296  22.735  0.00  0.00    +0.144 A 
ATOM      5  N   UNL     1      10.784   1.455  23.578  0.00  0.00    -0.219 NA
ATOM      6  C   UNL     1      10.849   0.650  24.659  0.00  0.00    +0.224 A 
ATOM      7  N   UNL     1       7.678  -0.102  22.397  0.00  0.00    -0.356 N 
ATOM      8  H   UNL     1       7.310   0.309  21.551  0.00  0.00    +0.165 HD
ATOM      9  N   UNL     1      10.000  -0.320  25.025  0.00  0.00    -0.233 NA
ATOM     10  C   UNL     1       7.090  -1.117  23.107  0.00  0.00    +0.090 A 
ENDROOT
BRANCH   4  11
ATOM     11  N   UNL     1       9.680   2.128  21.631  0.00  0.00    -0.341 N 
ATOM     12  H   UNL     1       9.077   2.919  21.837  0.00  0.00    +0.144 HD
ATOM     13  H   UNL     1      10.566   2.361  21.206  0.00  0.00    +0.144 HD
ENDBRANCH   4  11
BRANCH   1  14
ATOM     14  C   UNL     1       7.579  -2.325  25.342  0.00  0.00    +0.123 C 
BRANCH  14  18
ATOM     15  C   UNL     1       7.415  -4.934  26.897  0.00  0.00    +0.134 C 
ATOM     16  C   UNL     1       6.726  -5.421  25.615  0.00  0.00    +0.043 C 
ATOM     17  C   UNL     1       7.420  -4.633  24.492  0.00  0.00    +0.091 C 
ATOM     18  N   UNL     1       8.282  -3.606  25.112  0.00  0.00    -0.295 NA
ATOM     19  C   UNL     1       8.671  -4.218  26.394  0.00  0.00    +0.116 C 
BRANCH  15  20
ATOM     20  O   UNL     1       7.721  -6.016  27.766  0.00  0.00    -0.390 OA
ATOM     21  H   UNL     1       8.687  -6.131  27.781  0.00  0.00    +0.210 HD
ENDBRANCH  15  20
BRANCH  16  22
ATOM     22  C   UNL     1       5.210  -5.206  25.679  0.00  0.00    +0.076 C 
BRANCH  22  23
ATOM     23  S   UNL     1       4.353  -6.745  26.165  0.00  0.00    -0.164 S 
ATOM     24  C   UNL     1       3.710  -7.232  24.549  0.00  0.00    +0.084 C 
ENDBRANCH  22  23
ENDBRANCH  16  22
ENDBRANCH  14  18
ENDBRANCH   1  14
TORSDOF 6
ENDMDL
MODEL 6
REMARK VINA RESULT:      -6.0      1.788      2.417
REMARK  Name = 
REMARK  7 active torsions:
REMARK  status: ('A' for Active; 'I' for Inactive)
REMARK    1  A    between atoms: C_2  and  O_3
REMARK    2  A    between atoms: N_5  and  C_6
REMARK    3  A    between atoms: C_6  and  C_7
REMARK    4  A    between atoms: C_11  and  N_12
REMARK    5  A    between atoms: C_18  and  C_20
REMARK    6  A    between atoms: C_20  and  S_21
REMARK    7  A    between atoms: S_21  and  C_22
REMARK                            x       y       z     vdW  Elec       q    Type
REMARK                         _______ _______ _______ _____ _____    ______ ____
ROOT
ATOM      1  C   UNL     1       8.567  -0.821  24.630  0.00  0.00    +0.010 A 
ATOM      2  C   UNL     1       8.908   0.017  23.529  0.00  0.00    +0.098 A 
ATOM      3  C   UNL     1       9.717   1.040  24.002  0.00  0.00    +0.105 A 
ATOM      4  C   UNL     1      10.238   1.979  23.128  0.00  0.00    +0.144 A 
ATOM      5  N   UNL     1       9.916   1.873  21.830  0.00  0.00    -0.219 NA
ATOM      6  C   UNL     1       9.113   0.855  21.458  0.00  0.00    +0.224 A 
ATOM      7  N   UNL     1       9.853   0.855  25.355  0.00  0.00    -0.356 N 
ATOM      8  H   UNL     1      10.415   1.438  25.960  0.00  0.00    +0.165 HD
ATOM      9  N   UNL     1       8.574  -0.101  22.226  0.00  0.00    -0.233 NA
ATOM     10  C   UNL     1       9.149  -0.253  25.751  0.00  0.00    +0.090 A 
ENDROOT
BRANCH   4  11
ATOM     11  N   UNL     1      11.070   3.018  23.510  0.00  0.00    -0.341 N 
ATOM     12  H   UNL     1      10.581   3.903  23.412  0.00  0.00    +0.144 HD
ATOM     13  H   UNL     1      11.551   2.887  24.388  0.00  0.00    +0.144 HD
ENDBRANCH   4  11
BRANCH   1  14
ATOM     14  C   UNL     1       7.755  -2.074  24.554  0.00  0.00    +0.123 C 
BRANCH  14  18
ATOM     15  C   UNL     1       9.022  -4.703  25.409  0.00  0.00    +0.134 C 
ATOM     16  C   UNL     1       7.836  -5.295  24.634  0.00  0.00    +0.043 C 
ATOM     17  C   UNL     1       7.594  -4.294  23.493  0.00  0.00    +0.091 C 
ATOM     18  N   UNL     1       8.435  -3.103  23.737  0.00  0.00    -0.295 NA
ATOM     19  C   UNL     1       9.596  -3.649  24.460  0.00  0.00    +0.116 C 
BRANCH  15  20
ATOM     20  O   UNL     1       9.973  -5.703  25.747  0.00  0.00    -0.390 OA
ATOM     21  H   UNL     1       9.769  -6.504  25.234  0.00  0.00    +0.210 HD
ENDBRANCH  15  20
BRANCH  16  22
ATOM     22  C   UNL     1       6.621  -5.503  25.545  0.00  0.00    +0.076 C 
BRANCH  22  23
ATOM     23  S   UNL     1       6.894  -4.735  27.182  0.00  0.00    -0.164 S 
ATOM     24  C   UNL     1       5.513  -3.570  27.180  0.00  0.00    +0.084 C 
ENDBRANCH  22  23
ENDBRANCH  16  22
ENDBRANCH  14  18
ENDBRANCH   1  14
TORSDOF 6
ENDMDL
MODEL 7
REMARK VINA RESULT:      -6.0      1.965      3.023
REMARK  Name = 
REMARK  7 active torsions:
REMARK  status: ('A' for Active; 'I' for Inactive)
REMARK    1  A    between atoms: C_2  and  O_3
REMARK    2  A    between atoms: N_5  and  C_6
REMARK    3  A    between atoms: C_6  and  C_7
REMARK    4  A    between atoms: C_11  and  N_12
REMARK    5  A    between atoms: C_18  and  C_20
REMARK    6  A    between atoms: C_20  and  S_21
REMARK    7  A    between atoms: S_21  and  C_22
REMARK                            x       y       z     vdW  Elec       q    Type
REMARK                         _______ _______ _______ _____ _____    ______ ____
ROOT
ATOM      1  C   UNL     1       9.001   0.826  23.134  0.00  0.00    +0.010 A 
ATOM      2  C   UNL     1       8.864   2.028  23.887  0.00  0.00    +0.098 A 
ATOM      3  C   UNL     1       9.567   3.028  23.232  0.00  0.00    +0.105 A 
ATOM      4  C   UNL     1       9.560   4.323  23.723  0.00  0.00    +0.144 A 
ATOM      5  N   UNL     1       8.877   4.560  24.853  0.00  0.00    -0.219 NA
ATOM      6  C   UNL     1       8.231   3.527  25.433  0.00  0.00    +0.224 A 
ATOM      7  N   UNL     1      10.141   2.459  22.123  0.00  0.00    -0.356 N 
ATOM      8  H   UNL     1      10.690   2.962  21.439  0.00  0.00    +0.165 HD
ATOM      9  N   UNL     1       8.173   2.251  25.026  0.00  0.00    -0.233 NA
ATOM     10  C   UNL     1       9.824   1.127  22.062  0.00  0.00    +0.090 A 
ENDROOT
BRANCH   4  11
ATOM     11  N   UNL     1      10.215   5.385  23.123  0.00  0.00    -0.341 N 
ATOM     12  H   UNL     1      11.190   5.392  23.407  0.00  0.00    +0.144 HD
ATOM     13  H   UNL     1      10.054   5.487  22.131  0.00  0.00    +0.144 HD
ENDBRANCH   4  11
BRANCH   1  14
ATOM     14  C   UNL     1       8.356  -0.484  23.455  0.00  0.00    +0.123 C 
BRANCH  14  18
ATOM     15  C   UNL     1       9.289  -3.263  24.267  0.00  0.00    +0.134 C 
ATOM     16  C   UNL     1       8.047  -3.692  23.473  0.00  0.00    +0.043 C 
ATOM     17  C   UNL     1       7.939  -2.648  22.350  0.00  0.00    +0.091 C 
ATOM     18  N   UNL     1       8.914  -1.572  22.623  0.00  0.00    -0.295 NA
ATOM     19  C   UNL     1       9.995  -2.269  23.343  0.00  0.00    +0.116 C 
BRANCH  15  20
ATOM     20  O   UNL     1      10.109  -4.377  24.592  0.00  0.00    -0.390 OA
ATOM     21  H   UNL     1      10.664  -4.581  23.819  0.00  0.00    +0.210 HD
ENDBRANCH  15  20
BRANCH  16  22
ATOM     22  C   UNL     1       6.808  -3.769  24.371  0.00  0.00    +0.076 C 
BRANCH  22  23
ATOM     23  S   UNL     1       7.155  -3.068  26.024  0.00  0.00    -0.164 S 
ATOM     24  C   UNL     1       7.114  -4.594  26.990  0.00  0.00    +0.084 C 
ENDBRANCH  22  23
ENDBRANCH  16  22
ENDBRANCH  14  18
ENDBRANCH   1  14
TORSDOF 6
ENDMDL
MODEL 8
REMARK VINA RESULT:      -5.9      3.439      6.882
REMARK  Name = 
REMARK  7 active torsions:
REMARK  status: ('A' for Active; 'I' for Inactive)
REMARK    1  A    between atoms: C_2  and  O_3
REMARK    2  A    between atoms: N_5  and  C_6
REMARK    3  A    between atoms: C_6  and  C_7
REMARK    4  A    between atoms: C_11  and  N_12
REMARK    5  A    between atoms: C_18  and  C_20
REMARK    6  A    between atoms: C_20  and  S_21
REMARK    7  A    between atoms: S_21  and  C_22
REMARK                            x       y       z     vdW  Elec       q    Type
REMARK                         _______ _______ _______ _____ _____    ______ ____
ROOT
ATOM      1  C   UNL     1       7.676  -3.855  25.962  0.00  0.00    +0.010 A 
ATOM      2  C   UNL     1       6.664  -4.167  26.915  0.00  0.00    +0.098 A 
ATOM      3  C   UNL     1       6.968  -5.399  27.477  0.00  0.00    +0.105 A 
ATOM      4  C   UNL     1       6.170  -5.925  28.479  0.00  0.00    +0.144 A 
ATOM      5  N   UNL     1       5.097  -5.216  28.862  0.00  0.00    -0.219 NA
ATOM      6  C   UNL     1       4.869  -4.033  28.255  0.00  0.00    +0.224 A 
ATOM      7  N   UNL     1       8.116  -5.846  26.873  0.00  0.00    -0.356 N 
ATOM      8  H   UNL     1       8.587  -6.709  27.106  0.00  0.00    +0.165 HD
ATOM      9  N   UNL     1       5.588  -3.443  27.290  0.00  0.00    -0.233 NA
ATOM     10  C   UNL     1       8.544  -4.934  25.943  0.00  0.00    +0.090 A 
ENDROOT
BRANCH   4  11
ATOM     11  N   UNL     1       6.409  -7.134  29.108  0.00  0.00    -0.341 N 
ATOM     12  H   UNL     1       5.603  -7.742  29.002  0.00  0.00    +0.144 HD
ATOM     13  H   UNL     1       7.301  -7.561  28.900  0.00  0.00    +0.144 HD
ENDBRANCH   4  11
BRANCH   1  14
ATOM     14  C   UNL     1       7.767  -2.592  25.166  0.00  0.00    +0.123 C 
BRANCH  14  18
ATOM     15  C   UNL     1       9.287  -1.618  22.718  0.00  0.00    +0.134 C 
ATOM     16  C   UNL     1       9.224  -0.278  23.462  0.00  0.00    +0.043 C 
ATOM     17  C   UNL     1       9.291  -0.667  24.948  0.00  0.00    +0.091 C 
ATOM     18  N   UNL     1       9.168  -2.136  25.046  0.00  0.00    -0.295 NA
ATOM     19  C   UNL     1       9.759  -2.611  23.783  0.00  0.00    +0.116 C 
BRANCH  15  20
ATOM     20  O   UNL     1      10.170  -1.556  21.607  0.00  0.00    -0.390 OA
ATOM     21  H   UNL     1      10.232  -0.629  21.319  0.00  0.00    +0.210 HD
ENDBRANCH  15  20
BRANCH  16  22
ATOM     22  C   UNL     1       7.967   0.514  23.084  0.00  0.00    +0.076 C 
BRANCH  22  23
ATOM     23  S   UNL     1       8.304   1.646  21.689  0.00  0.00    -0.164 S 
ATOM     24  C   UNL     1       7.140   2.962  22.107  0.00  0.00    +0.084 C 
ENDBRANCH  22  23
ENDBRANCH  16  22
ENDBRANCH  14  18
ENDBRANCH   1  14
TORSDOF 6
ENDMDL
MODEL 9
REMARK VINA RESULT:      -5.9      1.614      1.770
REMARK  Name = 
REMARK  7 active torsions:
REMARK  status: ('A' for Active; 'I' for Inactive)
REMARK    1  A    between atoms: C_2  and  O_3
REMARK    2  A    between atoms: N_5  and  C_6
REMARK    3  A    between atoms: C_6  and  C_7
REMARK    4  A    between atoms: C_11  and  N_12
REMARK    5  A    between atoms: C_18  and  C_20
REMARK    6  A    between atoms: C_20  and  S_21
REMARK    7  A    between atoms: S_21  and  C_22
REMARK                            x       y       z     vdW  Elec       q    Type
REMARK                         _______ _______ _______ _____ _____    ______ ____
ROOT
ATOM      1  C   UNL     1       7.619  -0.939  24.557  0.00  0.00    +0.010 A 
ATOM      2  C   UNL     1       8.651  -0.014  24.226  0.00  0.00    +0.098 A 
ATOM      3  C   UNL     1       8.221   0.741  23.144  0.00  0.00    +0.105 A 
ATOM      4  C   UNL     1       9.015   1.759  22.644  0.00  0.00    +0.144 A 
ATOM      5  N   UNL     1      10.207   1.967  23.224  0.00  0.00    -0.219 NA
ATOM      6  C   UNL     1      10.551   1.179  24.264  0.00  0.00    +0.224 A 
ATOM      7  N   UNL     1       6.975   0.281  22.800  0.00  0.00    -0.356 N 
ATOM      8  H   UNL     1       6.405   0.667  22.060  0.00  0.00    +0.165 HD
ATOM      9  N   UNL     1       9.847   0.183  24.821  0.00  0.00    -0.233 NA
ATOM     10  C   UNL     1       6.607  -0.745  23.631  0.00  0.00    +0.090 A 
ENDROOT
BRANCH   4  11
ATOM     11  N   UNL     1       8.657   2.573  21.583  0.00  0.00    -0.341 N 
ATOM     12  H   UNL     1       8.098   3.351  21.921  0.00  0.00    +0.144 HD
ATOM     13  H   UNL     1       9.409   2.823  20.957  0.00  0.00    +0.144 HD
ENDBRANCH   4  11
BRANCH   1  14
ATOM     14  C   UNL     1       7.646  -1.906  25.697  0.00  0.00    +0.123 C 
BRANCH  14  18
ATOM     15  C   UNL     1       7.684  -4.875  26.356  0.00  0.00    +0.134 C 
ATOM     16  C   UNL     1       7.734  -5.008  24.828  0.00  0.00    +0.043 C 
ATOM     17  C   UNL     1       8.538  -3.781  24.369  0.00  0.00    +0.091 C 
ATOM     18  N   UNL     1       8.734  -2.894  25.534  0.00  0.00    -0.295 NA
ATOM     19  C   UNL     1       8.756  -3.829  26.672  0.00  0.00    +0.116 C 
BRANCH  15  20
ATOM     20  O   UNL     1       7.937  -6.119  26.995  0.00  0.00    -0.390 OA
ATOM     21  H   UNL     1       7.132  -6.662  26.933  0.00  0.00    +0.210 HD
ENDBRANCH  15  20
BRANCH  16  22
ATOM     22  C   UNL     1       6.326  -5.087  24.228  0.00  0.00    +0.076 C 
BRANCH  22  23
ATOM     23  S   UNL     1       6.389  -5.632  22.484  0.00  0.00    -0.164 S 
ATOM     24  C   UNL     1       6.065  -4.046  21.681  0.00  0.00    +0.084 C 
ENDBRANCH  22  23
ENDBRANCH  16  22
ENDBRANCH  14  18
ENDBRANCH   1  14
TORSDOF 6
ENDMDL
