MODEL 1
REMARK VINA RESULT:      -7.4      0.000      0.000
REMARK  Name = 
REMARK  8 active torsions:
REMARK  status: ('A' for Active; 'I' for Inactive)
REMARK    1  A    between atoms: C_4  and  C_6
REMARK    2  A    between atoms: C_10  and  O_11
REMARK    3  A    between atoms: C_15  and  N_17
REMARK    4  A    between atoms: N_17  and  C_18
REMARK    5  A    between atoms: C_19  and  O_21
REMARK    6  A    between atoms: C_22  and  N_24
REMARK    7  A    between atoms: N_24  and  C_25
REMARK    8  A    between atoms: C_26  and  O_28
REMARK                            x       y       z     vdW  Elec       q    Type
REMARK                         _______ _______ _______ _____ _____    ______ ____
ROOT
ATOM      1  C   UNL     1       8.047  -4.929  25.529  0.00  0.00    +0.319 C 
ATOM      2  O   UNL     1       7.609  -2.982  25.011  0.00  0.00    -0.338 OA
ATOM      3  C   UNL     1       6.719  -1.570  23.994  0.00  0.00    +0.182 C 
ATOM      4  C   UNL     1       7.549  -3.162  23.011  0.00  0.00    +0.173 C 
ATOM      5  C   UNL     1       7.942  -2.051  22.254  0.00  0.00    +0.115 C 
ATOM      6  C   UNL     1       9.403  -0.774  21.381  0.00  0.00    +0.153 C 
ATOM      7  C   UNL     1       8.498   0.974  22.594  0.00  0.00    +0.115 C 
ATOM      8  O   UNL     1       7.282  -4.370  21.863  0.00  0.00    -0.331 OA
ATOM      9  C   UNL     1       6.791   0.606  23.543  0.00  0.00    +0.165 C 
ATOM     10  C   UNL     1       6.942  -4.574  23.469  0.00  0.00    +0.281 C 
ATOM     11  C   UNL     1       4.567  -4.210  22.975  0.00  0.00    +0.199 C 
ATOM     12  O   UNL     1       3.343  -5.449  22.866  0.00  0.00    -0.291 OA
ATOM     13  C   UNL     1       5.620  -5.749  21.994  0.00  0.00    +0.111 C 
ATOM     14  C   UNL     1       5.199  -5.022  23.909  0.00  0.00    +0.126 C 
ATOM     15  C   UNL     1       4.939  -6.084  23.019  0.00  0.00    +0.038 C 
ATOM     16  O   UNL     1       6.595  -4.913  24.653  0.00  0.00    -0.343 OA
ENDROOT
BRANCH   7  17
ATOM     17  N   UNL     1       7.455   0.707  24.251  0.00  0.00    -0.312 NA
ATOM     18  H   UNL     1       7.985   0.023  24.852  0.00  0.00    +0.122 HD
ATOM     19  C   UNL     1       7.565   1.756  25.233  0.00  0.00    +0.101 C 
ENDBRANCH   7  17
BRANCH   5  20
ATOM     20  N   UNL     1       9.040  -1.365  22.729  0.00  0.00    -0.312 NA
ATOM     21  H   UNL     1       8.393  -2.171  23.017  0.00  0.00    +0.122 HD
ATOM     22  C   UNL     1      10.319  -1.700  22.895  0.00  0.00    +0.101 C 
ENDBRANCH   5  20
BRANCH   6  23
ATOM     23  O   UNL     1       8.419   0.546  22.547  0.00  0.00    -0.389 OA
ATOM     24  H   UNL     1       8.862   0.002  23.570  0.00  0.00    +0.210 HD
ENDBRANCH   6  23
BRANCH   9  25
ATOM     25  O   UNL     1       5.987  -0.736  23.945  0.00  0.00    -0.387 OA
ATOM     26  H   UNL     1       5.544  -0.943  24.755  0.00  0.00    +0.210 HD
ENDBRANCH   9  25
BRANCH  10  27
ATOM     27  O   UNL     1       5.550  -3.838  22.052  0.00  0.00    -0.355 OA
ATOM     28  H   UNL     1       5.760  -3.156  21.021  0.00  0.00    +0.213 HD
ENDBRANCH  10  27
TORSDOF 5
ENDMDL
MODEL 2
REMARK VINA RESULT:      -7.1      1.692      2.089
REMARK  Name = 
REMARK  8 active torsions:
REMARK  status: ('A' for Active; 'I' for Inactive)
REMARK    1  A    between atoms: C_4  and  C_6
REMARK    2  A    between atoms: C_10  and  O_11
REMARK    3  A    between atoms: C_15  and  N_17
REMARK    4  A    between atoms: N_17  and  C_18
REMARK    5  A    between atoms: C_19  and  O_21
REMARK    6  A    between atoms: C_22  and  N_24
REMARK    7  A    between atoms: N_24  and  C_25
REMARK    8  A    between atoms: C_26  and  O_28
REMARK                            x       y       z     vdW  Elec       q    Type
REMARK                         _______ _______ _______ _____ _____    ______ ____
ROOT
ATOM      1  C   UNL     1       5.465  -3.830  26.006  0.00  0.00    +0.319 C 
ATOM      2  O   UNL     1       5.900  -2.075  25.017  0.00  0.00    -0.338 OA
ATOM      3  C   UNL     1       6.552  -0.987  23.529  0.00  0.00    +0.182 C 
ATOM      4  C   UNL     1       7.666  -2.571  24.194  0.00  0.00    +0.173 C 
ATOM      5  C   UNL     1       8.603  -1.545  24.018  0.00  0.00    +0.115 C 
ATOM      6  C   UNL     1      10.110  -0.216  24.717  0.00  0.00    +0.153 C 
ATOM      7  C   UNL     1       8.770   1.545  24.044  0.00  0.00    +0.115 C 
ATOM      8  O   UNL     1       8.493  -3.968  23.737  0.00  0.00    -0.331 OA
ATOM      9  C   UNL     1       7.161   1.078  22.975  0.00  0.00    +0.165 C 
ATOM     10  C   UNL     1       6.883  -3.969  24.120  0.00  0.00    +0.281 C 
ATOM     11  C   UNL     1       6.351  -4.045  21.726  0.00  0.00    +0.199 C 
ATOM     12  O   UNL     1       5.833  -5.454  20.838  0.00  0.00    -0.291 OA
ATOM     13  C   UNL     1       7.562  -5.543  22.582  0.00  0.00    +0.111 C 
ATOM     14  C   UNL     1       5.712  -4.598  22.829  0.00  0.00    +0.126 C 
ATOM     15  C   UNL     1       6.322  -5.812  22.453  0.00  0.00    +0.038 C 
ATOM     16  O   UNL     1       5.641  -4.167  24.354  0.00  0.00    -0.343 OA
ENDROOT
BRANCH   7  17
ATOM     17  N   UNL     1       6.813   1.386  23.833  0.00  0.00    -0.312 NA
ATOM     18  H   UNL     1       6.387   1.402  24.797  0.00  0.00    +0.122 HD
ATOM     19  C   UNL     1       6.127   2.592  23.439  0.00  0.00    +0.101 C 
ENDBRANCH   7  17
BRANCH   5  20
ATOM     20  N   UNL     1       8.694  -0.637  25.052  0.00  0.00    -0.312 NA
ATOM     21  H   UNL     1       8.060  -1.438  24.722  0.00  0.00    +0.122 HD
ATOM     22  C   UNL     1       8.978  -0.761  26.349  0.00  0.00    +0.101 C 
ENDBRANCH   5  20
BRANCH   6  23
ATOM     23  O   UNL     1       8.746   1.108  24.041  0.00  0.00    -0.389 OA
ATOM     24  H   UNL     1       9.165   1.971  24.828  0.00  0.00    +0.210 HD
ENDBRANCH   6  23
BRANCH   9  25
ATOM     25  O   UNL     1       6.352  -0.289  22.688  0.00  0.00    -0.387 OA
ATOM     26  H   UNL     1       6.669  -1.101  22.320  0.00  0.00    +0.210 HD
ENDBRANCH   9  25
BRANCH  10  27
ATOM     27  O   UNL     1       7.630  -3.678  22.159  0.00  0.00    -0.355 OA
ATOM     28  H   UNL     1       7.134  -4.036  21.064  0.00  0.00    +0.213 HD
ENDBRANCH  10  27
TORSDOF 5
ENDMDL
MODEL 3
REMARK VINA RESULT:      -7.1      2.192      5.967
REMARK  Name = 
REMARK  8 active torsions:
REMARK  status: ('A' for Active; 'I' for Inactive)
REMARK    1  A    between atoms: C_4  and  C_6
REMARK    2  A    between atoms: C_10  and  O_11
REMARK    3  A    between atoms: C_15  and  N_17
REMARK    4  A    between atoms: N_17  and  C_18
REMARK    5  A    between atoms: C_19  and  O_21
REMARK    6  A    between atoms: C_22  and  N_24
REMARK    7  A    between atoms: N_24  and  C_25
REMARK    8  A    between atoms: C_26  and  O_28
REMARK                            x       y       z     vdW  Elec       q    Type
REMARK                         _______ _______ _______ _____ _____    ______ ____
ROOT
ATOM      1  C   UNL     1       6.044   1.157  24.136  0.00  0.00    +0.319 C 
ATOM      2  O   UNL     1       6.824  -0.655  24.734  0.00  0.00    -0.338 OA
ATOM      3  C   UNL     1       8.210  -2.023  24.910  0.00  0.00    +0.182 C 
ATOM      4  C   UNL     1       7.887  -1.131  23.096  0.00  0.00    +0.173 C 
ATOM      5  C   UNL     1       8.019  -2.491  22.789  0.00  0.00    +0.115 C 
ATOM      6  C   UNL     1       7.307  -4.330  21.990  0.00  0.00    +0.153 C 
ATOM      7  C   UNL     1       7.589  -5.268  24.084  0.00  0.00    +0.115 C 
ATOM      8  O   UNL     1       8.615  -0.341  21.795  0.00  0.00    -0.331 OA
ATOM      9  C   UNL     1       8.537  -4.159  25.434  0.00  0.00    +0.165 C 
ATOM     10  C   UNL     1       8.070   0.463  23.134  0.00  0.00    +0.281 C 
ATOM     11  C   UNL     1      10.382   0.619  23.938  0.00  0.00    +0.199 C 
ATOM     12  O   UNL     1      11.395   2.037  23.869  0.00  0.00    -0.291 OA
ATOM     13  C   UNL     1       9.871   1.403  22.050  0.00  0.00    +0.111 C 
ATOM     14  C   UNL     1       9.304   1.487  24.061  0.00  0.00    +0.126 C 
ATOM     15  C   UNL     1       9.904   2.227  23.023  0.00  0.00    +0.038 C 
ATOM     16  O   UNL     1       7.736   1.251  24.085  0.00  0.00    -0.343 OA
ENDROOT
BRANCH   7  17
ATOM     17  N   UNL     1       7.614  -4.199  25.746  0.00  0.00    -0.312 NA
ATOM     18  H   UNL     1       6.678  -3.721  25.830  0.00  0.00    +0.122 HD
ATOM     19  C   UNL     1       7.417  -4.940  26.967  0.00  0.00    +0.101 C 
ENDBRANCH   7  17
BRANCH   5  20
ATOM     20  N   UNL     1       6.886  -3.255  22.971  0.00  0.00    -0.312 NA
ATOM     21  H   UNL     1       7.239  -2.260  23.162  0.00  0.00    +0.122 HD
ATOM     22  C   UNL     1       5.674  -3.231  22.418  0.00  0.00    +0.101 C 
ENDBRANCH   5  20
BRANCH   6  23
ATOM     23  O   UNL     1       7.649  -4.874  23.902  0.00  0.00    -0.389 OA
ATOM     24  H   UNL     1       8.491  -3.972  24.028  0.00  0.00    +0.210 HD
ENDBRANCH   6  23
BRANCH   9  25
ATOM     25  O   UNL     1       8.922  -2.594  25.543  0.00  0.00    -0.387 OA
ATOM     26  H   UNL     1       8.561  -1.932  26.114  0.00  0.00    +0.210 HD
ENDBRANCH   9  25
BRANCH  10  27
ATOM     27  O   UNL     1      10.040  -0.289  22.930  0.00  0.00    -0.355 OA
ATOM     28  H   UNL     1      11.129   0.329  22.982  0.00  0.00    +0.213 HD
ENDBRANCH  10  27
TORSDOF 5
ENDMDL
MODEL 4
REMARK VINA RESULT:      -7.0      1.306      1.371
REMARK  Name = 
REMARK  8 active torsions:
REMARK  status: ('A' for Active; 'I' for Inactive)
REMARK    1  A    between atoms: C_4  and  C_6
REMARK    2  A    between atoms: C_10  and  O_11
REMARK    3  A    between atoms: C_15  and  N_17
REMARK    4  A    between atoms: N_17  and  C_18
REMARK    5  A    between atoms: C_19  and  O_21
REMARK    6  A    between atoms: C_22  and  N_24
REMARK    7  A    between atoms: N_24  and  C_25
REMARK    8  A    between atoms: C_26  and  O_28
REMARK                            x       y       z     vdW  Elec       q    Type
REMARK                         _______ _______ _______ _____ _____    ______ ____
ROOT
ATOM      1  C   UNL     1       8.315  -3.432  26.039  0.00  0.00    +0.319 C 
ATOM      2  O   UNL     1       7.699  -1.617  25.278  0.00  0.00    -0.338 OA
ATOM      3  C   UNL     1       6.824  -0.433  23.993  0.00  0.00    +0.182 C 
ATOM      4  C   UNL     1       8.061  -1.921  23.325  0.00  0.00    +0.173 C 
ATOM      5  C   UNL     1       8.423  -0.806  22.558  0.00  0.00    +0.115 C 
ATOM      6  C   UNL     1       9.818   0.641  21.860  0.00  0.00    +0.153 C 
ATOM      7  C   UNL     1       8.439   2.284  22.724  0.00  0.00    +0.115 C 
ATOM      8  O   UNL     1       8.210  -3.221  22.259  0.00  0.00    -0.331 OA
ATOM      9  C   UNL     1       6.654   1.695  23.371  0.00  0.00    +0.165 C 
ATOM     10  C   UNL     1       7.595  -3.385  23.787  0.00  0.00    +0.281 C 
ATOM     11  C   UNL     1       5.336  -3.447  22.833  0.00  0.00    +0.199 C 
ATOM     12  O   UNL     1       4.359  -4.874  22.610  0.00  0.00    -0.291 OA
ATOM     13  C   UNL     1       6.782  -4.845  22.203  0.00  0.00    +0.111 C 
ATOM     14  C   UNL     1       5.888  -4.087  23.935  0.00  0.00    +0.126 C 
ATOM     15  C   UNL     1       5.971  -5.227  23.111  0.00  0.00    +0.038 C 
ATOM     16  O   UNL     1       7.078  -3.706  24.912  0.00  0.00    -0.343 OA
ENDROOT
BRANCH   7  17
ATOM     17  N   UNL     1       7.144   1.945  24.177  0.00  0.00    -0.312 NA
ATOM     18  H   UNL     1       7.684   1.577  25.004  0.00  0.00    +0.122 HD
ATOM     19  C   UNL     1       6.700   3.110  24.902  0.00  0.00    +0.101 C 
ENDBRANCH   7  17
BRANCH   5  20
ATOM     20  N   UNL     1       9.290   0.078  23.164  0.00  0.00    -0.312 NA
ATOM     21  H   UNL     1       8.699  -0.784  23.409  0.00  0.00    +0.122 HD
ATOM     22  C   UNL     1      10.528  -0.046  23.641  0.00  0.00    +0.101 C 
ENDBRANCH   5  20
BRANCH   6  23
ATOM     23  O   UNL     1       8.437   1.846  22.702  0.00  0.00    -0.389 OA
ATOM     24  H   UNL     1       7.614   1.549  21.822  0.00  0.00    +0.210 HD
ENDBRANCH   6  23
BRANCH   9  25
ATOM     25  O   UNL     1       5.999   0.265  23.736  0.00  0.00    -0.387 OA
ATOM     26  H   UNL     1       6.186  -0.305  24.467  0.00  0.00    +0.210 HD
ENDBRANCH   9  25
BRANCH  10  27
ATOM     27  O   UNL     1       6.414  -2.971  22.078  0.00  0.00    -0.355 OA
ATOM     28  H   UNL     1       6.727  -3.045  20.866  0.00  0.00    +0.213 HD
ENDBRANCH  10  27
TORSDOF 5
ENDMDL
MODEL 5
REMARK VINA RESULT:      -6.9      2.444      5.850
REMARK  Name = 
REMARK  8 active torsions:
REMARK  status: ('A' for Active; 'I' for Inactive)
REMARK    1  A    between atoms: C_4  and  C_6
REMARK    2  A    between atoms: C_10  and  O_11
REMARK    3  A    between atoms: C_15  and  N_17
REMARK    4  A    between atoms: N_17  and  C_18
REMARK    5  A    between atoms: C_19  and  O_21
REMARK    6  A    between atoms: C_22  and  N_24
REMARK    7  A    between atoms: N_24  and  C_25
REMARK    8  A    between atoms: C_26  and  O_28
REMARK                            x       y       z     vdW  Elec       q    Type
REMARK                         _______ _______ _______ _____ _____    ______ ____
ROOT
ATOM      1  C   UNL     1      10.150  -4.930  25.514  0.00  0.00    +0.319 C 
ATOM      2  O   UNL     1       8.700  -5.311  24.099  0.00  0.00    -0.338 OA
ATOM      3  C   UNL     1       7.390  -4.845  22.725  0.00  0.00    +0.182 C 
ATOM      4  C   UNL     1       7.437  -3.796  24.482  0.00  0.00    +0.173 C 
ATOM      5  C   UNL     1       6.073  -4.023  24.256  0.00  0.00    +0.115 C 
ATOM      6  C   UNL     1       4.169  -4.804  24.795  0.00  0.00    +0.153 C 
ATOM      7  C   UNL     1       4.208  -6.052  22.849  0.00  0.00    +0.115 C 
ATOM      8  O   UNL     1       7.490  -2.257  25.172  0.00  0.00    -0.331 OA
ATOM      9  C   UNL     1       5.672  -5.650  21.565  0.00  0.00    +0.165 C 
ATOM     10  C   UNL     1       8.854  -3.099  24.765  0.00  0.00    +0.281 C 
ATOM     11  C   UNL     1       9.068  -1.711  22.754  0.00  0.00    +0.199 C 
ATOM     12  O   UNL     1      10.184  -0.387  22.539  0.00  0.00    -0.291 OA
ATOM     13  C   UNL     1       9.008  -0.804  24.656  0.00  0.00    +0.111 C 
ATOM     14  C   UNL     1      10.024  -2.284  23.583  0.00  0.00    +0.126 C 
ATOM     15  C   UNL     1      10.162  -1.001  24.151  0.00  0.00    +0.038 C 
ATOM     16  O   UNL     1      10.011  -3.578  24.500  0.00  0.00    -0.343 OA
ENDROOT
BRANCH   7  17
ATOM     17  N   UNL     1       5.881  -6.536  21.916  0.00  0.00    -0.312 NA
ATOM     18  H   UNL     1       5.818  -7.556  21.659  0.00  0.00    +0.122 HD
ATOM     19  C   UNL     1       5.968  -6.126  20.537  0.00  0.00    +0.101 C 
ENDBRANCH   7  17
BRANCH   5  20
ATOM     20  N   UNL     1       5.605  -5.262  24.640  0.00  0.00    -0.312 NA
ATOM     21  H   UNL     1       6.536  -4.741  24.525  0.00  0.00    +0.122 HD
ATOM     22  C   UNL     1       5.556  -5.893  25.813  0.00  0.00    +0.101 C 
ENDBRANCH   5  20
BRANCH   6  23
ATOM     23  O   UNL     1       4.473  -5.766  23.048  0.00  0.00    -0.389 OA
ATOM     24  H   UNL     1       3.532  -6.538  23.287  0.00  0.00    +0.210 HD
ENDBRANCH   6  23
BRANCH   9  25
ATOM     25  O   UNL     1       7.071  -4.848  21.661  0.00  0.00    -0.387 OA
ATOM     26  H   UNL     1       7.310  -4.139  22.238  0.00  0.00    +0.210 HD
ENDBRANCH   9  25
BRANCH  10  27
ATOM     27  O   UNL     1       7.860  -1.760  23.459  0.00  0.00    -0.355 OA
ATOM     28  H   UNL     1       8.287  -0.701  22.940  0.00  0.00    +0.213 HD
ENDBRANCH  10  27
TORSDOF 5
ENDMDL
MODEL 6
REMARK VINA RESULT:      -6.9      1.882      5.719
REMARK  Name = 
REMARK  8 active torsions:
REMARK  status: ('A' for Active; 'I' for Inactive)
REMARK    1  A    between atoms: C_4  and  C_6
REMARK    2  A    between atoms: C_10  and  O_11
REMARK    3  A    between atoms: C_15  and  N_17
REMARK    4  A    between atoms: N_17  and  C_18
REMARK    5  A    between atoms: C_19  and  O_21
REMARK    6  A    between atoms: C_22  and  N_24
REMARK    7  A    between atoms: N_24  and  C_25
REMARK    8  A    between atoms: C_26  and  O_28
REMARK                            x       y       z     vdW  Elec       q    Type
REMARK                         _______ _______ _______ _____ _____    ______ ____
ROOT
ATOM      1  C   UNL     1      10.523  -1.463  22.472  0.00  0.00    +0.319 C 
ATOM      2  O   UNL     1       8.714  -2.439  22.307  0.00  0.00    -0.338 OA
ATOM      3  C   UNL     1       6.801  -2.698  22.608  0.00  0.00    +0.182 C 
ATOM      4  C   UNL     1       8.015  -2.187  24.174  0.00  0.00    +0.173 C 
ATOM      5  C   UNL     1       7.193  -3.196  24.693  0.00  0.00    +0.115 C 
ATOM      6  C   UNL     1       6.867  -5.097  25.592  0.00  0.00    +0.153 C 
ATOM      7  C   UNL     1       5.588  -5.668  23.751  0.00  0.00    +0.115 C 
ATOM      8  O   UNL     1       8.230  -1.124  25.466  0.00  0.00    -0.331 OA
ATOM      9  C   UNL     1       5.171  -4.206  22.471  0.00  0.00    +0.165 C 
ATOM     10  C   UNL     1       8.794  -0.804  23.944  0.00  0.00    +0.281 C 
ATOM     11  C   UNL     1       6.899   0.714  23.600  0.00  0.00    +0.199 C 
ATOM     12  O   UNL     1       6.960   2.457  23.664  0.00  0.00    -0.291 OA
ATOM     13  C   UNL     1       8.214   1.025  25.217  0.00  0.00    +0.111 C 
ATOM     14  C   UNL     1       8.210   0.760  23.143  0.00  0.00    +0.126 C 
ATOM     15  C   UNL     1       8.431   1.708  24.162  0.00  0.00    +0.038 C 
ATOM     16  O   UNL     1       9.280  -0.371  22.843  0.00  0.00    -0.343 OA
ENDROOT
BRANCH   7  17
ATOM     17  N   UNL     1       5.787  -4.792  21.992  0.00  0.00    -0.312 NA
ATOM     18  H   UNL     1       6.732  -4.325  21.974  0.00  0.00    +0.122 HD
ATOM     19  C   UNL     1       6.124  -5.665  20.895  0.00  0.00    +0.101 C 
ENDBRANCH   7  17
BRANCH   5  20
ATOM     20  N   UNL     1       7.580  -4.487  24.402  0.00  0.00    -0.312 NA
ATOM     21  H   UNL     1       7.850  -3.478  24.155  0.00  0.00    +0.122 HD
ATOM     22  C   UNL     1       8.659  -5.206  24.711  0.00  0.00    +0.101 C 
ENDBRANCH   5  20
BRANCH   6  23
ATOM     23  O   UNL     1       5.816  -5.318  23.884  0.00  0.00    -0.389 OA
ATOM     24  H   UNL     1       6.523  -6.282  23.551  0.00  0.00    +0.210 HD
ENDBRANCH   6  23
BRANCH   9  25
ATOM     25  O   UNL     1       5.761  -2.724  22.217  0.00  0.00    -0.387 OA
ATOM     26  H   UNL     1       5.576  -1.923  22.684  0.00  0.00    +0.210 HD
ENDBRANCH   9  25
BRANCH  10  27
ATOM     27  O   UNL     1       6.881  -0.221  24.641  0.00  0.00    -0.355 OA
ATOM     28  H   UNL     1       6.375  -0.373  25.778  0.00  0.00    +0.213 HD
ENDBRANCH  10  27
TORSDOF 5
ENDMDL
MODEL 7
REMARK VINA RESULT:      -6.4      2.105      3.979
REMARK  Name = 
REMARK  8 active torsions:
REMARK  status: ('A' for Active; 'I' for Inactive)
REMARK    1  A    between atoms: C_4  and  C_6
REMARK    2  A    between atoms: C_10  and  O_11
REMARK    3  A    between atoms: C_15  and  N_17
REMARK    4  A    between atoms: N_17  and  C_18
REMARK    5  A    between atoms: C_19  and  O_21
REMARK    6  A    between atoms: C_22  and  N_24
REMARK    7  A    between atoms: N_24  and  C_25
REMARK    8  A    between atoms: C_26  and  O_28
REMARK                            x       y       z     vdW  Elec       q    Type
REMARK                         _______ _______ _______ _____ _____    ______ ____
ROOT
ATOM      1  C   UNL     1       5.684  -3.005  22.764  0.00  0.00    +0.319 C 
ATOM      2  O   UNL     1       7.203  -1.629  22.978  0.00  0.00    -0.338 OA
ATOM      3  C   UNL     1       8.815  -0.871  23.783  0.00  0.00    +0.182 C 
ATOM      4  C   UNL     1       7.288  -1.517  24.982  0.00  0.00    +0.173 C 
ATOM      5  C   UNL     1       7.666  -0.289  25.542  0.00  0.00    +0.115 C 
ATOM      6  C   UNL     1       7.280   1.710  26.158  0.00  0.00    +0.153 C 
ATOM      7  C   UNL     1       8.944   2.404  24.709  0.00  0.00    +0.115 C 
ATOM      8  O   UNL     1       6.885  -2.470  26.315  0.00  0.00    -0.331 OA
ATOM      9  C   UNL     1      10.050   0.976  23.879  0.00  0.00    +0.165 C 
ATOM     10  C   UNL     1       6.931  -3.066  24.772  0.00  0.00    +0.281 C 
ATOM     11  C   UNL     1       9.104  -4.088  25.269  0.00  0.00    +0.199 C 
ATOM     12  O   UNL     1       9.388  -5.775  25.608  0.00  0.00    -0.291 OA
ATOM     13  C   UNL     1       7.426  -4.561  26.452  0.00  0.00    +0.111 C 
ATOM     14  C   UNL     1       8.055  -4.504  24.459  0.00  0.00    +0.126 C 
ATOM     15  C   UNL     1       7.713  -5.374  25.513  0.00  0.00    +0.038 C 
ATOM     16  O   UNL     1       6.933  -3.711  23.667  0.00  0.00    -0.343 OA
ENDROOT
BRANCH   7  17
ATOM     17  N   UNL     1       9.519   1.341  23.147  0.00  0.00    -0.312 NA
ATOM     18  H   UNL     1       8.665   1.153  22.558  0.00  0.00    +0.122 HD
ATOM     19  C   UNL     1      10.163   2.082  22.090  0.00  0.00    +0.101 C 
ENDBRANCH   7  17
BRANCH   5  20
ATOM     20  N   UNL     1       7.138   0.830  24.933  0.00  0.00    -0.312 NA
ATOM     21  H   UNL     1       7.211  -0.229  24.773  0.00  0.00    +0.122 HD
ATOM     22  C   UNL     1       5.891   1.256  24.736  0.00  0.00    +0.101 C 
ENDBRANCH   5  20
BRANCH   6  23
ATOM     23  O   UNL     1       8.762   2.022  24.826  0.00  0.00    -0.389 OA
ATOM     24  H   UNL     1       9.532   1.306  25.486  0.00  0.00    +0.210 HD
ENDBRANCH   6  23
BRANCH   9  25
ATOM     25  O   UNL     1       9.896  -0.624  23.719  0.00  0.00    -0.387 OA
ATOM     26  H   UNL     1      10.568  -1.273  23.575  0.00  0.00    +0.210 HD
ENDBRANCH   9  25
BRANCH  10  27
ATOM     27  O   UNL     1       8.587  -3.082  26.093  0.00  0.00    -0.355 OA
ATOM     28  H   UNL     1       8.814  -2.347  27.083  0.00  0.00    +0.213 HD
ENDBRANCH  10  27
TORSDOF 5
ENDMDL
MODEL 8
REMARK VINA RESULT:      -6.4      4.575      6.611
REMARK  Name = 
REMARK  8 active torsions:
REMARK  status: ('A' for Active; 'I' for Inactive)
REMARK    1  A    between atoms: C_4  and  C_6
REMARK    2  A    between atoms: C_10  and  O_11
REMARK    3  A    between atoms: C_15  and  N_17
REMARK    4  A    between atoms: N_17  and  C_18
REMARK    5  A    between atoms: C_19  and  O_21
REMARK    6  A    between atoms: C_22  and  N_24
REMARK    7  A    between atoms: N_24  and  C_25
REMARK    8  A    between atoms: C_26  and  O_28
REMARK                            x       y       z     vdW  Elec       q    Type
REMARK                         _______ _______ _______ _____ _____    ______ ____
ROOT
ATOM      1  C   UNL     1       7.144   1.211  25.830  0.00  0.00    +0.319 C 
ATOM      2  O   UNL     1       6.990   2.759  24.477  0.00  0.00    -0.338 OA
ATOM      3  C   UNL     1       7.444   3.758  22.859  0.00  0.00    +0.182 C 
ATOM      4  C   UNL     1       8.936   3.060  24.074  0.00  0.00    +0.173 C 
ATOM      5  C   UNL     1       9.332   4.367  23.762  0.00  0.00    +0.115 C 
ATOM      6  C   UNL     1       9.866   6.360  24.283  0.00  0.00    +0.153 C 
ATOM      7  C   UNL     1       8.102   7.097  22.982  0.00  0.00    +0.115 C 
ATOM      8  O   UNL     1      10.382   2.192  24.129  0.00  0.00    -0.331 OA
ATOM      9  C   UNL     1       7.192   5.730  21.863  0.00  0.00    +0.165 C 
ATOM     10  C   UNL     1       8.901   1.468  24.268  0.00  0.00    +0.281 C 
ATOM     11  C   UNL     1       9.077   0.739  21.933  0.00  0.00    +0.199 C 
ATOM     12  O   UNL     1       9.479  -0.870  21.391  0.00  0.00    -0.291 OA
ATOM     13  C   UNL     1      10.568   0.194  23.319  0.00  0.00    +0.111 C 
ATOM     14  C   UNL     1       8.496   0.139  23.043  0.00  0.00    +0.126 C 
ATOM     15  C   UNL     1       9.652  -0.665  23.094  0.00  0.00    +0.038 C 
ATOM     16  O   UNL     1       7.860   0.730  24.370  0.00  0.00    -0.343 OA
ENDROOT
BRANCH   7  17
ATOM     17  N   UNL     1       6.540   5.967  22.549  0.00  0.00    -0.312 NA
ATOM     18  H   UNL     1       6.322   5.386  23.402  0.00  0.00    +0.122 HD
ATOM     19  C   UNL     1       5.260   6.628  22.591  0.00  0.00    +0.101 C 
ENDBRANCH   7  17
BRANCH   5  20
ATOM     20  N   UNL     1       8.749   5.362  24.517  0.00  0.00    -0.312 NA
ATOM     21  H   UNL     1       8.635   4.313  24.320  0.00  0.00    +0.122 HD
ATOM     22  C   UNL     1       8.711   5.606  25.827  0.00  0.00    +0.101 C 
ENDBRANCH   5  20
BRANCH   6  23
ATOM     23  O   UNL     1       8.275   6.710  23.093  0.00  0.00    -0.389 OA
ATOM     24  H   UNL     1       7.562   5.979  23.798  0.00  0.00    +0.210 HD
ENDBRANCH   6  23
BRANCH   9  25
ATOM     25  O   UNL     1       7.173   4.115  21.843  0.00  0.00    -0.387 OA
ATOM     26  H   UNL     1       7.902   3.513  21.828  0.00  0.00    +0.210 HD
ENDBRANCH   9  25
BRANCH  10  27
ATOM     27  O   UNL     1       9.907   1.752  22.426  0.00  0.00    -0.355 OA
ATOM     28  H   UNL     1       9.452   2.171  21.335  0.00  0.00    +0.213 HD
ENDBRANCH  10  27
TORSDOF 5
ENDMDL
MODEL 9
REMARK VINA RESULT:      -6.4      3.287      6.186
REMARK  Name = 
REMARK  8 active torsions:
REMARK  status: ('A' for Active; 'I' for Inactive)
REMARK    1  A    between atoms: C_4  and  C_6
REMARK    2  A    between atoms: C_10  and  O_11
REMARK    3  A    between atoms: C_15  and  N_17
REMARK    4  A    between atoms: N_17  and  C_18
REMARK    5  A    between atoms: C_19  and  O_21
REMARK    6  A    between atoms: C_22  and  N_24
REMARK    7  A    between atoms: N_24  and  C_25
REMARK    8  A    between atoms: C_26  and  O_28
REMARK                            x       y       z     vdW  Elec       q    Type
REMARK                         _______ _______ _______ _____ _____    ______ ____
ROOT
ATOM      1  C   UNL     1       5.653  -0.942  25.267  0.00  0.00    +0.319 C 
ATOM      2  O   UNL     1       6.013  -2.608  26.427  0.00  0.00    -0.338 OA
ATOM      3  C   UNL     1       6.879  -4.297  26.892  0.00  0.00    +0.182 C 
ATOM      4  C   UNL     1       6.191  -3.999  24.988  0.00  0.00    +0.173 C 
ATOM      5  C   UNL     1       5.781  -5.301  25.299  0.00  0.00    +0.115 C 
ATOM      6  C   UNL     1       4.302  -6.806  25.578  0.00  0.00    +0.153 C 
ATOM      7  C   UNL     1       5.045  -7.033  27.756  0.00  0.00    +0.115 C 
ATOM      8  O   UNL     1       6.584  -4.071  23.349  0.00  0.00    -0.331 OA
ATOM      9  C   UNL     1       6.716  -6.066  28.230  0.00  0.00    +0.165 C 
ATOM     10  C   UNL     1       6.847  -2.723  24.271  0.00  0.00    +0.281 C 
ATOM     11  C   UNL     1       9.222  -3.321  24.403  0.00  0.00    +0.199 C 
ATOM     12  O   UNL     1      10.515  -2.583  23.492  0.00  0.00    -0.291 OA
ATOM     13  C   UNL     1       8.308  -3.057  22.522  0.00  0.00    +0.111 C 
ATOM     14  C   UNL     1       8.585  -2.087  24.354  0.00  0.00    +0.126 C 
ATOM     15  C   UNL     1       8.949  -2.060  22.993  0.00  0.00    +0.038 C 
ATOM     16  O   UNL     1       7.147  -1.605  24.817  0.00  0.00    -0.343 OA
ENDROOT
BRANCH   7  17
ATOM     17  N   UNL     1       6.009  -5.602  28.717  0.00  0.00    -0.312 NA
ATOM     18  H   UNL     1       5.560  -4.685  28.455  0.00  0.00    +0.122 HD
ATOM     19  C   UNL     1       5.668  -5.445  30.110  0.00  0.00    +0.101 C 
ENDBRANCH   7  17
BRANCH   5  20
ATOM     20  N   UNL     1       4.623  -5.399  26.042  0.00  0.00    -0.312 NA
ATOM     21  H   UNL     1       5.312  -4.652  25.699  0.00  0.00    +0.122 HD
ATOM     22  C   UNL     1       3.364  -5.024  25.819  0.00  0.00    +0.101 C 
ENDBRANCH   5  20
BRANCH   6  23
ATOM     23  O   UNL     1       5.149  -6.787  27.409  0.00  0.00    -0.389 OA
ATOM     24  H   UNL     1       4.307  -5.970  27.812  0.00  0.00    +0.210 HD
ENDBRANCH   6  23
BRANCH   9  25
ATOM     25  O   UNL     1       7.567  -4.877  27.544  0.00  0.00    -0.387 OA
ATOM     26  H   UNL     1       7.927  -4.831  26.671  0.00  0.00    +0.210 HD
ENDBRANCH   9  25
BRANCH  10  27
ATOM     27  O   UNL     1       8.272  -4.267  24.005  0.00  0.00    -0.355 OA
ATOM     28  H   UNL     1       9.517  -4.181  23.888  0.00  0.00    +0.213 HD
ENDBRANCH  10  27
TORSDOF 5
ENDMDL
