MODEL 1
REMARK VINA RESULT:      -5.9      0.000      0.000
REMARK  Name = 
REMARK  5 active torsions:
REMARK  status: ('A' for Active; 'I' for Inactive)
REMARK    1  A    between atoms: N_1  and  C_2
REMARK    2  A    between atoms: C_5  and  C_8
REMARK    3  A    between atoms: N_10  and  C_11
REMARK    4  A    between atoms: C_11  and  C_12
REMARK    5  A    between atoms: C_12  and  O_13
REMARK                            x       y       z     vdW  Elec       q    Type
REMARK                         _______ _______ _______ _____ _____    ______ ____
ROOT
ATOM      1  C   UNL     1       9.995   0.868  22.243  0.00  0.00    +0.025 A 
ATOM      2  C   UNL     1       9.519  -0.219  21.504  0.00  0.00    +0.023 A 
ATOM      3  C   UNL     1       9.346  -1.472  22.101  0.00  0.00    +0.015 A 
ATOM      4  C   UNL     1       9.611  -1.636  23.465  0.00  0.00    +0.037 A 
ATOM      5  C   UNL     1      10.016  -0.537  24.226  0.00  0.00    +0.015 A 
ATOM      6  C   UNL     1      10.191   0.710  23.617  0.00  0.00    +0.023 A 
ENDROOT
BRANCH   4   7
ATOM      7  C   UNL     1       9.407  -2.940  24.147  0.00  0.00    +0.245 C 
ATOM      8  N   UNL     1       8.165  -3.145  24.717  0.00  0.00    -0.301 N 
ATOM      9  H   UNL     1       7.405  -2.549  24.409  0.00  0.00    +0.150 HD
ATOM     10  O   UNL     1      10.304  -3.771  24.196  0.00  0.00    -0.270 OA
BRANCH   8  11
ATOM     11  C   UNL     1       7.792  -4.473  25.219  0.00  0.00    +0.225 C 
BRANCH  11  12
ATOM     12  C   UNL     1       8.056  -4.648  26.713  0.00  0.00    +0.322 C 
ATOM     13  O   UNL     1       7.185  -4.598  27.569  0.00  0.00    -0.249 OA
BRANCH  12  14
ATOM     14  O   UNL     1       9.366  -4.818  27.016  0.00  0.00    -0.480 OA
ATOM     15  H   UNL     1       9.893  -4.156  26.525  0.00  0.00    +0.295 HD
ENDBRANCH  12  14
ENDBRANCH  11  12
ENDBRANCH   8  11
ENDBRANCH   4   7
BRANCH   1  16
ATOM     16  N   UNL     1      10.037   2.143  21.670  0.00  0.00    -0.358 N 
ATOM     17  H   UNL     1      10.973   2.475  21.455  0.00  0.00    +0.142 HD
ATOM     18  H   UNL     1       9.485   2.839  22.162  0.00  0.00    +0.142 HD
ENDBRANCH   1  16
TORSDOF 5
ENDMDL
MODEL 2
REMARK VINA RESULT:      -5.8      0.114      1.293
REMARK  Name = 
REMARK  5 active torsions:
REMARK  status: ('A' for Active; 'I' for Inactive)
REMARK    1  A    between atoms: N_1  and  C_2
REMARK    2  A    between atoms: C_5  and  C_8
REMARK    3  A    between atoms: N_10  and  C_11
REMARK    4  A    between atoms: C_11  and  C_12
REMARK    5  A    between atoms: C_12  and  O_13
REMARK                            x       y       z     vdW  Elec       q    Type
REMARK                         _______ _______ _______ _____ _____    ______ ____
ROOT
ATOM      1  C   UNL     1       9.879   0.983  22.297  0.00  0.00    +0.025 A 
ATOM      2  C   UNL     1      10.212   0.815  23.645  0.00  0.00    +0.023 A 
ATOM      3  C   UNL     1      10.038  -0.420  24.278  0.00  0.00    +0.015 A 
ATOM      4  C   UNL     1       9.565  -1.516  23.550  0.00  0.00    +0.037 A 
ATOM      5  C   UNL     1       9.300  -1.375  22.186  0.00  0.00    +0.015 A 
ATOM      6  C   UNL     1       9.472  -0.134  21.564  0.00  0.00    +0.023 A 
ENDROOT
BRANCH   4   7
ATOM      7  C   UNL     1       9.399  -2.854  24.174  0.00  0.00    +0.245 C 
ATOM      8  N   UNL     1       8.175  -3.109  24.762  0.00  0.00    -0.301 N 
ATOM      9  H   UNL     1       7.398  -2.513  24.502  0.00  0.00    +0.150 HD
ATOM     10  O   UNL     1      10.312  -3.670  24.162  0.00  0.00    -0.270 OA
BRANCH   8  11
ATOM     11  C   UNL     1       7.838  -4.465  25.209  0.00  0.00    +0.225 C 
BRANCH  11  12
ATOM     12  C   UNL     1       8.103  -4.694  26.695  0.00  0.00    +0.322 C 
ATOM     13  O   UNL     1       7.230  -4.686  27.552  0.00  0.00    -0.249 OA
BRANCH  12  14
ATOM     14  O   UNL     1       9.414  -4.860  26.993  0.00  0.00    -0.480 OA
ATOM     15  H   UNL     1       9.488  -5.365  27.828  0.00  0.00    +0.295 HD
ENDBRANCH  12  14
ENDBRANCH  11  12
ENDBRANCH   8  11
ENDBRANCH   4   7
BRANCH   1  16
ATOM     16  N   UNL     1      10.181   2.181  21.643  0.00  0.00    -0.358 N 
ATOM     17  H   UNL     1       9.644   2.343  20.797  0.00  0.00    +0.142 HD
ATOM     18  H   UNL     1      11.174   2.341  21.505  0.00  0.00    +0.142 HD
ENDBRANCH   1  16
TORSDOF 5
ENDMDL
MODEL 3
REMARK VINA RESULT:      -5.6      2.164      2.681
REMARK  Name = 
REMARK  5 active torsions:
REMARK  status: ('A' for Active; 'I' for Inactive)
REMARK    1  A    between atoms: N_1  and  C_2
REMARK    2  A    between atoms: C_5  and  C_8
REMARK    3  A    between atoms: N_10  and  C_11
REMARK    4  A    between atoms: C_11  and  C_12
REMARK    5  A    between atoms: C_12  and  O_13
REMARK                            x       y       z     vdW  Elec       q    Type
REMARK                         _______ _______ _______ _____ _____    ______ ____
ROOT
ATOM      1  C   UNL     1       9.978   0.809  22.189  0.00  0.00    +0.025 A 
ATOM      2  C   UNL     1       9.384  -0.135  21.347  0.00  0.00    +0.023 A 
ATOM      3  C   UNL     1       9.103  -1.428  21.803  0.00  0.00    +0.015 A 
ATOM      4  C   UNL     1       9.379  -1.773  23.130  0.00  0.00    +0.037 A 
ATOM      5  C   UNL     1       9.904  -0.813  23.998  0.00  0.00    +0.015 A 
ATOM      6  C   UNL     1      10.186   0.475  23.530  0.00  0.00    +0.023 A 
ENDROOT
BRANCH   4   7
ATOM      7  C   UNL     1       9.064  -3.123  23.666  0.00  0.00    +0.245 C 
ATOM      8  N   UNL     1       7.812  -3.625  23.364  0.00  0.00    -0.301 N 
ATOM      9  H   UNL     1       7.309  -3.196  22.596  0.00  0.00    +0.150 HD
ATOM     10  O   UNL     1       9.880  -3.737  24.340  0.00  0.00    -0.270 OA
BRANCH   8  11
ATOM     11  C   UNL     1       7.487  -5.025  23.658  0.00  0.00    +0.225 C 
BRANCH  11  12
ATOM     12  C   UNL     1       6.878  -5.765  22.469  0.00  0.00    +0.322 C 
ATOM     13  O   UNL     1       7.318  -5.704  21.330  0.00  0.00    -0.249 OA
BRANCH  12  14
ATOM     14  O   UNL     1       5.761  -6.465  22.781  0.00  0.00    -0.480 OA
ATOM     15  H   UNL     1       4.992  -5.860  22.768  0.00  0.00    +0.295 HD
ENDBRANCH  12  14
ENDBRANCH  11  12
ENDBRANCH   8  11
ENDBRANCH   4   7
BRANCH   1  16
ATOM     16  N   UNL     1      10.130   2.132  21.764  0.00  0.00    -0.358 N 
ATOM     17  H   UNL     1       9.561   2.804  22.270  0.00  0.00    +0.142 HD
ATOM     18  H   UNL     1      10.067   2.256  20.758  0.00  0.00    +0.142 HD
ENDBRANCH   1  16
TORSDOF 5
ENDMDL
MODEL 4
REMARK VINA RESULT:      -5.3      1.532      2.207
REMARK  Name = 
REMARK  5 active torsions:
REMARK  status: ('A' for Active; 'I' for Inactive)
REMARK    1  A    between atoms: N_1  and  C_2
REMARK    2  A    between atoms: C_5  and  C_8
REMARK    3  A    between atoms: N_10  and  C_11
REMARK    4  A    between atoms: C_11  and  C_12
REMARK    5  A    between atoms: C_12  and  O_13
REMARK                            x       y       z     vdW  Elec       q    Type
REMARK                         _______ _______ _______ _____ _____    ______ ____
ROOT
ATOM      1  C   UNL     1      10.329   2.369  23.098  0.00  0.00    +0.025 A 
ATOM      2  C   UNL     1      10.527   1.661  24.287  0.00  0.00    +0.023 A 
ATOM      3  C   UNL     1      10.283   0.285  24.352  0.00  0.00    +0.015 A 
ATOM      4  C   UNL     1       9.875  -0.406  23.206  0.00  0.00    +0.037 A 
ATOM      5  C   UNL     1       9.746   0.281  21.997  0.00  0.00    +0.015 A 
ATOM      6  C   UNL     1       9.987   1.658  21.944  0.00  0.00    +0.023 A 
ENDROOT
BRANCH   4   7
ATOM      7  C   UNL     1       9.640  -1.873  23.222  0.00  0.00    +0.245 C 
ATOM      8  N   UNL     1       8.334  -2.282  23.416  0.00  0.00    -0.301 N 
ATOM      9  H   UNL     1       7.601  -1.598  23.259  0.00  0.00    +0.150 HD
ATOM     10  O   UNL     1      10.566  -2.659  23.075  0.00  0.00    -0.270 OA
BRANCH   8  11
ATOM     11  C   UNL     1       7.966  -3.690  23.231  0.00  0.00    +0.225 C 
BRANCH  11  12
ATOM     12  C   UNL     1       8.200  -4.542  24.477  0.00  0.00    +0.322 C 
ATOM     13  O   UNL     1       7.406  -4.628  25.403  0.00  0.00    -0.249 OA
BRANCH  12  14
ATOM     14  O   UNL     1       9.402  -5.166  24.488  0.00  0.00    -0.480 OA
ATOM     15  H   UNL     1       9.452  -5.744  25.276  0.00  0.00    +0.295 HD
ENDBRANCH  12  14
ENDBRANCH  11  12
ENDBRANCH   8  11
ENDBRANCH   4   7
BRANCH   1  16
ATOM     16  N   UNL     1      10.702   3.713  23.010  0.00  0.00    -0.358 N 
ATOM     17  H   UNL     1      10.998   4.006  22.084  0.00  0.00    +0.142 HD
ATOM     18  H   UNL     1      11.349   4.013  23.733  0.00  0.00    +0.142 HD
ENDBRANCH   1  16
TORSDOF 5
ENDMDL
MODEL 5
REMARK VINA RESULT:      -5.3      2.534      3.107
REMARK  Name = 
REMARK  5 active torsions:
REMARK  status: ('A' for Active; 'I' for Inactive)
REMARK    1  A    between atoms: N_1  and  C_2
REMARK    2  A    between atoms: C_5  and  C_8
REMARK    3  A    between atoms: N_10  and  C_11
REMARK    4  A    between atoms: C_11  and  C_12
REMARK    5  A    between atoms: C_12  and  O_13
REMARK                            x       y       z     vdW  Elec       q    Type
REMARK                         _______ _______ _______ _____ _____    ______ ____
ROOT
ATOM      1  C   UNL     1      10.413   1.955  23.002  0.00  0.00    +0.025 A 
ATOM      2  C   UNL     1       9.861   1.301  21.896  0.00  0.00    +0.023 A 
ATOM      3  C   UNL     1       9.502  -0.049  21.966  0.00  0.00    +0.015 A 
ATOM      4  C   UNL     1       9.656  -0.750  23.167  0.00  0.00    +0.037 A 
ATOM      5  C   UNL     1      10.137  -0.084  24.297  0.00  0.00    +0.015 A 
ATOM      6  C   UNL     1      10.498   1.265  24.214  0.00  0.00    +0.023 A 
ENDROOT
BRANCH   4   7
ATOM      7  C   UNL     1       9.255  -2.174  23.296  0.00  0.00    +0.245 C 
ATOM      8  N   UNL     1       7.993  -2.499  22.837  0.00  0.00    -0.301 N 
ATOM      9  H   UNL     1       7.540  -1.844  22.208  0.00  0.00    +0.150 HD
ATOM     10  O   UNL     1      10.013  -2.998  23.789  0.00  0.00    -0.270 OA
BRANCH   8  11
ATOM     11  C   UNL     1       7.588  -3.904  22.718  0.00  0.00    +0.225 C 
BRANCH  11  12
ATOM     12  C   UNL     1       6.405  -4.114  21.776  0.00  0.00    +0.322 C 
ATOM     13  O   UNL     1       5.480  -3.323  21.658  0.00  0.00    -0.249 OA
BRANCH  12  14
ATOM     14  O   UNL     1       6.444  -5.293  21.110  0.00  0.00    -0.480 OA
ATOM     15  H   UNL     1       5.818  -5.916  21.530  0.00  0.00    +0.295 HD
ENDBRANCH  12  14
ENDBRANCH  11  12
ENDBRANCH   8  11
ENDBRANCH   4   7
BRANCH   1  16
ATOM     16  N   UNL     1      10.642   3.333  22.961  0.00  0.00    -0.358 N 
ATOM     17  H   UNL     1      11.058   3.663  22.095  0.00  0.00    +0.142 HD
ATOM     18  H   UNL     1      11.117   3.701  23.779  0.00  0.00    +0.142 HD
ENDBRANCH   1  16
TORSDOF 5
ENDMDL
MODEL 6
REMARK VINA RESULT:      -5.3      1.851      2.186
REMARK  Name = 
REMARK  5 active torsions:
REMARK  status: ('A' for Active; 'I' for Inactive)
REMARK    1  A    between atoms: N_1  and  C_2
REMARK    2  A    between atoms: C_5  and  C_8
REMARK    3  A    between atoms: N_10  and  C_11
REMARK    4  A    between atoms: C_11  and  C_12
REMARK    5  A    between atoms: C_12  and  O_13
REMARK                            x       y       z     vdW  Elec       q    Type
REMARK                         _______ _______ _______ _____ _____    ______ ____
ROOT
ATOM      1  C   UNL     1       8.735   1.147  21.927  0.00  0.00    +0.025 A 
ATOM      2  C   UNL     1       7.625   0.806  22.706  0.00  0.00    +0.023 A 
ATOM      3  C   UNL     1       7.287  -0.533  22.927  0.00  0.00    +0.015 A 
ATOM      4  C   UNL     1       8.089  -1.550  22.399  0.00  0.00    +0.037 A 
ATOM      5  C   UNL     1       9.241  -1.218  21.682  0.00  0.00    +0.015 A 
ATOM      6  C   UNL     1       9.566   0.125  21.462  0.00  0.00    +0.023 A 
ENDROOT
BRANCH   4   7
ATOM      7  C   UNL     1       7.788  -2.985  22.639  0.00  0.00    +0.245 C 
ATOM      8  N   UNL     1       8.452  -3.583  23.693  0.00  0.00    -0.301 N 
ATOM      9  H   UNL     1       8.870  -2.974  24.388  0.00  0.00    +0.150 HD
ATOM     10  O   UNL     1       6.995  -3.588  21.927  0.00  0.00    -0.270 OA
BRANCH   8  11
ATOM     11  C   UNL     1       8.065  -4.924  24.145  0.00  0.00    +0.225 C 
BRANCH  11  12
ATOM     12  C   UNL     1       8.891  -5.422  25.329  0.00  0.00    +0.322 C 
ATOM     13  O   UNL     1       8.408  -5.774  26.396  0.00  0.00    -0.249 OA
BRANCH  12  14
ATOM     14  O   UNL     1      10.227  -5.394  25.108  0.00  0.00    -0.480 OA
ATOM     15  H   UNL     1      10.433  -4.654  24.503  0.00  0.00    +0.295 HD
ENDBRANCH  12  14
ENDBRANCH  11  12
ENDBRANCH   8  11
ENDBRANCH   4   7
BRANCH   1  16
ATOM     16  N   UNL     1       9.138   2.482  21.824  0.00  0.00    -0.358 N 
ATOM     17  H   UNL     1       9.964   2.627  21.252  0.00  0.00    +0.142 HD
ATOM     18  H   UNL     1       9.196   2.969  22.713  0.00  0.00    +0.142 HD
ENDBRANCH   1  16
TORSDOF 5
ENDMDL
MODEL 7
REMARK VINA RESULT:      -5.2      2.991      3.543
REMARK  Name = 
REMARK  5 active torsions:
REMARK  status: ('A' for Active; 'I' for Inactive)
REMARK    1  A    between atoms: N_1  and  C_2
REMARK    2  A    between atoms: C_5  and  C_8
REMARK    3  A    between atoms: N_10  and  C_11
REMARK    4  A    between atoms: C_11  and  C_12
REMARK    5  A    between atoms: C_12  and  O_13
REMARK                            x       y       z     vdW  Elec       q    Type
REMARK                         _______ _______ _______ _____ _____    ______ ____
ROOT
ATOM      1  C   UNL     1       8.680   1.103  21.854  0.00  0.00    +0.025 A 
ATOM      2  C   UNL     1       7.568   0.694  22.597  0.00  0.00    +0.023 A 
ATOM      3  C   UNL     1       7.390  -0.650  22.940  0.00  0.00    +0.015 A 
ATOM      4  C   UNL     1       8.354  -1.596  22.575  0.00  0.00    +0.037 A 
ATOM      5  C   UNL     1       9.504  -1.183  21.898  0.00  0.00    +0.015 A 
ATOM      6  C   UNL     1       9.669   0.163  21.554  0.00  0.00    +0.023 A 
ENDROOT
BRANCH   4   7
ATOM      7  C   UNL     1       8.222  -3.028  22.951  0.00  0.00    +0.245 C 
ATOM      8  N   UNL     1       7.125  -3.697  22.441  0.00  0.00    -0.301 N 
ATOM      9  H   UNL     1       6.649  -3.279  21.650  0.00  0.00    +0.150 HD
ATOM     10  O   UNL     1       9.048  -3.565  23.677  0.00  0.00    -0.270 OA
BRANCH   8  11
ATOM     11  C   UNL     1       7.023  -5.154  22.572  0.00  0.00    +0.225 C 
BRANCH  11  12
ATOM     12  C   UNL     1       5.978  -5.771  21.644  0.00  0.00    +0.322 C 
ATOM     13  O   UNL     1       5.992  -5.651  20.427  0.00  0.00    -0.249 OA
BRANCH  12  14
ATOM     14  O   UNL     1       4.993  -6.430  22.299  0.00  0.00    -0.480 OA
ATOM     15  H   UNL     1       4.377  -6.815  21.643  0.00  0.00    +0.295 HD
ENDBRANCH  12  14
ENDBRANCH  11  12
ENDBRANCH   8  11
ENDBRANCH   4   7
BRANCH   1  16
ATOM     16  N   UNL     1       8.914   2.463  21.632  0.00  0.00    -0.358 N 
ATOM     17  H   UNL     1       9.550   2.893  22.299  0.00  0.00    +0.142 HD
ATOM     18  H   UNL     1       8.073   3.014  21.494  0.00  0.00    +0.142 HD
ENDBRANCH   1  16
TORSDOF 5
ENDMDL
MODEL 8
REMARK VINA RESULT:      -5.2      2.741      5.960
REMARK  Name = 
REMARK  5 active torsions:
REMARK  status: ('A' for Active; 'I' for Inactive)
REMARK    1  A    between atoms: N_1  and  C_2
REMARK    2  A    between atoms: C_5  and  C_8
REMARK    3  A    between atoms: N_10  and  C_11
REMARK    4  A    between atoms: C_11  and  C_12
REMARK    5  A    between atoms: C_12  and  O_13
REMARK                            x       y       z     vdW  Elec       q    Type
REMARK                         _______ _______ _______ _____ _____    ______ ____
ROOT
ATOM      1  C   UNL     1       8.137  -4.865  26.389  0.00  0.00    +0.025 A 
ATOM      2  C   UNL     1       9.157  -5.257  25.517  0.00  0.00    +0.023 A 
ATOM      3  C   UNL     1       9.737  -4.341  24.633  0.00  0.00    +0.015 A 
ATOM      4  C   UNL     1       9.324  -3.004  24.645  0.00  0.00    +0.037 A 
ATOM      5  C   UNL     1       8.357  -2.589  25.564  0.00  0.00    +0.015 A 
ATOM      6  C   UNL     1       7.780  -3.515  26.440  0.00  0.00    +0.023 A 
ENDROOT
BRANCH   4   7
ATOM      7  C   UNL     1       9.937  -1.990  23.748  0.00  0.00    +0.245 C 
ATOM      8  N   UNL     1       9.672  -0.667  24.047  0.00  0.00    -0.301 N 
ATOM      9  H   UNL     1       9.329  -0.458  24.978  0.00  0.00    +0.150 HD
ATOM     10  O   UNL     1      10.631  -2.329  22.799  0.00  0.00    -0.270 OA
BRANCH   8  11
ATOM     11  C   UNL     1      10.401   0.405  23.362  0.00  0.00    +0.225 C 
BRANCH  11  12
ATOM     12  C   UNL     1       9.661   0.955  22.144  0.00  0.00    +0.322 C 
ATOM     13  O   UNL     1       8.712   0.394  21.613  0.00  0.00    -0.249 OA
BRANCH  12  14
ATOM     14  O   UNL     1      10.184   2.110  21.667  0.00  0.00    -0.480 OA
ATOM     15  H   UNL     1       9.752   2.326  20.816  0.00  0.00    +0.295 HD
ENDBRANCH  12  14
ENDBRANCH  11  12
ENDBRANCH   8  11
ENDBRANCH   4   7
BRANCH   1  16
ATOM     16  N   UNL     1       7.660  -5.754  27.356  0.00  0.00    -0.358 N 
ATOM     17  H   UNL     1       7.673  -5.389  28.304  0.00  0.00    +0.142 HD
ATOM     18  H   UNL     1       8.059  -6.686  27.298  0.00  0.00    +0.142 HD
ENDBRANCH   1  16
TORSDOF 5
ENDMDL
MODEL 9
REMARK VINA RESULT:      -5.1      2.335      6.097
REMARK  Name = 
REMARK  5 active torsions:
REMARK  status: ('A' for Active; 'I' for Inactive)
REMARK    1  A    between atoms: N_1  and  C_2
REMARK    2  A    between atoms: C_5  and  C_8
REMARK    3  A    between atoms: N_10  and  C_11
REMARK    4  A    between atoms: C_11  and  C_12
REMARK    5  A    between atoms: C_12  and  O_13
REMARK                            x       y       z     vdW  Elec       q    Type
REMARK                         _______ _______ _______ _____ _____    ______ ____
ROOT
ATOM      1  C   UNL     1       6.413  -5.659  26.320  0.00  0.00    +0.025 A 
ATOM      2  C   UNL     1       6.195  -5.322  24.980  0.00  0.00    +0.023 A 
ATOM      3  C   UNL     1       7.045  -4.431  24.317  0.00  0.00    +0.015 A 
ATOM      4  C   UNL     1       8.154  -3.899  24.984  0.00  0.00    +0.037 A 
ATOM      5  C   UNL     1       8.420  -4.288  26.299  0.00  0.00    +0.015 A 
ATOM      6  C   UNL     1       7.559  -5.175  26.954  0.00  0.00    +0.023 A 
ENDROOT
BRANCH   4   7
ATOM      7  C   UNL     1       9.103  -2.977  24.307  0.00  0.00    +0.245 C 
ATOM      8  N   UNL     1       8.633  -1.707  24.033  0.00  0.00    -0.301 N 
ATOM      9  H   UNL     1       7.812  -1.393  24.537  0.00  0.00    +0.150 HD
ATOM     10  O   UNL     1      10.232  -3.345  24.010  0.00  0.00    -0.270 OA
BRANCH   8  11
ATOM     11  C   UNL     1       9.554  -0.663  23.569  0.00  0.00    +0.225 C 
BRANCH  11  12
ATOM     12  C   UNL     1       9.622  -0.552  22.048  0.00  0.00    +0.322 C 
ATOM     13  O   UNL     1       9.112   0.356  21.407  0.00  0.00    -0.249 OA
BRANCH  12  14
ATOM     14  O   UNL     1      10.264  -1.588  21.457  0.00  0.00    -0.480 OA
ATOM     15  H   UNL     1       9.733  -1.899  20.696  0.00  0.00    +0.295 HD
ENDBRANCH  12  14
ENDBRANCH  11  12
ENDBRANCH   8  11
ENDBRANCH   4   7
BRANCH   1  16
ATOM     16  N   UNL     1       5.637  -6.649  26.930  0.00  0.00    -0.358 N 
ATOM     17  H   UNL     1       4.637  -6.473  26.904  0.00  0.00    +0.142 HD
ATOM     18  H   UNL     1       5.956  -6.916  27.856  0.00  0.00    +0.142 HD
ENDBRANCH   1  16
TORSDOF 5
ENDMDL
