MODEL 1
REMARK VINA RESULT:      -7.7      0.000      0.000
REMARK  Name = 
REMARK  7 active torsions:
REMARK  status: ('A' for Active; 'I' for Inactive)
REMARK    1  A    between atoms: C_1  and  C_2
REMARK    2  A    between atoms: C_5  and  N_6
REMARK    3  A    between atoms: N_6  and  C_7
REMARK    4  A    between atoms: C_9  and  C_13
REMARK    5  A    between atoms: C_20  and  N_21
REMARK    6  A    between atoms: N_21  and  S_22
REMARK    7  A    between atoms: S_22  and  C_23
REMARK                            x       y       z     vdW  Elec       q    Type
REMARK                         _______ _______ _______ _____ _____    ______ ____
ROOT
ATOM      1  N   UNL     1       9.977  -2.941  24.166  0.00  0.00    -0.299 N 
ATOM      2  H   UNL     1      10.890  -3.096  24.570  0.00  0.00    +0.154 HD
ENDROOT
BRANCH   1   7
ATOM      3  C   UNL     1       5.785  -6.094  26.484  0.00  0.00    +0.046 C 
ATOM      4  C   UNL     1       6.914  -5.380  25.800  0.00  0.00    -0.028 A 
ATOM      5  C   UNL     1       6.885  -5.034  24.443  0.00  0.00    +0.052 A 
ATOM      6  C   UNL     1       7.917  -4.267  23.895  0.00  0.00    +0.048 A 
ATOM      7  C   UNL     1       8.976  -3.792  24.671  0.00  0.00    +0.034 A 
ATOM      8  C   UNL     1       9.033  -4.191  26.010  0.00  0.00    +0.023 A 
ATOM      9  C   UNL     1       8.012  -4.964  26.572  0.00  0.00    +0.007 A 
BRANCH   5  10
ATOM     10  N   UNL     1       5.814  -5.409  23.569  0.00  0.00    -0.221 N 
ATOM     11  H   UNL     1       6.063  -6.003  22.781  0.00  0.00    +0.173 HD
BRANCH  10  12
ATOM     12  S   UNL     1       4.711  -4.225  23.088  0.00  0.00    +0.040 S 
ATOM     13  O   UNL     1       3.448  -4.925  22.932  0.00  0.00    -0.155 OA
ATOM     14  O   UNL     1       5.266  -3.454  21.999  0.00  0.00    -0.155 OA
ATOM     15  C   UNL     1       4.566  -3.186  24.532  0.00  0.00    +0.218 C 
ENDBRANCH  10  12
ENDBRANCH   5  10
ENDBRANCH   1   7
BRANCH   1  16
ATOM     16  C   UNL     1       9.870  -1.760  23.404  0.00  0.00    +0.127 A 
ATOM     17  N   UNL     1       9.806  -1.811  22.062  0.00  0.00    -0.221 NA
ATOM     18  C   UNL     1       9.597  -0.657  21.420  0.00  0.00    +0.223 A 
ATOM     19  N   UNL     1       9.433   0.540  21.988  0.00  0.00    -0.235 NA
ATOM     20  C   UNL     1       9.507   0.582  23.334  0.00  0.00    +0.076 A 
ATOM     21  C   UNL     1       9.747  -0.559  24.080  0.00  0.00    +0.072 A 
BRANCH  20  22
ATOM     22  C   UNL     1       9.228   1.896  23.951  0.00  0.00    +0.001 A 
ATOM     23  C   UNL     1       9.930   3.040  23.527  0.00  0.00    +0.010 A 
ATOM     24  C   UNL     1       9.653   4.305  24.049  0.00  0.00    +0.001 A 
ATOM     25  C   UNL     1       8.664   4.456  25.014  0.00  0.00    +0.000 A 
ATOM     26  C   UNL     1       7.967   3.339  25.470  0.00  0.00    +0.001 A 
ATOM     27  C   UNL     1       8.250   2.073  24.948  0.00  0.00    +0.010 A 
ENDBRANCH  20  22
ENDBRANCH   1  16
TORSDOF 5
ENDMDL
MODEL 2
REMARK VINA RESULT:      -7.4      1.671      2.091
REMARK  Name = 
REMARK  7 active torsions:
REMARK  status: ('A' for Active; 'I' for Inactive)
REMARK    1  A    between atoms: C_1  and  C_2
REMARK    2  A    between atoms: C_5  and  N_6
REMARK    3  A    between atoms: N_6  and  C_7
REMARK    4  A    between atoms: C_9  and  C_13
REMARK    5  A    between atoms: C_20  and  N_21
REMARK    6  A    between atoms: N_21  and  S_22
REMARK    7  A    between atoms: S_22  and  C_23
REMARK                            x       y       z     vdW  Elec       q    Type
REMARK                         _______ _______ _______ _____ _____    ______ ____
ROOT
ATOM      1  N   UNL     1      10.054  -1.338  24.468  0.00  0.00    -0.299 N 
ATOM      2  H   UNL     1      10.851  -1.310  25.089  0.00  0.00    +0.154 HD
ENDROOT
BRANCH   1   7
ATOM      3  C   UNL     1       5.743  -4.804  25.980  0.00  0.00    +0.046 C 
ATOM      4  C   UNL     1       6.956  -4.006  25.603  0.00  0.00    -0.028 A 
ATOM      5  C   UNL     1       7.686  -4.238  24.430  0.00  0.00    +0.052 A 
ATOM      6  C   UNL     1       8.735  -3.384  24.079  0.00  0.00    +0.048 A 
ATOM      7  C   UNL     1       9.066  -2.266  24.847  0.00  0.00    +0.034 A 
ATOM      8  C   UNL     1       8.376  -2.073  26.048  0.00  0.00    +0.023 A 
ATOM      9  C   UNL     1       7.328  -2.923  26.417  0.00  0.00    +0.007 A 
BRANCH   5  10
ATOM     10  N   UNL     1       7.390  -5.314  23.532  0.00  0.00    -0.221 N 
ATOM     11  H   UNL     1       8.174  -5.906  23.265  0.00  0.00    +0.173 HD
BRANCH  10  12
ATOM     12  S   UNL     1       6.405  -5.005  22.197  0.00  0.00    +0.040 S 
ATOM     13  O   UNL     1       6.989  -5.772  21.110  0.00  0.00    -0.155 OA
ATOM     14  O   UNL     1       6.193  -3.581  22.064  0.00  0.00    -0.155 OA
ATOM     15  C   UNL     1       4.863  -5.792  22.632  0.00  0.00    +0.218 C 
ENDBRANCH  10  12
ENDBRANCH   5  10
ENDBRANCH   1   7
BRANCH   1  16
ATOM     16  C   UNL     1      10.002  -0.280  23.540  0.00  0.00    +0.127 A 
ATOM     17  N   UNL     1       9.520  -0.474  22.301  0.00  0.00    -0.221 NA
ATOM     18  C   UNL     1       9.404   0.604  21.518  0.00  0.00    +0.223 A 
ATOM     19  N   UNL     1       9.711   1.857  21.856  0.00  0.00    -0.235 NA
ATOM     20  C   UNL     1      10.202   2.042  23.098  0.00  0.00    +0.076 A 
ATOM     21  C   UNL     1      10.381   0.981  23.969  0.00  0.00    +0.072 A 
BRANCH  20  22
ATOM     22  C   UNL     1      10.447   3.446  23.490  0.00  0.00    +0.001 A 
ATOM     23  C   UNL     1      11.715   4.026  23.289  0.00  0.00    +0.010 A 
ATOM     24  C   UNL     1      11.965   5.365  23.596  0.00  0.00    +0.001 A 
ATOM     25  C   UNL     1      10.950   6.158  24.116  0.00  0.00    +0.000 A 
ATOM     26  C   UNL     1       9.691   5.608  24.347  0.00  0.00    +0.001 A 
ATOM     27  C   UNL     1       9.445   4.265  24.042  0.00  0.00    +0.010 A 
ENDBRANCH  20  22
ENDBRANCH   1  16
TORSDOF 5
ENDMDL
MODEL 3
REMARK VINA RESULT:      -7.1      2.684      3.283
REMARK  Name = 
REMARK  7 active torsions:
REMARK  status: ('A' for Active; 'I' for Inactive)
REMARK    1  A    between atoms: C_1  and  C_2
REMARK    2  A    between atoms: C_5  and  N_6
REMARK    3  A    between atoms: N_6  and  C_7
REMARK    4  A    between atoms: C_9  and  C_13
REMARK    5  A    between atoms: C_20  and  N_21
REMARK    6  A    between atoms: N_21  and  S_22
REMARK    7  A    between atoms: S_22  and  C_23
REMARK                            x       y       z     vdW  Elec       q    Type
REMARK                         _______ _______ _______ _____ _____    ______ ____
ROOT
ATOM      1  N   UNL     1       8.346  -1.614  22.314  0.00  0.00    -0.299 N 
ATOM      2  H   UNL     1       8.681  -1.795  21.378  0.00  0.00    +0.154 HD
ENDROOT
BRANCH   1   7
ATOM      3  C   UNL     1       4.933  -5.895  24.020  0.00  0.00    +0.046 C 
ATOM      4  C   UNL     1       5.813  -4.722  23.701  0.00  0.00    -0.028 A 
ATOM      5  C   UNL     1       7.083  -4.547  24.268  0.00  0.00    +0.052 A 
ATOM      6  C   UNL     1       7.899  -3.496  23.842  0.00  0.00    +0.048 A 
ATOM      7  C   UNL     1       7.508  -2.621  22.827  0.00  0.00    +0.034 A 
ATOM      8  C   UNL     1       6.217  -2.761  22.308  0.00  0.00    +0.023 A 
ATOM      9  C   UNL     1       5.384  -3.804  22.729  0.00  0.00    +0.007 A 
BRANCH   5  10
ATOM     10  N   UNL     1       7.614  -5.425  25.267  0.00  0.00    -0.221 N 
ATOM     11  H   UNL     1       7.289  -6.390  25.237  0.00  0.00    +0.173 HD
BRANCH  10  12
ATOM     12  S   UNL     1       7.697  -4.881  26.862  0.00  0.00    +0.040 S 
ATOM     13  O   UNL     1       8.955  -4.160  26.952  0.00  0.00    -0.155 OA
ATOM     14  O   UNL     1       7.405  -5.971  27.766  0.00  0.00    -0.155 OA
ATOM     15  C   UNL     1       6.386  -3.673  26.954  0.00  0.00    +0.218 C 
ENDBRANCH  10  12
ENDBRANCH   5  10
ENDBRANCH   1   7
BRANCH   1  16
ATOM     16  C   UNL     1       8.996  -0.548  22.968  0.00  0.00    +0.127 A 
ATOM     17  N   UNL     1      10.165  -0.738  23.601  0.00  0.00    -0.221 NA
ATOM     18  C   UNL     1      10.768   0.345  24.102  0.00  0.00    +0.223 A 
ATOM     19  N   UNL     1      10.324   1.600  24.020  0.00  0.00    -0.235 NA
ATOM     20  C   UNL     1       9.145   1.781  23.390  0.00  0.00    +0.076 A 
ATOM     21  C   UNL     1       8.437   0.715  22.863  0.00  0.00    +0.072 A 
BRANCH  20  22
ATOM     22  C   UNL     1       8.714   3.185  23.224  0.00  0.00    +0.001 A 
ATOM     23  C   UNL     1       9.425   4.223  23.858  0.00  0.00    +0.010 A 
ATOM     24  C   UNL     1       9.079   5.563  23.678  0.00  0.00    +0.001 A 
ATOM     25  C   UNL     1       8.008   5.899  22.859  0.00  0.00    +0.000 A 
ATOM     26  C   UNL     1       7.272   4.894  22.235  0.00  0.00    +0.001 A 
ATOM     27  C   UNL     1       7.618   3.552  22.421  0.00  0.00    +0.010 A 
ENDBRANCH  20  22
ENDBRANCH   1  16
TORSDOF 5
ENDMDL
MODEL 4
REMARK VINA RESULT:      -7.1      1.215      1.906
REMARK  Name = 
REMARK  7 active torsions:
REMARK  status: ('A' for Active; 'I' for Inactive)
REMARK    1  A    between atoms: C_1  and  C_2
REMARK    2  A    between atoms: C_5  and  N_6
REMARK    3  A    between atoms: N_6  and  C_7
REMARK    4  A    between atoms: C_9  and  C_13
REMARK    5  A    between atoms: C_20  and  N_21
REMARK    6  A    between atoms: N_21  and  S_22
REMARK    7  A    between atoms: S_22  and  C_23
REMARK                            x       y       z     vdW  Elec       q    Type
REMARK                         _______ _______ _______ _____ _____    ______ ____
ROOT
ATOM      1  N   UNL     1       9.393  -1.627  25.436  0.00  0.00    -0.299 N 
ATOM      2  H   UNL     1       9.707  -1.260  26.324  0.00  0.00    +0.154 HD
ENDROOT
BRANCH   1   7
ATOM      3  C   UNL     1       5.757  -5.977  26.300  0.00  0.00    +0.046 C 
ATOM      4  C   UNL     1       6.718  -4.881  25.942  0.00  0.00    -0.028 A 
ATOM      5  C   UNL     1       6.384  -3.827  25.082  0.00  0.00    +0.052 A 
ATOM      6  C   UNL     1       7.284  -2.777  24.881  0.00  0.00    +0.048 A 
ATOM      7  C   UNL     1       8.510  -2.717  25.547  0.00  0.00    +0.034 A 
ATOM      8  C   UNL     1       8.866  -3.802  26.356  0.00  0.00    +0.023 A 
ATOM      9  C   UNL     1       7.979  -4.864  26.561  0.00  0.00    +0.007 A 
BRANCH   5  10
ATOM     10  N   UNL     1       5.127  -3.750  24.401  0.00  0.00    -0.221 N 
ATOM     11  H   UNL     1       4.306  -4.018  24.941  0.00  0.00    +0.173 HD
BRANCH  10  12
ATOM     12  S   UNL     1       5.020  -4.353  22.829  0.00  0.00    +0.040 S 
ATOM     13  O   UNL     1       5.289  -3.215  21.967  0.00  0.00    -0.155 OA
ATOM     14  O   UNL     1       3.803  -5.120  22.680  0.00  0.00    -0.155 OA
ATOM     15  C   UNL     1       6.424  -5.450  22.712  0.00  0.00    +0.218 C 
ENDBRANCH  10  12
ENDBRANCH   5  10
ENDBRANCH   1   7
BRANCH   1  16
ATOM     16  C   UNL     1       9.700  -0.812  24.328  0.00  0.00    +0.127 A 
ATOM     17  N   UNL     1       9.684  -1.312  23.081  0.00  0.00    -0.221 NA
ATOM     18  C   UNL     1       9.880  -0.448  22.079  0.00  0.00    +0.223 A 
ATOM     19  N   UNL     1      10.078   0.866  22.200  0.00  0.00    -0.235 NA
ATOM     20  C   UNL     1      10.100   1.357  23.456  0.00  0.00    +0.076 A 
ATOM     21  C   UNL     1       9.932   0.533  24.557  0.00  0.00    +0.072 A 
BRANCH  20  22
ATOM     22  C   UNL     1      10.224   2.825  23.569  0.00  0.00    +0.001 A 
ATOM     23  C   UNL     1       9.123   3.597  23.986  0.00  0.00    +0.010 A 
ATOM     24  C   UNL     1       9.221   4.980  24.158  0.00  0.00    +0.001 A 
ATOM     25  C   UNL     1      10.427   5.625  23.913  0.00  0.00    +0.000 A 
ATOM     26  C   UNL     1      11.528   4.892  23.479  0.00  0.00    +0.001 A 
ATOM     27  C   UNL     1      11.426   3.508  23.304  0.00  0.00    +0.010 A 
ENDBRANCH  20  22
ENDBRANCH   1  16
TORSDOF 5
ENDMDL
MODEL 5
REMARK VINA RESULT:      -7.0      2.817      7.396
REMARK  Name = 
REMARK  7 active torsions:
REMARK  status: ('A' for Active; 'I' for Inactive)
REMARK    1  A    between atoms: C_1  and  C_2
REMARK    2  A    between atoms: C_5  and  N_6
REMARK    3  A    between atoms: N_6  and  C_7
REMARK    4  A    between atoms: C_9  and  C_13
REMARK    5  A    between atoms: C_20  and  N_21
REMARK    6  A    between atoms: N_21  and  S_22
REMARK    7  A    between atoms: S_22  and  C_23
REMARK                            x       y       z     vdW  Elec       q    Type
REMARK                         _______ _______ _______ _____ _____    ______ ____
ROOT
ATOM      1  N   UNL     1       9.903  -3.301  24.132  0.00  0.00    -0.299 N 
ATOM      2  H   UNL     1      10.643  -3.808  23.668  0.00  0.00    +0.154 HD
ENDROOT
BRANCH   1   7
ATOM      3  C   UNL     1       9.075   2.054  22.253  0.00  0.00    +0.046 C 
ATOM      4  C   UNL     1       9.407   0.699  22.807  0.00  0.00    -0.028 A 
ATOM      5  C   UNL     1       9.360   0.403  24.175  0.00  0.00    +0.052 A 
ATOM      6  C   UNL     1       9.567  -0.907  24.615  0.00  0.00    +0.048 A 
ATOM      7  C   UNL     1       9.785  -1.959  23.724  0.00  0.00    +0.034 A 
ATOM      8  C   UNL     1       9.894  -1.649  22.364  0.00  0.00    +0.023 A 
ATOM      9  C   UNL     1       9.696  -0.341  21.909  0.00  0.00    +0.007 A 
BRANCH   5  10
ATOM     10  N   UNL     1       9.075   1.391  25.173  0.00  0.00    -0.221 N 
ATOM     11  H   UNL     1       9.745   1.467  25.936  0.00  0.00    +0.173 HD
BRANCH  10  12
ATOM     12  S   UNL     1       7.498   1.514  25.762  0.00  0.00    +0.040 S 
ATOM     13  O   UNL     1       7.484   0.719  26.978  0.00  0.00    -0.155 OA
ATOM     14  O   UNL     1       6.556   1.250  24.698  0.00  0.00    -0.155 OA
ATOM     15  C   UNL     1       7.372   3.227  26.247  0.00  0.00    +0.218 C 
ENDBRANCH  10  12
ENDBRANCH   5  10
ENDBRANCH   1   7
BRANCH   1  16
ATOM     16  C   UNL     1       9.015  -4.110  24.869  0.00  0.00    +0.127 A 
ATOM     17  N   UNL     1       9.276  -4.431  26.147  0.00  0.00    -0.221 NA
ATOM     18  C   UNL     1       8.333  -5.110  26.808  0.00  0.00    +0.223 A 
ATOM     19  N   UNL     1       7.150  -5.488  26.320  0.00  0.00    -0.235 NA
ATOM     20  C   UNL     1       6.900  -5.169  25.034  0.00  0.00    +0.076 A 
ATOM     21  C   UNL     1       7.829  -4.490  24.265  0.00  0.00    +0.072 A 
BRANCH  20  22
ATOM     22  C   UNL     1       5.550  -5.510  24.539  0.00  0.00    +0.001 A 
ATOM     23  C   UNL     1       4.913  -4.682  23.595  0.00  0.00    +0.010 A 
ATOM     24  C   UNL     1       3.662  -5.004  23.064  0.00  0.00    +0.001 A 
ATOM     25  C   UNL     1       3.015  -6.165  23.468  0.00  0.00    +0.000 A 
ATOM     26  C   UNL     1       3.610  -6.994  24.417  0.00  0.00    +0.001 A 
ATOM     27  C   UNL     1       4.861  -6.667  24.949  0.00  0.00    +0.010 A 
ENDBRANCH  20  22
ENDBRANCH   1  16
TORSDOF 5
ENDMDL
MODEL 6
REMARK VINA RESULT:      -7.0      2.549      3.007
REMARK  Name = 
REMARK  7 active torsions:
REMARK  status: ('A' for Active; 'I' for Inactive)
REMARK    1  A    between atoms: C_1  and  C_2
REMARK    2  A    between atoms: C_5  and  N_6
REMARK    3  A    between atoms: N_6  and  C_7
REMARK    4  A    between atoms: C_9  and  C_13
REMARK    5  A    between atoms: C_20  and  N_21
REMARK    6  A    between atoms: N_21  and  S_22
REMARK    7  A    between atoms: S_22  and  C_23
REMARK                            x       y       z     vdW  Elec       q    Type
REMARK                         _______ _______ _______ _____ _____    ______ ____
ROOT
ATOM      1  N   UNL     1       9.249  -3.417  24.826  0.00  0.00    -0.299 N 
ATOM      2  H   UNL     1       9.870  -3.663  25.584  0.00  0.00    +0.154 HD
ENDROOT
BRANCH   1   7
ATOM      3  C   UNL     1       4.482  -6.605  24.799  0.00  0.00    +0.046 C 
ATOM      4  C   UNL     1       5.648  -5.660  24.827  0.00  0.00    -0.028 A 
ATOM      5  C   UNL     1       6.054  -4.986  25.986  0.00  0.00    +0.052 A 
ATOM      6  C   UNL     1       7.217  -4.212  25.973  0.00  0.00    +0.048 A 
ATOM      7  C   UNL     1       8.025  -4.112  24.839  0.00  0.00    +0.034 A 
ATOM      8  C   UNL     1       7.584  -4.735  23.667  0.00  0.00    +0.023 A 
ATOM      9  C   UNL     1       6.418  -5.508  23.662  0.00  0.00    +0.007 A 
BRANCH   5  10
ATOM     10  N   UNL     1       5.340  -5.073  27.224  0.00  0.00    -0.221 N 
ATOM     11  H   UNL     1       5.087  -4.189  27.661  0.00  0.00    +0.173 HD
BRANCH  10  12
ATOM     12  S   UNL     1       5.870  -6.173  28.389  0.00  0.00    +0.040 S 
ATOM     13  O   UNL     1       7.321  -6.128  28.321  0.00  0.00    -0.155 OA
ATOM     14  O   UNL     1       5.164  -7.426  28.237  0.00  0.00    -0.155 OA
ATOM     15  C   UNL     1       5.388  -5.409  29.928  0.00  0.00    +0.218 C 
ENDBRANCH  10  12
ENDBRANCH   5  10
ENDBRANCH   1   7
BRANCH   1  16
ATOM     16  C   UNL     1       9.639  -2.272  24.102  0.00  0.00    +0.127 A 
ATOM     17  N   UNL     1      10.192  -2.384  22.883  0.00  0.00    -0.221 NA
ATOM     18  C   UNL     1      10.433  -1.248  22.219  0.00  0.00    +0.223 A 
ATOM     19  N   UNL     1      10.164  -0.014  22.649  0.00  0.00    -0.235 NA
ATOM     20  C   UNL     1       9.616   0.089  23.878  0.00  0.00    +0.076 A 
ATOM     21  C   UNL     1       9.356  -1.032  24.648  0.00  0.00    +0.072 A 
BRANCH  20  22
ATOM     22  C   UNL     1       9.237   1.453  24.300  0.00  0.00    +0.001 A 
ATOM     23  C   UNL     1       9.881   2.572  23.738  0.00  0.00    +0.010 A 
ATOM     24  C   UNL     1       9.509   3.876  24.072  0.00  0.00    +0.001 A 
ATOM     25  C   UNL     1       8.481   4.092  24.982  0.00  0.00    +0.000 A 
ATOM     26  C   UNL     1       7.840   3.006  25.572  0.00  0.00    +0.001 A 
ATOM     27  C   UNL     1       8.217   1.701  25.238  0.00  0.00    +0.010 A 
ENDBRANCH  20  22
ENDBRANCH   1  16
TORSDOF 5
ENDMDL
MODEL 7
REMARK VINA RESULT:      -7.0      1.797      2.944
REMARK  Name = 
REMARK  7 active torsions:
REMARK  status: ('A' for Active; 'I' for Inactive)
REMARK    1  A    between atoms: C_1  and  C_2
REMARK    2  A    between atoms: C_5  and  N_6
REMARK    3  A    between atoms: N_6  and  C_7
REMARK    4  A    between atoms: C_9  and  C_13
REMARK    5  A    between atoms: C_20  and  N_21
REMARK    6  A    between atoms: N_21  and  S_22
REMARK    7  A    between atoms: S_22  and  C_23
REMARK                            x       y       z     vdW  Elec       q    Type
REMARK                         _______ _______ _______ _____ _____    ______ ____
ROOT
ATOM      1  N   UNL     1       8.443  -0.527  22.336  0.00  0.00    -0.299 N 
ATOM      2  H   UNL     1       8.841  -0.492  21.408  0.00  0.00    +0.154 HD
ENDROOT
BRANCH   1   7
ATOM      3  C   UNL     1       8.568  -5.530  25.138  0.00  0.00    +0.046 C 
ATOM      4  C   UNL     1       8.563  -4.292  24.289  0.00  0.00    -0.028 A 
ATOM      5  C   UNL     1       7.576  -4.032  23.328  0.00  0.00    +0.052 A 
ATOM      6  C   UNL     1       7.563  -2.808  22.654  0.00  0.00    +0.048 A 
ATOM      7  C   UNL     1       8.490  -1.801  22.932  0.00  0.00    +0.034 A 
ATOM      8  C   UNL     1       9.510  -2.088  23.845  0.00  0.00    +0.023 A 
ATOM      9  C   UNL     1       9.540  -3.311  24.524  0.00  0.00    +0.007 A 
BRANCH   5  10
ATOM     10  N   UNL     1       6.536  -4.964  23.013  0.00  0.00    -0.221 N 
ATOM     11  H   UNL     1       6.403  -5.173  22.025  0.00  0.00    +0.173 HD
BRANCH  10  12
ATOM     12  S   UNL     1       5.044  -4.804  23.786  0.00  0.00    +0.040 S 
ATOM     13  O   UNL     1       4.062  -4.791  22.715  0.00  0.00    -0.155 OA
ATOM     14  O   UNL     1       5.104  -3.724  24.745  0.00  0.00    -0.155 OA
ATOM     15  C   UNL     1       4.862  -6.353  24.654  0.00  0.00    +0.218 C 
ENDBRANCH  10  12
ENDBRANCH   5  10
ENDBRANCH   1   7
BRANCH   1  16
ATOM     16  C   UNL     1       8.178   0.735  22.904  0.00  0.00    +0.127 A 
ATOM     17  N   UNL     1       7.019   0.974  23.541  0.00  0.00    -0.221 NA
ATOM     18  C   UNL     1       6.892   2.160  24.145  0.00  0.00    +0.223 A 
ATOM     19  N   UNL     1       7.813   3.125  24.186  0.00  0.00    -0.235 NA
ATOM     20  C   UNL     1       8.969   2.880  23.536  0.00  0.00    +0.076 A 
ATOM     21  C   UNL     1       9.180   1.689  22.861  0.00  0.00    +0.072 A 
BRANCH  20  22
ATOM     22  C   UNL     1      10.013   3.917  23.670  0.00  0.00    +0.001 A 
ATOM     23  C   UNL     1      11.347   3.627  23.322  0.00  0.00    +0.010 A 
ATOM     24  C   UNL     1      12.347   4.599  23.384  0.00  0.00    +0.001 A 
ATOM     25  C   UNL     1      12.037   5.888  23.799  0.00  0.00    +0.000 A 
ATOM     26  C   UNL     1      10.732   6.200  24.170  0.00  0.00    +0.001 A 
ATOM     27  C   UNL     1       9.732   5.223  24.112  0.00  0.00    +0.010 A 
ENDBRANCH  20  22
ENDBRANCH   1  16
TORSDOF 5
ENDMDL
MODEL 8
REMARK VINA RESULT:      -6.9      3.441      7.706
REMARK  Name = 
REMARK  7 active torsions:
REMARK  status: ('A' for Active; 'I' for Inactive)
REMARK    1  A    between atoms: C_1  and  C_2
REMARK    2  A    between atoms: C_5  and  N_6
REMARK    3  A    between atoms: N_6  and  C_7
REMARK    4  A    between atoms: C_9  and  C_13
REMARK    5  A    between atoms: C_20  and  N_21
REMARK    6  A    between atoms: N_21  and  S_22
REMARK    7  A    between atoms: S_22  and  C_23
REMARK                            x       y       z     vdW  Elec       q    Type
REMARK                         _______ _______ _______ _____ _____    ______ ____
ROOT
ATOM      1  N   UNL     1       9.255   0.382  21.680  0.00  0.00    -0.299 N 
ATOM      2  H   UNL     1       9.227   0.366  20.670  0.00  0.00    +0.154 HD
ENDROOT
BRANCH   1   7
ATOM      3  C   UNL     1       8.615   5.689  23.757  0.00  0.00    +0.046 C 
ATOM      4  C   UNL     1       8.671   4.264  23.289  0.00  0.00    -0.028 A 
ATOM      5  C   UNL     1       7.700   3.699  22.452  0.00  0.00    +0.052 A 
ATOM      6  C   UNL     1       7.872   2.404  21.957  0.00  0.00    +0.048 A 
ATOM      7  C   UNL     1       9.013   1.650  22.240  0.00  0.00    +0.034 A 
ATOM      8  C   UNL     1       9.950   2.193  23.125  0.00  0.00    +0.023 A 
ATOM      9  C   UNL     1       9.789   3.487  23.634  0.00  0.00    +0.007 A 
BRANCH   5  10
ATOM     10  N   UNL     1       6.524   4.406  22.041  0.00  0.00    -0.221 N 
ATOM     11  H   UNL     1       6.645   5.394  21.826  0.00  0.00    +0.173 HD
BRANCH  10  12
ATOM     12  S   UNL     1       5.093   4.161  22.900  0.00  0.00    +0.040 S 
ATOM     13  O   UNL     1       5.510   3.908  24.268  0.00  0.00    -0.155 OA
ATOM     14  O   UNL     1       4.256   3.215  22.196  0.00  0.00    -0.155 OA
ATOM     15  C   UNL     1       4.316   5.769  22.872  0.00  0.00    +0.218 C 
ENDBRANCH  10  12
ENDBRANCH   5  10
ENDBRANCH   1   7
BRANCH   1  16
ATOM     16  C   UNL     1       9.271  -0.892  22.282  0.00  0.00    +0.127 A 
ATOM     17  N   UNL     1      10.267  -1.250  23.109  0.00  0.00    -0.221 NA
ATOM     18  C   UNL     1      10.151  -2.433  23.723  0.00  0.00    +0.223 A 
ATOM     19  N   UNL     1       9.132  -3.285  23.601  0.00  0.00    -0.235 NA
ATOM     20  C   UNL     1       8.141  -2.921  22.762  0.00  0.00    +0.076 A 
ATOM     21  C   UNL     1       8.188  -1.726  22.064  0.00  0.00    +0.072 A 
BRANCH  20  22
ATOM     22  C   UNL     1       6.976  -3.829  22.711  0.00  0.00    +0.001 A 
ATOM     23  C   UNL     1       7.138  -5.164  22.290  0.00  0.00    +0.010 A 
ATOM     24  C   UNL     1       6.070  -6.064  22.283  0.00  0.00    +0.001 A 
ATOM     25  C   UNL     1       4.810  -5.648  22.695  0.00  0.00    +0.000 A 
ATOM     26  C   UNL     1       4.613  -4.329  23.096  0.00  0.00    +0.001 A 
ATOM     27  C   UNL     1       5.684  -3.429  23.099  0.00  0.00    +0.010 A 
ENDBRANCH  20  22
ENDBRANCH   1  16
TORSDOF 5
ENDMDL
MODEL 9
REMARK VINA RESULT:      -6.9      2.951      7.371
REMARK  Name = 
REMARK  7 active torsions:
REMARK  status: ('A' for Active; 'I' for Inactive)
REMARK    1  A    between atoms: C_1  and  C_2
REMARK    2  A    between atoms: C_5  and  N_6
REMARK    3  A    between atoms: N_6  and  C_7
REMARK    4  A    between atoms: C_9  and  C_13
REMARK    5  A    between atoms: C_20  and  N_21
REMARK    6  A    between atoms: N_21  and  S_22
REMARK    7  A    between atoms: S_22  and  C_23
REMARK                            x       y       z     vdW  Elec       q    Type
REMARK                         _______ _______ _______ _____ _____    ______ ____
ROOT
ATOM      1  N   UNL     1       8.992  -1.877  22.220  0.00  0.00    -0.299 N 
ATOM      2  H   UNL     1       9.301  -2.166  21.302  0.00  0.00    +0.154 HD
ENDROOT
BRANCH   1   7
ATOM      3  C   UNL     1       7.322   3.607  22.080  0.00  0.00    +0.046 C 
ATOM      4  C   UNL     1       7.760   2.182  22.256  0.00  0.00    -0.028 A 
ATOM      5  C   UNL     1       6.936   1.195  22.811  0.00  0.00    +0.052 A 
ATOM      6  C   UNL     1       7.361  -0.136  22.839  0.00  0.00    +0.048 A 
ATOM      7  C   UNL     1       8.582  -0.533  22.290  0.00  0.00    +0.034 A 
ATOM      8  C   UNL     1       9.428   0.464  21.793  0.00  0.00    +0.023 A 
ATOM      9  C   UNL     1       9.020   1.801  21.765  0.00  0.00    +0.007 A 
BRANCH   5  10
ATOM     10  N   UNL     1       5.635   1.477  23.340  0.00  0.00    -0.221 N 
ATOM     11  H   UNL     1       5.097   2.192  22.853  0.00  0.00    +0.173 HD
BRANCH  10  12
ATOM     12  S   UNL     1       5.460   1.645  25.010  0.00  0.00    +0.040 S 
ATOM     13  O   UNL     1       6.780   2.006  25.496  0.00  0.00    -0.155 OA
ATOM     14  O   UNL     1       4.766   0.495  25.546  0.00  0.00    -0.155 OA
ATOM     15  C   UNL     1       4.422   3.088  25.173  0.00  0.00    +0.218 C 
ENDBRANCH  10  12
ENDBRANCH   5  10
ENDBRANCH   1   7
BRANCH   1  16
ATOM     16  C   UNL     1       8.803  -2.937  23.130  0.00  0.00    +0.127 A 
ATOM     17  N   UNL     1       9.706  -3.186  24.093  0.00  0.00    -0.221 NA
ATOM     18  C   UNL     1       9.399  -4.138  24.981  0.00  0.00    +0.223 A 
ATOM     19  N   UNL     1       8.274  -4.855  25.008  0.00  0.00    -0.235 NA
ATOM     20  C   UNL     1       7.377  -4.603  24.033  0.00  0.00    +0.076 A 
ATOM     21  C   UNL     1       7.621  -3.654  23.055  0.00  0.00    +0.072 A 
BRANCH  20  22
ATOM     22  C   UNL     1       6.098  -5.336  24.131  0.00  0.00    +0.001 A 
ATOM     23  C   UNL     1       5.745  -5.984  25.331  0.00  0.00    +0.010 A 
ATOM     24  C   UNL     1       4.519  -6.638  25.477  0.00  0.00    +0.001 A 
ATOM     25  C   UNL     1       3.616  -6.662  24.421  0.00  0.00    +0.000 A 
ATOM     26  C   UNL     1       3.946  -6.049  23.214  0.00  0.00    +0.001 A 
ATOM     27  C   UNL     1       5.175  -5.399  23.070  0.00  0.00    +0.010 A 
ENDBRANCH  20  22
ENDBRANCH   1  16
TORSDOF 5
ENDMDL
