MODEL 1
REMARK VINA RESULT:      -5.9      0.000      0.000
REMARK  Name = 
REMARK  2 active torsions:
REMARK  status: ('A' for Active; 'I' for Inactive)
REMARK    1  A    between atoms: N_1  and  S_2
REMARK    2  A    between atoms: S_2  and  C_5
REMARK                            x       y       z     vdW  Elec       q    Type
REMARK                         _______ _______ _______ _____ _____    ______ ____
ROOT
ATOM      1  C   UNL     1       8.950  -3.271  25.053  0.00  0.00    +0.105 A 
ATOM      2  C   UNL     1       8.542  -2.506  26.147  0.00  0.00    +0.029 A 
ATOM      3  C   UNL     1       8.708  -1.120  26.110  0.00  0.00    +0.006 A 
ATOM      4  C   UNL     1       9.293  -0.505  24.992  0.00  0.00    -0.042 A 
ATOM      5  C   UNL     1       9.445   0.997  24.943  0.00  0.00    +0.050 C 
ATOM      6  C   UNL     1      10.433   1.447  23.859  0.00  0.00    +0.086 C 
ATOM      7  N   UNL     1      10.135   0.800  22.580  0.00  0.00    -0.312 NA
ATOM      8  H   UNL     1      10.750   1.171  21.857  0.00  0.00    +0.122 HD
ATOM      9  C   UNL     1      10.353  -0.646  22.683  0.00  0.00    +0.116 C 
ATOM     10  C   UNL     1       9.690  -1.279  23.886  0.00  0.00    -0.029 A 
ATOM     11  C   UNL     1       9.533  -2.672  23.935  0.00  0.00    +0.033 A 
ENDROOT
BRANCH   1  12
ATOM     12  S   UNL     1       8.790  -5.031  25.085  0.00  0.00    +0.056 S 
ATOM     13  O   UNL     1       7.980  -5.414  26.220  0.00  0.00    -0.153 OA
ATOM     14  O   UNL     1       8.521  -5.509  23.750  0.00  0.00    -0.153 OA
BRANCH  12  15
ATOM     15  N   UNL     1      10.354  -5.517  25.448  0.00  0.00    -0.204 NA
ATOM     16  H   UNL     1      10.400  -5.878  26.400  0.00  0.00    +0.144 HD
ATOM     17  H   UNL     1      10.683  -6.172  24.739  0.00  0.00    +0.144 HD
ENDBRANCH  12  15
ENDBRANCH   1  12
TORSDOF 2
ENDMDL
MODEL 2
REMARK VINA RESULT:      -5.7      1.282      2.172
REMARK  Name = 
REMARK  2 active torsions:
REMARK  status: ('A' for Active; 'I' for Inactive)
REMARK    1  A    between atoms: N_1  and  S_2
REMARK    2  A    between atoms: S_2  and  C_5
REMARK                            x       y       z     vdW  Elec       q    Type
REMARK                         _______ _______ _______ _____ _____    ______ ____
ROOT
ATOM      1  C   UNL     1       8.991  -2.778  23.767  0.00  0.00    +0.105 A 
ATOM      2  C   UNL     1       8.683  -2.581  22.419  0.00  0.00    +0.029 A 
ATOM      3  C   UNL     1       8.964  -1.348  21.828  0.00  0.00    +0.006 A 
ATOM      4  C   UNL     1       9.536  -0.313  22.585  0.00  0.00    -0.042 A 
ATOM      5  C   UNL     1       9.865   1.011  21.935  0.00  0.00    +0.050 C 
ATOM      6  C   UNL     1      10.106   2.121  22.966  0.00  0.00    +0.086 C 
ATOM      7  N   UNL     1      11.039   1.677  24.003  0.00  0.00    -0.312 NA
ATOM      8  H   UNL     1      11.247   2.452  24.632  0.00  0.00    +0.122 HD
ATOM      9  C   UNL     1      10.444   0.588  24.784  0.00  0.00    +0.116 C 
ATOM     10  C   UNL     1       9.858  -0.520  23.939  0.00  0.00    -0.029 A 
ATOM     11  C   UNL     1       9.561  -1.757  24.530  0.00  0.00    +0.033 A 
ENDROOT
BRANCH   1  12
ATOM     12  S   UNL     1       8.612  -4.314  24.554  0.00  0.00    +0.056 S 
ATOM     13  O   UNL     1       8.038  -4.053  25.855  0.00  0.00    -0.153 OA
ATOM     14  O   UNL     1       7.989  -5.198  23.599  0.00  0.00    -0.153 OA
BRANCH  12  15
ATOM     15  N   UNL     1      10.140  -4.944  24.842  0.00  0.00    -0.204 NA
ATOM     16  H   UNL     1      10.117  -5.576  25.642  0.00  0.00    +0.144 HD
ATOM     17  H   UNL     1      10.504  -5.367  23.989  0.00  0.00    +0.144 HD
ENDBRANCH  12  15
ENDBRANCH   1  12
TORSDOF 2
ENDMDL
MODEL 3
REMARK VINA RESULT:      -5.2      5.064      5.866
REMARK  Name = 
REMARK  2 active torsions:
REMARK  status: ('A' for Active; 'I' for Inactive)
REMARK    1  A    between atoms: N_1  and  S_2
REMARK    2  A    between atoms: S_2  and  C_5
REMARK                            x       y       z     vdW  Elec       q    Type
REMARK                         _______ _______ _______ _____ _____    ______ ____
ROOT
ATOM      1  C   UNL     1       6.062  -5.566  26.791  0.00  0.00    +0.105 A 
ATOM      2  C   UNL     1       7.363  -5.092  26.614  0.00  0.00    +0.029 A 
ATOM      3  C   UNL     1       7.839  -4.876  25.319  0.00  0.00    +0.006 A 
ATOM      4  C   UNL     1       7.024  -5.147  24.209  0.00  0.00    -0.042 A 
ATOM      5  C   UNL     1       7.532  -4.885  22.811  0.00  0.00    +0.050 C 
ATOM      6  C   UNL     1       6.686  -5.590  21.742  0.00  0.00    +0.086 C 
ATOM      7  N   UNL     1       5.260  -5.335  21.954  0.00  0.00    -0.312 NA
ATOM      8  H   UNL     1       4.721  -5.744  21.192  0.00  0.00    +0.122 HD
ATOM      9  C   UNL     1       4.820  -5.941  23.214  0.00  0.00    +0.116 C 
ATOM     10  C   UNL     1       5.708  -5.611  24.394  0.00  0.00    -0.029 A 
ATOM     11  C   UNL     1       5.240  -5.839  25.696  0.00  0.00    +0.033 A 
ENDROOT
BRANCH   1  12
ATOM     12  S   UNL     1       5.443  -5.887  28.415  0.00  0.00    +0.056 S 
ATOM     13  O   UNL     1       6.458  -5.547  29.387  0.00  0.00    -0.153 OA
ATOM     14  O   UNL     1       4.088  -5.400  28.513  0.00  0.00    -0.153 OA
BRANCH  12  15
ATOM     15  N   UNL     1       5.337  -7.562  28.424  0.00  0.00    -0.204 NA
ATOM     16  H   UNL     1       6.237  -7.971  28.672  0.00  0.00    +0.144 HD
ATOM     17  H   UNL     1       4.568  -7.854  29.026  0.00  0.00    +0.144 HD
ENDBRANCH  12  15
ENDBRANCH   1  12
TORSDOF 2
ENDMDL
MODEL 4
REMARK VINA RESULT:      -5.2      2.077      2.704
REMARK  Name = 
REMARK  2 active torsions:
REMARK  status: ('A' for Active; 'I' for Inactive)
REMARK    1  A    between atoms: N_1  and  S_2
REMARK    2  A    between atoms: S_2  and  C_5
REMARK                            x       y       z     vdW  Elec       q    Type
REMARK                         _______ _______ _______ _____ _____    ______ ____
ROOT
ATOM      1  C   UNL     1       9.049  -2.543  23.964  0.00  0.00    +0.105 A 
ATOM      2  C   UNL     1      10.238  -2.249  23.292  0.00  0.00    +0.029 A 
ATOM      3  C   UNL     1      10.345  -1.046  22.592  0.00  0.00    +0.006 A 
ATOM      4  C   UNL     1       9.266  -0.149  22.552  0.00  0.00    -0.042 A 
ATOM      5  C   UNL     1       9.396   1.164  21.818  0.00  0.00    +0.050 C 
ATOM      6  C   UNL     1       8.035   1.819  21.549  0.00  0.00    +0.086 C 
ATOM      7  N   UNL     1       7.223   1.854  22.767  0.00  0.00    -0.312 NA
ATOM      8  H   UNL     1       6.358   2.361  22.588  0.00  0.00    +0.122 HD
ATOM      9  C   UNL     1       6.887   0.490  23.188  0.00  0.00    +0.116 C 
ATOM     10  C   UNL     1       8.076  -0.443  23.242  0.00  0.00    -0.029 A 
ATOM     11  C   UNL     1       7.968  -1.660  23.932  0.00  0.00    +0.033 A 
ENDROOT
BRANCH   1  12
ATOM     12  S   UNL     1       8.867  -4.075  24.827  0.00  0.00    +0.056 S 
ATOM     13  O   UNL     1       7.639  -4.713  24.408  0.00  0.00    -0.153 OA
ATOM     14  O   UNL     1      10.132  -4.769  24.838  0.00  0.00    -0.153 OA
BRANCH  12  15
ATOM     15  N   UNL     1       8.605  -3.559  26.402  0.00  0.00    -0.204 NA
ATOM     16  H   UNL     1       9.015  -4.218  27.062  0.00  0.00    +0.144 HD
ATOM     17  H   UNL     1       8.940  -2.601  26.509  0.00  0.00    +0.144 HD
ENDBRANCH  12  15
ENDBRANCH   1  12
TORSDOF 2
ENDMDL
MODEL 5
REMARK VINA RESULT:      -5.1      4.012      5.708
REMARK  Name = 
REMARK  2 active torsions:
REMARK  status: ('A' for Active; 'I' for Inactive)
REMARK    1  A    between atoms: N_1  and  S_2
REMARK    2  A    between atoms: S_2  and  C_5
REMARK                            x       y       z     vdW  Elec       q    Type
REMARK                         _______ _______ _______ _____ _____    ______ ____
ROOT
ATOM      1  C   UNL     1       9.507   0.466  23.472  0.00  0.00    +0.105 A 
ATOM      2  C   UNL     1       9.738  -0.451  22.445  0.00  0.00    +0.029 A 
ATOM      3  C   UNL     1       9.607  -1.816  22.708  0.00  0.00    +0.006 A 
ATOM      4  C   UNL     1       9.262  -2.261  23.994  0.00  0.00    -0.042 A 
ATOM      5  C   UNL     1       9.093  -3.737  24.267  0.00  0.00    +0.050 C 
ATOM      6  C   UNL     1       9.106  -4.056  25.768  0.00  0.00    +0.086 C 
ATOM      7  N   UNL     1       8.197  -3.171  26.498  0.00  0.00    -0.312 NA
ATOM      8  H   UNL     1       8.160  -3.449  27.478  0.00  0.00    +0.122 HD
ATOM      9  C   UNL     1       8.674  -1.786  26.424  0.00  0.00    +0.116 C 
ATOM     10  C   UNL     1       9.016  -1.332  25.022  0.00  0.00    -0.029 A 
ATOM     11  C   UNL     1       9.162   0.037  24.755  0.00  0.00    +0.033 A 
ENDROOT
BRANCH   1  12
ATOM     12  S   UNL     1       9.703   2.198  23.182  0.00  0.00    +0.056 S 
ATOM     13  O   UNL     1       8.437   2.863  23.399  0.00  0.00    -0.153 OA
ATOM     14  O   UNL     1      10.926   2.650  23.800  0.00  0.00    -0.153 OA
BRANCH  12  15
ATOM     15  N   UNL     1       9.973   2.246  21.527  0.00  0.00    -0.204 NA
ATOM     16  H   UNL     1       9.104   2.076  21.022  0.00  0.00    +0.144 HD
ATOM     17  H   UNL     1      10.432   3.123  21.279  0.00  0.00    +0.144 HD
ENDBRANCH  12  15
ENDBRANCH   1  12
TORSDOF 2
ENDMDL
MODEL 6
REMARK VINA RESULT:      -5.1      4.753      6.099
REMARK  Name = 
REMARK  2 active torsions:
REMARK  status: ('A' for Active; 'I' for Inactive)
REMARK    1  A    between atoms: N_1  and  S_2
REMARK    2  A    between atoms: S_2  and  C_5
REMARK                            x       y       z     vdW  Elec       q    Type
REMARK                         _______ _______ _______ _____ _____    ______ ____
ROOT
ATOM      1  C   UNL     1       4.701  -5.848  24.144  0.00  0.00    +0.105 A 
ATOM      2  C   UNL     1       5.490  -5.590  23.022  0.00  0.00    +0.029 A 
ATOM      3  C   UNL     1       6.828  -5.235  23.197  0.00  0.00    +0.006 A 
ATOM      4  C   UNL     1       7.370  -5.124  24.488  0.00  0.00    -0.042 A 
ATOM      5  C   UNL     1       8.827  -4.768  24.672  0.00  0.00    +0.050 C 
ATOM      6  C   UNL     1       9.138  -4.315  26.104  0.00  0.00    +0.086 C 
ATOM      7  N   UNL     1       8.589  -5.257  27.081  0.00  0.00    -0.312 NA
ATOM      8  H   UNL     1       8.873  -4.982  28.020  0.00  0.00    +0.122 HD
ATOM      9  C   UNL     1       7.124  -5.256  27.017  0.00  0.00    +0.116 C 
ATOM     10  C   UNL     1       6.575  -5.399  25.615  0.00  0.00    -0.029 A 
ATOM     11  C   UNL     1       5.227  -5.742  25.433  0.00  0.00    +0.033 A 
ENDROOT
BRANCH   1  12
ATOM     12  S   UNL     1       2.992  -6.262  23.958  0.00  0.00    +0.056 S 
ATOM     13  O   UNL     1       2.302  -6.004  25.202  0.00  0.00    -0.153 OA
ATOM     14  O   UNL     1       2.515  -5.759  22.692  0.00  0.00    -0.153 OA
BRANCH  12  15
ATOM     15  N   UNL     1       3.053  -7.932  23.802  0.00  0.00    -0.204 NA
ATOM     16  H   UNL     1       2.210  -8.354  24.188  0.00  0.00    +0.144 HD
ATOM     17  H   UNL     1       3.233  -8.179  22.828  0.00  0.00    +0.144 HD
ENDBRANCH  12  15
ENDBRANCH   1  12
TORSDOF 2
ENDMDL
MODEL 7
REMARK VINA RESULT:      -5.1      4.390      6.440
REMARK  Name = 
REMARK  2 active torsions:
REMARK  status: ('A' for Active; 'I' for Inactive)
REMARK    1  A    between atoms: N_1  and  S_2
REMARK    2  A    between atoms: S_2  and  C_5
REMARK                            x       y       z     vdW  Elec       q    Type
REMARK                         _______ _______ _______ _____ _____    ______ ____
ROOT
ATOM      1  C   UNL     1       7.547  -4.868  24.594  0.00  0.00    +0.105 A 
ATOM      2  C   UNL     1       7.335  -4.869  23.214  0.00  0.00    +0.029 A 
ATOM      3  C   UNL     1       6.091  -5.262  22.716  0.00  0.00    +0.006 A 
ATOM      4  C   UNL     1       5.071  -5.664  23.592  0.00  0.00    -0.042 A 
ATOM      5  C   UNL     1       3.717  -6.060  23.051  0.00  0.00    +0.050 C 
ATOM      6  C   UNL     1       2.880  -6.827  24.083  0.00  0.00    +0.086 C 
ATOM      7  N   UNL     1       2.866  -6.126  25.368  0.00  0.00    -0.312 NA
ATOM      8  H   UNL     1       2.242  -6.608  26.014  0.00  0.00    +0.122 HD
ATOM      9  C   UNL     1       4.213  -6.106  25.946  0.00  0.00    +0.116 C 
ATOM     10  C   UNL     1       5.284  -5.647  24.983  0.00  0.00    -0.029 A 
ATOM     11  C   UNL     1       6.540  -5.265  25.476  0.00  0.00    +0.033 A 
ENDROOT
BRANCH   1  12
ATOM     12  S   UNL     1       9.122  -4.414  25.255  0.00  0.00    +0.056 S 
ATOM     13  O   UNL     1       9.831  -3.610  24.285  0.00  0.00    -0.153 OA
ATOM     14  O   UNL     1       8.962  -4.002  26.629  0.00  0.00    -0.153 OA
BRANCH  12  15
ATOM     15  N   UNL     1       9.918  -5.890  25.302  0.00  0.00    -0.204 NA
ATOM     16  H   UNL     1       9.300  -6.614  25.666  0.00  0.00    +0.144 HD
ATOM     17  H   UNL     1      10.307  -6.100  24.383  0.00  0.00    +0.144 HD
ENDBRANCH  12  15
ENDBRANCH   1  12
TORSDOF 2
ENDMDL
MODEL 8
REMARK VINA RESULT:      -5.1      3.889      5.584
REMARK  Name = 
REMARK  2 active torsions:
REMARK  status: ('A' for Active; 'I' for Inactive)
REMARK    1  A    between atoms: N_1  and  S_2
REMARK    2  A    between atoms: S_2  and  C_5
REMARK                            x       y       z     vdW  Elec       q    Type
REMARK                         _______ _______ _______ _____ _____    ______ ____
ROOT
ATOM      1  C   UNL     1       8.290  -2.331  23.460  0.00  0.00    +0.105 A 
ATOM      2  C   UNL     1       7.958  -2.520  24.803  0.00  0.00    +0.029 A 
ATOM      3  C   UNL     1       7.129  -3.586  25.156  0.00  0.00    +0.006 A 
ATOM      4  C   UNL     1       6.623  -4.449  24.171  0.00  0.00    -0.042 A 
ATOM      5  C   UNL     1       5.750  -5.618  24.561  0.00  0.00    +0.050 C 
ATOM      6  C   UNL     1       4.988  -6.200  23.363  0.00  0.00    +0.086 C 
ATOM      7  N   UNL     1       5.889  -6.433  22.234  0.00  0.00    -0.312 NA
ATOM      8  H   UNL     1       5.382  -6.892  21.478  0.00  0.00    +0.122 HD
ATOM      9  C   UNL     1       6.416  -5.159  21.736  0.00  0.00    +0.116 C 
ATOM     10  C   UNL     1       6.973  -4.263  22.821  0.00  0.00    -0.029 A 
ATOM     11  C   UNL     1       7.795  -3.182  22.470  0.00  0.00    +0.033 A 
ENDROOT
BRANCH   1  12
ATOM     12  S   UNL     1       9.306  -0.968  22.975  0.00  0.00    +0.056 S 
ATOM     13  O   UNL     1       8.469   0.079  22.434  0.00  0.00    -0.153 OA
ATOM     14  O   UNL     1      10.289  -0.718  24.001  0.00  0.00    -0.153 OA
BRANCH  12  15
ATOM     15  N   UNL     1      10.147  -1.607  21.671  0.00  0.00    -0.204 NA
ATOM     16  H   UNL     1       9.980  -1.049  20.835  0.00  0.00    +0.144 HD
ATOM     17  H   UNL     1      11.132  -1.708  21.914  0.00  0.00    +0.144 HD
ENDBRANCH  12  15
ENDBRANCH   1  12
TORSDOF 2
ENDMDL
MODEL 9
REMARK VINA RESULT:      -5.1      2.348      2.356
REMARK  Name = 
REMARK  2 active torsions:
REMARK  status: ('A' for Active; 'I' for Inactive)
REMARK    1  A    between atoms: N_1  and  S_2
REMARK    2  A    between atoms: S_2  and  C_5
REMARK                            x       y       z     vdW  Elec       q    Type
REMARK                         _______ _______ _______ _____ _____    ______ ____
ROOT
ATOM      1  C   UNL     1       7.414  -3.037  23.288  0.00  0.00    +0.105 A 
ATOM      2  C   UNL     1       6.446  -2.298  23.970  0.00  0.00    +0.029 A 
ATOM      3  C   UNL     1       6.426  -0.909  23.833  0.00  0.00    +0.006 A 
ATOM      4  C   UNL     1       7.379  -0.262  23.029  0.00  0.00    -0.042 A 
ATOM      5  C   UNL     1       7.337   1.239  22.860  0.00  0.00    +0.050 C 
ATOM      6  C   UNL     1       8.647   1.797  22.290  0.00  0.00    +0.086 C 
ATOM      7  N   UNL     1       9.068   1.039  21.110  0.00  0.00    -0.312 NA
ATOM      8  H   UNL     1       9.895   1.473  20.701  0.00  0.00    +0.122 HD
ATOM      9  C   UNL     1       9.401  -0.338  21.487  0.00  0.00    +0.116 C 
ATOM     10  C   UNL     1       8.344  -1.012  22.332  0.00  0.00    -0.029 A 
ATOM     11  C   UNL     1       8.366  -2.406  22.485  0.00  0.00    +0.033 A 
ENDROOT
BRANCH   1  12
ATOM     12  S   UNL     1       7.490  -4.793  23.472  0.00  0.00    +0.056 S 
ATOM     13  O   UNL     1       6.525  -5.210  24.464  0.00  0.00    -0.153 OA
ATOM     14  O   UNL     1       7.569  -5.406  22.167  0.00  0.00    -0.153 OA
BRANCH  12  15
ATOM     15  N   UNL     1       8.998  -5.005  24.177  0.00  0.00    -0.204 NA
ATOM     16  H   UNL     1       8.913  -5.548  25.035  0.00  0.00    +0.144 HD
ATOM     17  H   UNL     1       9.643  -5.403  23.495  0.00  0.00    +0.144 HD
ENDBRANCH  12  15
ENDBRANCH   1  12
TORSDOF 2
ENDMDL
