MODEL 1
REMARK VINA RESULT:      -6.5      0.000      0.000
REMARK  Name = 
REMARK  17 active torsions:
REMARK  status: ('A' for Active; 'I' for Inactive)
REMARK    1  A    between atoms: C_2  and  C_3
REMARK    2  A    between atoms: C_2  and  N_4
REMARK    3  A    between atoms: C_2  and  C_20
REMARK    4  A    between atoms: C_5  and  C_7
REMARK    5  A    between atoms: C_7  and  O_9
REMARK    6  A    between atoms: C_7  and  C_10
REMARK    7  A    between atoms: C_10  and  N_12
REMARK    8  A    between atoms: C_10  and  C_13
REMARK    9  A    between atoms: C_16  and  C_17
REMARK   10  A    between atoms: N_22  and  C_23
REMARK   11  A    between atoms: C_23  and  C_25
REMARK   12  A    between atoms: C_23  and  C_29
REMARK   13  A    between atoms: C_25  and  C_26
REMARK   14  A    between atoms: C_26  and  C_27
REMARK   15  A    between atoms: C_26  and  C_28
REMARK   16  A    between atoms: C_29  and  O_31
REMARK   17  A    between atoms: O_31  and  C_32
REMARK                            x       y       z     vdW  Elec       q    Type
REMARK                         _______ _______ _______ _____ _____    ______ ____
ROOT
ATOM      1  N   UNL     1       8.998   0.659  23.334  0.00  0.00    -0.302 N 
ATOM      2  H   UNL     1       8.049   0.374  23.576  0.00  0.00    +0.150 HD
ATOM      3  C   UNL     1       9.996   0.065  24.080  0.00  0.00    +0.244 C 
ATOM      4  O   UNL     1      11.147   0.491  24.113  0.00  0.00    -0.273 OA
ENDROOT
BRANCH   1   5
ATOM      5  C   UNL     1       9.191   1.885  22.567  0.00  0.00    +0.156 C 
ATOM      6  C   UNL     1       8.058   2.060  21.560  0.00  0.00    +0.038 C 
BRANCH   5   7
ATOM      7  C   UNL     1       9.226   3.083  23.533  0.00  0.00    +0.234 C 
ATOM      8  N   UNL     1      10.061   4.103  23.143  0.00  0.00    -0.301 N 
ATOM      9  H   UNL     1      10.759   3.880  22.431  0.00  0.00    +0.150 HD
ATOM     10  O   UNL     1       8.616   3.087  24.601  0.00  0.00    -0.274 OA
BRANCH   8  11
ATOM     11  C   UNL     1      10.342   5.268  23.995  0.00  0.00    +0.182 C 
BRANCH  11  12
ATOM     12  C   UNL     1      11.843   5.633  23.935  0.00  0.00    +0.327 C 
ATOM     13  O   UNL     1      12.372   6.509  24.609  0.00  0.00    -0.249 OA
BRANCH  12  14
ATOM     14  O   UNL     1      12.499   4.853  23.027  0.00  0.00    -0.467 OA
ATOM     15  C   UNL     1      13.244   5.572  22.046  0.00  0.00    +0.280 C 
ENDBRANCH  12  14
ENDBRANCH  11  12
BRANCH  11  16
ATOM     16  C   UNL     1       9.509   6.503  23.592  0.00  0.00    +0.036 C 
BRANCH  16  17
ATOM     17  C   UNL     1       8.391   6.908  24.577  0.00  0.00    -0.015 C 
ATOM     18  C   UNL     1       8.770   6.529  26.014  0.00  0.00    +0.007 C 
ATOM     19  C   UNL     1       7.044   6.265  24.242  0.00  0.00    +0.007 C 
ENDBRANCH  16  17
ENDBRANCH  11  16
ENDBRANCH   8  11
ENDBRANCH   5   7
ENDBRANCH   1   5
BRANCH   3  20
ATOM     20  C   UNL     1       9.538  -1.216  24.811  0.00  0.00    +0.221 C 
BRANCH  20  21
ATOM     21  O   UNL     1       8.156  -1.068  25.176  0.00  0.00    -0.381 OA
ATOM     22  H   UNL     1       7.633  -1.445  24.447  0.00  0.00    +0.211 HD
ENDBRANCH  20  21
BRANCH  20  23
ATOM     23  C   UNL     1       9.795  -2.466  23.910  0.00  0.00    +0.119 C 
BRANCH  23  24
ATOM     24  C   UNL     1       8.521  -3.261  23.618  0.00  0.00    -0.028 A 
ATOM     25  C   UNL     1       7.738  -2.976  22.487  0.00  0.00    +0.005 A 
ATOM     26  C   UNL     1       6.611  -3.743  22.176  0.00  0.00    +0.003 A 
ATOM     27  C   UNL     1       6.241  -4.823  22.983  0.00  0.00    -0.050 A 
ATOM     28  C   UNL     1       5.054  -5.662  22.607  0.00  0.00    +0.044 C 
ATOM     29  C   UNL     1       7.004  -5.104  24.121  0.00  0.00    +0.003 A 
ATOM     30  C   UNL     1       8.131  -4.331  24.435  0.00  0.00    +0.005 A 
ENDBRANCH  23  24
BRANCH  23  31
ATOM     31  N   UNL     1      10.470  -2.163  22.633  0.00  0.00    -0.321 NA
ATOM     32  H   UNL     1       9.899  -1.526  22.083  0.00  0.00    +0.119 HD
ATOM     33  H   UNL     1      11.345  -1.682  22.835  0.00  0.00    +0.119 HD
ENDBRANCH  23  31
ENDBRANCH  20  23
ENDBRANCH   3  20
TORSDOF 12
ENDMDL
MODEL 2
REMARK VINA RESULT:      -6.4      2.125      2.599
REMARK  Name = 
REMARK  17 active torsions:
REMARK  status: ('A' for Active; 'I' for Inactive)
REMARK    1  A    between atoms: C_2  and  C_3
REMARK    2  A    between atoms: C_2  and  N_4
REMARK    3  A    between atoms: C_2  and  C_20
REMARK    4  A    between atoms: C_5  and  C_7
REMARK    5  A    between atoms: C_7  and  O_9
REMARK    6  A    between atoms: C_7  and  C_10
REMARK    7  A    between atoms: C_10  and  N_12
REMARK    8  A    between atoms: C_10  and  C_13
REMARK    9  A    between atoms: C_16  and  C_17
REMARK   10  A    between atoms: N_22  and  C_23
REMARK   11  A    between atoms: C_23  and  C_25
REMARK   12  A    between atoms: C_23  and  C_29
REMARK   13  A    between atoms: C_25  and  C_26
REMARK   14  A    between atoms: C_26  and  C_27
REMARK   15  A    between atoms: C_26  and  C_28
REMARK   16  A    between atoms: C_29  and  O_31
REMARK   17  A    between atoms: O_31  and  C_32
REMARK                            x       y       z     vdW  Elec       q    Type
REMARK                         _______ _______ _______ _____ _____    ______ ____
ROOT
ATOM      1  N   UNL     1       9.152  -0.609  23.221  0.00  0.00    -0.302 N 
ATOM      2  H   UNL     1       8.432  -0.569  23.942  0.00  0.00    +0.150 HD
ATOM      3  C   UNL     1       9.805  -1.820  23.111  0.00  0.00    +0.244 C 
ATOM      4  O   UNL     1      10.863  -1.955  22.504  0.00  0.00    -0.273 OA
ENDROOT
BRANCH   1   5
ATOM      5  C   UNL     1       9.684   0.640  22.687  0.00  0.00    +0.156 C 
ATOM      6  C   UNL     1       8.998   0.984  21.368  0.00  0.00    +0.038 C 
BRANCH   5   7
ATOM      7  C   UNL     1       9.449   1.766  23.711  0.00  0.00    +0.234 C 
ATOM      8  N   UNL     1       9.586   3.035  23.200  0.00  0.00    -0.301 N 
ATOM      9  H   UNL     1      10.073   3.123  22.307  0.00  0.00    +0.150 HD
ATOM     10  O   UNL     1       9.235   1.541  24.901  0.00  0.00    -0.274 OA
BRANCH   8  11
ATOM     11  C   UNL     1       9.541   4.239  24.045  0.00  0.00    +0.182 C 
BRANCH  11  12
ATOM     12  C   UNL     1      10.746   5.158  23.741  0.00  0.00    +0.327 C 
ATOM     13  O   UNL     1      10.720   6.381  23.806  0.00  0.00    -0.249 OA
BRANCH  12  14
ATOM     14  O   UNL     1      11.841   4.424  23.385  0.00  0.00    -0.467 OA
ATOM     15  C   UNL     1      12.974   5.194  22.984  0.00  0.00    +0.280 C 
ENDBRANCH  12  14
ENDBRANCH  11  12
BRANCH  11  16
ATOM     16  C   UNL     1       8.237   5.041  23.853  0.00  0.00    +0.036 C 
BRANCH  16  17
ATOM     17  C   UNL     1       7.558   4.898  22.473  0.00  0.00    -0.015 C 
ATOM     18  C   UNL     1       7.286   6.275  21.858  0.00  0.00    +0.007 C 
ATOM     19  C   UNL     1       6.240   4.123  22.539  0.00  0.00    +0.007 C 
ENDBRANCH  16  17
ENDBRANCH  11  16
ENDBRANCH   8  11
ENDBRANCH   5   7
ENDBRANCH   1   5
BRANCH   3  20
ATOM     20  C   UNL     1       9.043  -2.991  23.770  0.00  0.00    +0.221 C 
BRANCH  20  21
ATOM     21  O   UNL     1       9.999  -3.895  24.349  0.00  0.00    -0.381 OA
ATOM     22  H   UNL     1      10.673  -3.345  24.786  0.00  0.00    +0.211 HD
ENDBRANCH  20  21
BRANCH  20  23
ATOM     23  C   UNL     1       8.020  -2.442  24.815  0.00  0.00    +0.119 C 
BRANCH  23  24
ATOM     24  C   UNL     1       7.168  -3.542  25.450  0.00  0.00    -0.028 A 
ATOM     25  C   UNL     1       6.287  -4.310  24.670  0.00  0.00    +0.005 A 
ATOM     26  C   UNL     1       5.557  -5.362  25.231  0.00  0.00    +0.003 A 
ATOM     27  C   UNL     1       5.694  -5.682  26.585  0.00  0.00    -0.050 A 
ATOM     28  C   UNL     1       4.936  -6.844  27.158  0.00  0.00    +0.044 C 
ATOM     29  C   UNL     1       6.555  -4.911  27.373  0.00  0.00    +0.003 A 
ATOM     30  C   UNL     1       7.284  -3.853  26.813  0.00  0.00    +0.005 A 
ENDBRANCH  23  24
BRANCH  23  31
ATOM     31  N   UNL     1       8.627  -1.630  25.887  0.00  0.00    -0.321 NA
ATOM     32  H   UNL     1       8.263  -1.924  26.791  0.00  0.00    +0.119 HD
ATOM     33  H   UNL     1       9.631  -1.806  25.898  0.00  0.00    +0.119 HD
ENDBRANCH  23  31
ENDBRANCH  20  23
ENDBRANCH   3  20
TORSDOF 12
ENDMDL
MODEL 3
REMARK VINA RESULT:      -6.4      3.302      8.162
REMARK  Name = 
REMARK  17 active torsions:
REMARK  status: ('A' for Active; 'I' for Inactive)
REMARK    1  A    between atoms: C_2  and  C_3
REMARK    2  A    between atoms: C_2  and  N_4
REMARK    3  A    between atoms: C_2  and  C_20
REMARK    4  A    between atoms: C_5  and  C_7
REMARK    5  A    between atoms: C_7  and  O_9
REMARK    6  A    between atoms: C_7  and  C_10
REMARK    7  A    between atoms: C_10  and  N_12
REMARK    8  A    between atoms: C_10  and  C_13
REMARK    9  A    between atoms: C_16  and  C_17
REMARK   10  A    between atoms: N_22  and  C_23
REMARK   11  A    between atoms: C_23  and  C_25
REMARK   12  A    between atoms: C_23  and  C_29
REMARK   13  A    between atoms: C_25  and  C_26
REMARK   14  A    between atoms: C_26  and  C_27
REMARK   15  A    between atoms: C_26  and  C_28
REMARK   16  A    between atoms: C_29  and  O_31
REMARK   17  A    between atoms: O_31  and  C_32
REMARK                            x       y       z     vdW  Elec       q    Type
REMARK                         _______ _______ _______ _____ _____    ______ ____
ROOT
ATOM      1  N   UNL     1       7.714  -3.729  22.403  0.00  0.00    -0.302 N 
ATOM      2  H   UNL     1       8.549  -4.264  22.643  0.00  0.00    +0.150 HD
ATOM      3  C   UNL     1       7.841  -2.359  22.516  0.00  0.00    +0.244 C 
ATOM      4  O   UNL     1       6.878  -1.600  22.537  0.00  0.00    -0.273 OA
ENDROOT
BRANCH   1   5
ATOM      5  C   UNL     1       6.427  -4.415  22.367  0.00  0.00    +0.156 C 
ATOM      6  C   UNL     1       6.498  -5.620  21.433  0.00  0.00    +0.038 C 
BRANCH   5   7
ATOM      7  C   UNL     1       6.061  -4.873  23.790  0.00  0.00    +0.234 C 
ATOM      8  N   UNL     1       6.388  -3.974  24.778  0.00  0.00    -0.301 N 
ATOM      9  H   UNL     1       7.057  -3.242  24.532  0.00  0.00    +0.150 HD
ATOM     10  O   UNL     1       5.587  -5.983  24.025  0.00  0.00    -0.274 OA
BRANCH   8  11
ATOM     11  C   UNL     1       6.251  -4.282  26.209  0.00  0.00    +0.182 C 
BRANCH  11  12
ATOM     12  C   UNL     1       7.494  -5.046  26.720  0.00  0.00    +0.327 C 
ATOM     13  O   UNL     1       7.454  -6.037  27.439  0.00  0.00    -0.249 OA
BRANCH  12  14
ATOM     14  O   UNL     1       8.644  -4.464  26.267  0.00  0.00    -0.467 OA
ATOM     15  C   UNL     1       9.497  -5.326  25.517  0.00  0.00    +0.280 C 
ENDBRANCH  12  14
ENDBRANCH  11  12
BRANCH  11  16
ATOM     16  C   UNL     1       6.054  -3.015  27.066  0.00  0.00    +0.036 C 
BRANCH  16  17
ATOM     17  C   UNL     1       5.367  -1.826  26.358  0.00  0.00    -0.015 C 
ATOM     18  C   UNL     1       5.966  -0.495  26.827  0.00  0.00    +0.007 C 
ATOM     19  C   UNL     1       3.855  -1.790  26.592  0.00  0.00    +0.007 C 
ENDBRANCH  16  17
ENDBRANCH  11  16
ENDBRANCH   8  11
ENDBRANCH   5   7
ENDBRANCH   1   5
BRANCH   3  20
ATOM     20  C   UNL     1       9.309  -1.879  22.545  0.00  0.00    +0.221 C 
BRANCH  20  21
ATOM     21  O   UNL     1       9.492  -0.897  21.512  0.00  0.00    -0.381 OA
ATOM     22  H   UNL     1       8.605  -0.669  21.183  0.00  0.00    +0.211 HD
ENDBRANCH  20  21
BRANCH  20  23
ATOM     23  C   UNL     1       9.664  -1.335  23.966  0.00  0.00    +0.119 C 
BRANCH  23  24
ATOM     24  C   UNL     1       9.614   0.191  24.049  0.00  0.00    -0.028 A 
ATOM     25  C   UNL     1      10.749   0.965  23.756  0.00  0.00    +0.005 A 
ATOM     26  C   UNL     1      10.693   2.362  23.763  0.00  0.00    +0.003 A 
ATOM     27  C   UNL     1       9.497   3.025  24.054  0.00  0.00    -0.050 A 
ATOM     28  C   UNL     1       9.446   4.524  24.011  0.00  0.00    +0.044 C 
ATOM     29  C   UNL     1       8.366   2.263  24.365  0.00  0.00    +0.003 A 
ATOM     30  C   UNL     1       8.423   0.863  24.363  0.00  0.00    +0.005 A 
ENDBRANCH  23  24
BRANCH  23  31
ATOM     31  N   UNL     1       8.840  -1.898  25.053  0.00  0.00    -0.321 NA
ATOM     32  H   UNL     1       9.255  -1.673  25.954  0.00  0.00    +0.119 HD
ATOM     33  H   UNL     1       7.922  -1.456  25.028  0.00  0.00    +0.119 HD
ENDBRANCH  23  31
ENDBRANCH  20  23
ENDBRANCH   3  20
TORSDOF 12
ENDMDL
MODEL 4
REMARK VINA RESULT:      -6.4      2.873      8.978
REMARK  Name = 
REMARK  17 active torsions:
REMARK  status: ('A' for Active; 'I' for Inactive)
REMARK    1  A    between atoms: C_2  and  C_3
REMARK    2  A    between atoms: C_2  and  N_4
REMARK    3  A    between atoms: C_2  and  C_20
REMARK    4  A    between atoms: C_5  and  C_7
REMARK    5  A    between atoms: C_7  and  O_9
REMARK    6  A    between atoms: C_7  and  C_10
REMARK    7  A    between atoms: C_10  and  N_12
REMARK    8  A    between atoms: C_10  and  C_13
REMARK    9  A    between atoms: C_16  and  C_17
REMARK   10  A    between atoms: N_22  and  C_23
REMARK   11  A    between atoms: C_23  and  C_25
REMARK   12  A    between atoms: C_23  and  C_29
REMARK   13  A    between atoms: C_25  and  C_26
REMARK   14  A    between atoms: C_26  and  C_27
REMARK   15  A    between atoms: C_26  and  C_28
REMARK   16  A    between atoms: C_29  and  O_31
REMARK   17  A    between atoms: O_31  and  C_32
REMARK                            x       y       z     vdW  Elec       q    Type
REMARK                         _______ _______ _______ _____ _____    ______ ____
ROOT
ATOM      1  N   UNL     1       8.457  -0.473  24.101  0.00  0.00    -0.302 N 
ATOM      2  H   UNL     1       7.453  -0.363  24.246  0.00  0.00    +0.150 HD
ATOM      3  C   UNL     1       8.902  -0.173  22.830  0.00  0.00    +0.244 C 
ATOM      4  O   UNL     1      10.006  -0.511  22.413  0.00  0.00    -0.273 OA
ENDROOT
BRANCH   1   5
ATOM      5  C   UNL     1       9.221  -1.275  25.051  0.00  0.00    +0.156 C 
ATOM      6  C   UNL     1       8.726  -1.024  26.471  0.00  0.00    +0.038 C 
BRANCH   5   7
ATOM      7  C   UNL     1       9.061  -2.765  24.694  0.00  0.00    +0.234 C 
ATOM      8  N   UNL     1       7.893  -3.334  25.144  0.00  0.00    -0.301 N 
ATOM      9  H   UNL     1       7.384  -2.829  25.871  0.00  0.00    +0.150 HD
ATOM     10  O   UNL     1       9.942  -3.405  24.123  0.00  0.00    -0.274 OA
BRANCH   8  11
ATOM     11  C   UNL     1       7.616  -4.774  25.029  0.00  0.00    +0.182 C 
BRANCH  11  12
ATOM     12  C   UNL     1       7.155  -5.346  26.389  0.00  0.00    +0.327 C 
ATOM     13  O   UNL     1       7.611  -5.010  27.474  0.00  0.00    -0.249 OA
BRANCH  12  14
ATOM     14  O   UNL     1       6.174  -6.281  26.216  0.00  0.00    -0.467 OA
ATOM     15  C   UNL     1       5.198  -6.325  27.256  0.00  0.00    +0.280 C 
ENDBRANCH  12  14
ENDBRANCH  11  12
BRANCH  11  16
ATOM     16  C   UNL     1       6.543  -5.082  23.965  0.00  0.00    +0.036 C 
BRANCH  16  17
ATOM     17  C   UNL     1       6.962  -4.838  22.498  0.00  0.00    -0.015 C 
ATOM     18  C   UNL     1       6.228  -3.623  21.919  0.00  0.00    +0.007 C 
ATOM     19  C   UNL     1       6.696  -6.045  21.597  0.00  0.00    +0.007 C 
ENDBRANCH  16  17
ENDBRANCH  11  16
ENDBRANCH   8  11
ENDBRANCH   5   7
ENDBRANCH   1   5
BRANCH   3  20
ATOM     20  C   UNL     1       7.905   0.679  22.014  0.00  0.00    +0.221 C 
BRANCH  20  21
ATOM     21  O   UNL     1       6.630   0.656  22.679  0.00  0.00    -0.381 OA
ATOM     22  H   UNL     1       6.590   1.455  23.233  0.00  0.00    +0.211 HD
ENDBRANCH  20  21
BRANCH  20  23
ATOM     23  C   UNL     1       8.465   2.125  21.830  0.00  0.00    +0.119 C 
BRANCH  23  24
ATOM     24  C   UNL     1       8.041   3.075  22.952  0.00  0.00    -0.028 A 
ATOM     25  C   UNL     1       8.724   3.089  24.180  0.00  0.00    +0.005 A 
ATOM     26  C   UNL     1       8.387   4.001  25.184  0.00  0.00    +0.003 A 
ATOM     27  C   UNL     1       7.363   4.932  24.985  0.00  0.00    -0.050 A 
ATOM     28  C   UNL     1       7.047   5.934  26.058  0.00  0.00    +0.044 C 
ATOM     29  C   UNL     1       6.666   4.915  23.773  0.00  0.00    +0.003 A 
ATOM     30  C   UNL     1       7.000   3.997  22.768  0.00  0.00    +0.005 A 
ENDBRANCH  23  24
BRANCH  23  31
ATOM     31  N   UNL     1       9.931   2.192  21.678  0.00  0.00    -0.321 NA
ATOM     32  H   UNL     1      10.374   2.194  22.594  0.00  0.00    +0.119 HD
ATOM     33  H   UNL     1      10.246   1.352  21.195  0.00  0.00    +0.119 HD
ENDBRANCH  23  31
ENDBRANCH  20  23
ENDBRANCH   3  20
TORSDOF 12
ENDMDL
MODEL 5
REMARK VINA RESULT:      -6.3      4.040      9.477
REMARK  Name = 
REMARK  17 active torsions:
REMARK  status: ('A' for Active; 'I' for Inactive)
REMARK    1  A    between atoms: C_2  and  C_3
REMARK    2  A    between atoms: C_2  and  N_4
REMARK    3  A    between atoms: C_2  and  C_20
REMARK    4  A    between atoms: C_5  and  C_7
REMARK    5  A    between atoms: C_7  and  O_9
REMARK    6  A    between atoms: C_7  and  C_10
REMARK    7  A    between atoms: C_10  and  N_12
REMARK    8  A    between atoms: C_10  and  C_13
REMARK    9  A    between atoms: C_16  and  C_17
REMARK   10  A    between atoms: N_22  and  C_23
REMARK   11  A    between atoms: C_23  and  C_25
REMARK   12  A    between atoms: C_23  and  C_29
REMARK   13  A    between atoms: C_25  and  C_26
REMARK   14  A    between atoms: C_26  and  C_27
REMARK   15  A    between atoms: C_26  and  C_28
REMARK   16  A    between atoms: C_29  and  O_31
REMARK   17  A    between atoms: O_31  and  C_32
REMARK                            x       y       z     vdW  Elec       q    Type
REMARK                         _______ _______ _______ _____ _____    ______ ____
ROOT
ATOM      1  N   UNL     1       6.033  -4.179  23.104  0.00  0.00    -0.302 N 
ATOM      2  H   UNL     1       6.154  -3.848  24.061  0.00  0.00    +0.150 HD
ATOM      3  C   UNL     1       6.023  -3.191  22.139  0.00  0.00    +0.244 C 
ATOM      4  O   UNL     1       5.618  -3.380  20.996  0.00  0.00    -0.273 OA
ENDROOT
BRANCH   1   5
ATOM      5  C   UNL     1       5.503  -5.520  22.884  0.00  0.00    +0.156 C 
ATOM      6  C   UNL     1       6.556  -6.400  22.218  0.00  0.00    +0.038 C 
BRANCH   5   7
ATOM      7  C   UNL     1       5.091  -6.126  24.239  0.00  0.00    +0.234 C 
ATOM      8  N   UNL     1       5.369  -5.329  25.325  0.00  0.00    -0.301 N 
ATOM      9  H   UNL     1       6.036  -4.569  25.180  0.00  0.00    +0.150 HD
ATOM     10  O   UNL     1       4.626  -7.259  24.341  0.00  0.00    -0.274 OA
BRANCH   8  11
ATOM     11  C   UNL     1       5.183  -5.785  26.711  0.00  0.00    +0.182 C 
BRANCH  11  12
ATOM     12  C   UNL     1       6.521  -5.727  27.483  0.00  0.00    +0.327 C 
ATOM     13  O   UNL     1       6.617  -5.597  28.697  0.00  0.00    -0.249 OA
BRANCH  12  14
ATOM     14  O   UNL     1       7.581  -5.834  26.630  0.00  0.00    -0.467 OA
ATOM     15  C   UNL     1       8.495  -4.738  26.668  0.00  0.00    +0.280 C 
ENDBRANCH  12  14
ENDBRANCH  11  12
BRANCH  11  16
ATOM     16  C   UNL     1       4.131  -4.947  27.467  0.00  0.00    +0.036 C 
BRANCH  16  17
ATOM     17  C   UNL     1       2.669  -5.426  27.330  0.00  0.00    -0.015 C 
ATOM     18  C   UNL     1       2.609  -6.951  27.188  0.00  0.00    +0.007 C 
ATOM     19  C   UNL     1       1.948  -4.795  26.137  0.00  0.00    +0.007 C 
ENDBRANCH  16  17
ENDBRANCH  11  16
ENDBRANCH   8  11
ENDBRANCH   5   7
ENDBRANCH   1   5
BRANCH   3  20
ATOM     20  C   UNL     1       6.629  -1.855  22.621  0.00  0.00    +0.221 C 
BRANCH  20  21
ATOM     21  O   UNL     1       6.148  -1.584  23.949  0.00  0.00    -0.381 OA
ATOM     22  H   UNL     1       5.866  -2.437  24.323  0.00  0.00    +0.211 HD
ENDBRANCH  20  21
BRANCH  20  23
ATOM     23  C   UNL     1       8.188  -1.918  22.545  0.00  0.00    +0.119 C 
BRANCH  23  24
ATOM     24  C   UNL     1       8.851  -0.557  22.766  0.00  0.00    -0.028 A 
ATOM     25  C   UNL     1       9.238  -0.146  24.053  0.00  0.00    +0.005 A 
ATOM     26  C   UNL     1       9.906   1.066  24.254  0.00  0.00    +0.003 A 
ATOM     27  C   UNL     1      10.213   1.897  23.173  0.00  0.00    -0.050 A 
ATOM     28  C   UNL     1      10.971   3.172  23.403  0.00  0.00    +0.044 C 
ATOM     29  C   UNL     1       9.816   1.505  21.890  0.00  0.00    +0.003 A 
ATOM     30  C   UNL     1       9.142   0.292  21.689  0.00  0.00    +0.005 A 
ENDBRANCH  23  24
BRANCH  23  31
ATOM     31  N   UNL     1       8.800  -2.900  23.460  0.00  0.00    -0.321 NA
ATOM     32  H   UNL     1       9.814  -2.824  23.420  0.00  0.00    +0.119 HD
ATOM     33  H   UNL     1       8.521  -2.673  24.413  0.00  0.00    +0.119 HD
ENDBRANCH  23  31
ENDBRANCH  20  23
ENDBRANCH   3  20
TORSDOF 12
ENDMDL
MODEL 6
REMARK VINA RESULT:      -6.3      3.595      9.858
REMARK  Name = 
REMARK  17 active torsions:
REMARK  status: ('A' for Active; 'I' for Inactive)
REMARK    1  A    between atoms: C_2  and  C_3
REMARK    2  A    between atoms: C_2  and  N_4
REMARK    3  A    between atoms: C_2  and  C_20
REMARK    4  A    between atoms: C_5  and  C_7
REMARK    5  A    between atoms: C_7  and  O_9
REMARK    6  A    between atoms: C_7  and  C_10
REMARK    7  A    between atoms: C_10  and  N_12
REMARK    8  A    between atoms: C_10  and  C_13
REMARK    9  A    between atoms: C_16  and  C_17
REMARK   10  A    between atoms: N_22  and  C_23
REMARK   11  A    between atoms: C_23  and  C_25
REMARK   12  A    between atoms: C_23  and  C_29
REMARK   13  A    between atoms: C_25  and  C_26
REMARK   14  A    between atoms: C_26  and  C_27
REMARK   15  A    between atoms: C_26  and  C_28
REMARK   16  A    between atoms: C_29  and  O_31
REMARK   17  A    between atoms: O_31  and  C_32
REMARK                            x       y       z     vdW  Elec       q    Type
REMARK                         _______ _______ _______ _____ _____    ______ ____
ROOT
ATOM      1  N   UNL     1       7.975  -3.298  24.446  0.00  0.00    -0.302 N 
ATOM      2  H   UNL     1       7.899  -2.357  24.832  0.00  0.00    +0.150 HD
ATOM      3  C   UNL     1       7.831  -3.383  23.076  0.00  0.00    +0.244 C 
ATOM      4  O   UNL     1       7.620  -4.441  22.492  0.00  0.00    -0.273 OA
ENDROOT
BRANCH   1   5
ATOM      5  C   UNL     1       7.824  -4.440  25.341  0.00  0.00    +0.156 C 
ATOM      6  C   UNL     1       8.621  -4.215  26.622  0.00  0.00    +0.038 C 
BRANCH   5   7
ATOM      7  C   UNL     1       6.332  -4.624  25.675  0.00  0.00    +0.234 C 
ATOM      8  N   UNL     1       5.675  -5.519  24.863  0.00  0.00    -0.301 N 
ATOM      9  H   UNL     1       6.133  -5.767  23.984  0.00  0.00    +0.150 HD
ATOM     10  O   UNL     1       5.764  -3.965  26.543  0.00  0.00    -0.274 OA
BRANCH   8  11
ATOM     11  C   UNL     1       4.221  -5.729  24.928  0.00  0.00    +0.182 C 
BRANCH  11  12
ATOM     12  C   UNL     1       3.624  -5.819  23.504  0.00  0.00    +0.327 C 
ATOM     13  O   UNL     1       4.145  -5.348  22.502  0.00  0.00    -0.249 OA
BRANCH  12  14
ATOM     14  O   UNL     1       2.434  -6.490  23.517  0.00  0.00    -0.467 OA
ATOM     15  C   UNL     1       1.360  -5.816  22.863  0.00  0.00    +0.280 C 
ENDBRANCH  12  14
ENDBRANCH  11  12
BRANCH  11  16
ATOM     16  C   UNL     1       3.847  -7.004  25.710  0.00  0.00    +0.036 C 
BRANCH  16  17
ATOM     17  C   UNL     1       3.365  -6.784  27.161  0.00  0.00    -0.015 C 
ATOM     18  C   UNL     1       2.616  -5.452  27.287  0.00  0.00    +0.007 C 
ATOM     19  C   UNL     1       4.510  -6.797  28.175  0.00  0.00    +0.007 C 
ENDBRANCH  16  17
ENDBRANCH  11  16
ENDBRANCH   8  11
ENDBRANCH   5   7
ENDBRANCH   1   5
BRANCH   3  20
ATOM     20  C   UNL     1       8.026  -2.032  22.353  0.00  0.00    +0.221 C 
BRANCH  20  21
ATOM     21  O   UNL     1       7.270  -1.025  23.046  0.00  0.00    -0.381 OA
ATOM     22  H   UNL     1       6.528  -1.482  23.479  0.00  0.00    +0.211 HD
ENDBRANCH  20  21
BRANCH  20  23
ATOM     23  C   UNL     1       9.548  -1.690  22.262  0.00  0.00    +0.119 C 
BRANCH  23  24
ATOM     24  C   UNL     1       9.853  -0.234  22.620  0.00  0.00    -0.028 A 
ATOM     25  C   UNL     1      10.408   0.099  23.867  0.00  0.00    +0.005 A 
ATOM     26  C   UNL     1      10.754   1.419  24.174  0.00  0.00    +0.003 A 
ATOM     27  C   UNL     1      10.562   2.441  23.240  0.00  0.00    -0.050 A 
ATOM     28  C   UNL     1      10.982   3.843  23.571  0.00  0.00    +0.044 C 
ATOM     29  C   UNL     1       9.994   2.121  22.002  0.00  0.00    +0.003 A 
ATOM     30  C   UNL     1       9.643   0.799  21.696  0.00  0.00    +0.005 A 
ENDBRANCH  23  24
BRANCH  23  31
ATOM     31  N   UNL     1      10.415  -2.570  23.068  0.00  0.00    -0.321 NA
ATOM     32  H   UNL     1      11.392  -2.367  22.871  0.00  0.00    +0.119 HD
ATOM     33  H   UNL     1      10.260  -2.364  24.054  0.00  0.00    +0.119 HD
ENDBRANCH  23  31
ENDBRANCH  20  23
ENDBRANCH   3  20
TORSDOF 12
ENDMDL
MODEL 7
REMARK VINA RESULT:      -6.2      2.428      9.220
REMARK  Name = 
REMARK  17 active torsions:
REMARK  status: ('A' for Active; 'I' for Inactive)
REMARK    1  A    between atoms: C_2  and  C_3
REMARK    2  A    between atoms: C_2  and  N_4
REMARK    3  A    between atoms: C_2  and  C_20
REMARK    4  A    between atoms: C_5  and  C_7
REMARK    5  A    between atoms: C_7  and  O_9
REMARK    6  A    between atoms: C_7  and  C_10
REMARK    7  A    between atoms: C_10  and  N_12
REMARK    8  A    between atoms: C_10  and  C_13
REMARK    9  A    between atoms: C_16  and  C_17
REMARK   10  A    between atoms: N_22  and  C_23
REMARK   11  A    between atoms: C_23  and  C_25
REMARK   12  A    between atoms: C_23  and  C_29
REMARK   13  A    between atoms: C_25  and  C_26
REMARK   14  A    between atoms: C_26  and  C_27
REMARK   15  A    between atoms: C_26  and  C_28
REMARK   16  A    between atoms: C_29  and  O_31
REMARK   17  A    between atoms: O_31  and  C_32
REMARK                            x       y       z     vdW  Elec       q    Type
REMARK                         _______ _______ _______ _____ _____    ______ ____
ROOT
ATOM      1  N   UNL     1       9.320  -1.505  23.961  0.00  0.00    -0.302 N 
ATOM      2  H   UNL     1       9.027  -1.936  23.084  0.00  0.00    +0.150 HD
ATOM      3  C   UNL     1      10.149  -0.410  23.829  0.00  0.00    +0.244 C 
ATOM      4  O   UNL     1      10.805   0.046  24.761  0.00  0.00    -0.273 OA
ENDROOT
BRANCH   1   5
ATOM      5  C   UNL     1       9.192  -2.271  25.197  0.00  0.00    +0.156 C 
ATOM      6  C   UNL     1       8.163  -1.620  26.116  0.00  0.00    +0.038 C 
BRANCH   5   7
ATOM      7  C   UNL     1       8.759  -3.708  24.856  0.00  0.00    +0.234 C 
ATOM      8  N   UNL     1       7.403  -3.924  24.929  0.00  0.00    -0.301 N 
ATOM      9  H   UNL     1       6.852  -3.233  25.440  0.00  0.00    +0.150 HD
ATOM     10  O   UNL     1       9.568  -4.602  24.616  0.00  0.00    -0.274 OA
BRANCH   8  11
ATOM     11  C   UNL     1       6.803  -5.259  24.778  0.00  0.00    +0.182 C 
BRANCH  11  12
ATOM     12  C   UNL     1       6.015  -5.645  26.051  0.00  0.00    +0.327 C 
ATOM     13  O   UNL     1       5.478  -6.731  26.233  0.00  0.00    -0.249 OA
BRANCH  12  14
ATOM     14  O   UNL     1       5.993  -4.611  26.943  0.00  0.00    -0.467 OA
ATOM     15  C   UNL     1       4.690  -4.208  27.361  0.00  0.00    +0.280 C 
ENDBRANCH  12  14
ENDBRANCH  11  12
BRANCH  11  16
ATOM     16  C   UNL     1       5.860  -5.344  23.560  0.00  0.00    +0.036 C 
BRANCH  16  17
ATOM     17  C   UNL     1       6.470  -4.910  22.209  0.00  0.00    -0.015 C 
ATOM     18  C   UNL     1       5.984  -3.508  21.821  0.00  0.00    +0.007 C 
ATOM     19  C   UNL     1       6.136  -5.875  21.070  0.00  0.00    +0.007 C 
ENDBRANCH  16  17
ENDBRANCH  11  16
ENDBRANCH   8  11
ENDBRANCH   5   7
ENDBRANCH   1   5
BRANCH   3  20
ATOM     20  C   UNL     1      10.117   0.219  22.419  0.00  0.00    +0.221 C 
BRANCH  20  21
ATOM     21  O   UNL     1       9.976  -0.833  21.450  0.00  0.00    -0.381 OA
ATOM     22  H   UNL     1      10.847  -1.259  21.372  0.00  0.00    +0.211 HD
ENDBRANCH  20  21
BRANCH  20  23
ATOM     23  C   UNL     1       8.971   1.277  22.332  0.00  0.00    +0.119 C 
BRANCH  23  24
ATOM     24  C   UNL     1       9.385   2.648  22.870  0.00  0.00    -0.028 A 
ATOM     25  C   UNL     1       8.422   3.556  23.342  0.00  0.00    +0.005 A 
ATOM     26  C   UNL     1       8.798   4.783  23.898  0.00  0.00    +0.003 A 
ATOM     27  C   UNL     1      10.147   5.132  24.006  0.00  0.00    -0.050 A 
ATOM     28  C   UNL     1      10.532   6.434  24.648  0.00  0.00    +0.044 C 
ATOM     29  C   UNL     1      11.112   4.243  23.522  0.00  0.00    +0.003 A 
ATOM     30  C   UNL     1      10.736   3.015  22.960  0.00  0.00    +0.005 A 
ENDBRANCH  23  24
BRANCH  23  31
ATOM     31  N   UNL     1       8.405   1.447  20.980  0.00  0.00    -0.321 NA
ATOM     32  H   UNL     1       8.746   2.313  20.569  0.00  0.00    +0.119 HD
ATOM     33  H   UNL     1       8.736   0.685  20.391  0.00  0.00    +0.119 HD
ENDBRANCH  23  31
ENDBRANCH  20  23
ENDBRANCH   3  20
TORSDOF 12
ENDMDL
MODEL 8
REMARK VINA RESULT:      -6.1      1.436      1.976
REMARK  Name = 
REMARK  17 active torsions:
REMARK  status: ('A' for Active; 'I' for Inactive)
REMARK    1  A    between atoms: C_2  and  C_3
REMARK    2  A    between atoms: C_2  and  N_4
REMARK    3  A    between atoms: C_2  and  C_20
REMARK    4  A    between atoms: C_5  and  C_7
REMARK    5  A    between atoms: C_7  and  O_9
REMARK    6  A    between atoms: C_7  and  C_10
REMARK    7  A    between atoms: C_10  and  N_12
REMARK    8  A    between atoms: C_10  and  C_13
REMARK    9  A    between atoms: C_16  and  C_17
REMARK   10  A    between atoms: N_22  and  C_23
REMARK   11  A    between atoms: C_23  and  C_25
REMARK   12  A    between atoms: C_23  and  C_29
REMARK   13  A    between atoms: C_25  and  C_26
REMARK   14  A    between atoms: C_26  and  C_27
REMARK   15  A    between atoms: C_26  and  C_28
REMARK   16  A    between atoms: C_29  and  O_31
REMARK   17  A    between atoms: O_31  and  C_32
REMARK                            x       y       z     vdW  Elec       q    Type
REMARK                         _______ _______ _______ _____ _____    ______ ____
ROOT
ATOM      1  N   UNL     1       9.140   0.453  23.803  0.00  0.00    -0.302 N 
ATOM      2  H   UNL     1       8.499   0.734  24.545  0.00  0.00    +0.150 HD
ATOM      3  C   UNL     1       9.504  -0.878  23.813  0.00  0.00    +0.244 C 
ATOM      4  O   UNL     1      10.460  -1.313  23.179  0.00  0.00    -0.273 OA
ENDROOT
BRANCH   1   5
ATOM      5  C   UNL     1       9.891   1.485  23.095  0.00  0.00    +0.156 C 
ATOM      6  C   UNL     1       9.390   1.612  21.661  0.00  0.00    +0.038 C 
BRANCH   5   7
ATOM      7  C   UNL     1       9.722   2.826  23.833  0.00  0.00    +0.234 C 
ATOM      8  N   UNL     1      10.484   3.852  23.327  0.00  0.00    -0.301 N 
ATOM      9  H   UNL     1      11.260   3.593  22.716  0.00  0.00    +0.150 HD
ATOM     10  O   UNL     1       9.023   2.942  24.838  0.00  0.00    -0.274 OA
BRANCH   8  11
ATOM     11  C   UNL     1      10.571   5.170  23.975  0.00  0.00    +0.182 C 
BRANCH  11  12
ATOM     12  C   UNL     1      12.029   5.686  23.957  0.00  0.00    +0.327 C 
ATOM     13  O   UNL     1      12.434   6.643  24.604  0.00  0.00    -0.249 OA
BRANCH  12  14
ATOM     14  O   UNL     1      12.801   4.934  23.119  0.00  0.00    -0.467 OA
ATOM     15  C   UNL     1      13.423   5.664  22.062  0.00  0.00    +0.280 C 
ENDBRANCH  12  14
ENDBRANCH  11  12
BRANCH  11  16
ATOM     16  C   UNL     1       9.660   6.216  23.302  0.00  0.00    +0.036 C 
BRANCH  16  17
ATOM     17  C   UNL     1       8.499   6.752  24.168  0.00  0.00    -0.015 C 
ATOM     18  C   UNL     1       8.827   6.613  25.659  0.00  0.00    +0.007 C 
ATOM     19  C   UNL     1       7.175   6.038  23.891  0.00  0.00    +0.007 C 
ENDBRANCH  16  17
ENDBRANCH  11  16
ENDBRANCH   8  11
ENDBRANCH   5   7
ENDBRANCH   1   5
BRANCH   3  20
ATOM     20  C   UNL     1       8.554  -1.768  24.644  0.00  0.00    +0.221 C 
BRANCH  20  21
ATOM     21  O   UNL     1       7.263  -1.137  24.700  0.00  0.00    -0.381 OA
ATOM     22  H   UNL     1       7.283  -0.528  25.458  0.00  0.00    +0.211 HD
ENDBRANCH  20  21
BRANCH  20  23
ATOM     23  C   UNL     1       8.497  -3.205  24.033  0.00  0.00    +0.119 C 
BRANCH  23  24
ATOM     24  C   UNL     1       7.643  -4.169  24.857  0.00  0.00    -0.028 A 
ATOM     25  C   UNL     1       7.959  -4.445  26.198  0.00  0.00    +0.005 A 
ATOM     26  C   UNL     1       7.144  -5.271  26.978  0.00  0.00    +0.003 A 
ATOM     27  C   UNL     1       5.985  -5.839  26.441  0.00  0.00    -0.050 A 
ATOM     28  C   UNL     1       5.098  -6.686  27.307  0.00  0.00    +0.044 C 
ATOM     29  C   UNL     1       5.671  -5.585  25.102  0.00  0.00    +0.003 A 
ATOM     30  C   UNL     1       6.491  -4.760  24.318  0.00  0.00    +0.005 A 
ENDBRANCH  23  24
BRANCH  23  31
ATOM     31  N   UNL     1       8.045  -3.249  22.629  0.00  0.00    -0.321 NA
ATOM     32  H   UNL     1       8.012  -4.213  22.307  0.00  0.00    +0.119 HD
ATOM     33  H   UNL     1       7.094  -2.885  22.583  0.00  0.00    +0.119 HD
ENDBRANCH  23  31
ENDBRANCH  20  23
ENDBRANCH   3  20
TORSDOF 12
ENDMDL
MODEL 9
REMARK VINA RESULT:      -6.1      3.643      9.580
REMARK  Name = 
REMARK  17 active torsions:
REMARK  status: ('A' for Active; 'I' for Inactive)
REMARK    1  A    between atoms: C_2  and  C_3
REMARK    2  A    between atoms: C_2  and  N_4
REMARK    3  A    between atoms: C_2  and  C_20
REMARK    4  A    between atoms: C_5  and  C_7
REMARK    5  A    between atoms: C_7  and  O_9
REMARK    6  A    between atoms: C_7  and  C_10
REMARK    7  A    between atoms: C_10  and  N_12
REMARK    8  A    between atoms: C_10  and  C_13
REMARK    9  A    between atoms: C_16  and  C_17
REMARK   10  A    between atoms: N_22  and  C_23
REMARK   11  A    between atoms: C_23  and  C_25
REMARK   12  A    between atoms: C_23  and  C_29
REMARK   13  A    between atoms: C_25  and  C_26
REMARK   14  A    between atoms: C_26  and  C_27
REMARK   15  A    between atoms: C_26  and  C_28
REMARK   16  A    between atoms: C_29  and  O_31
REMARK   17  A    between atoms: O_31  and  C_32
REMARK                            x       y       z     vdW  Elec       q    Type
REMARK                         _______ _______ _______ _____ _____    ______ ____
ROOT
ATOM      1  N   UNL     1       7.902  -3.750  24.546  0.00  0.00    -0.302 N 
ATOM      2  H   UNL     1       7.737  -2.877  25.048  0.00  0.00    +0.150 HD
ATOM      3  C   UNL     1       7.847  -3.655  23.170  0.00  0.00    +0.244 C 
ATOM      4  O   UNL     1       7.746  -4.634  22.437  0.00  0.00    -0.273 OA
ENDROOT
BRANCH   1   5
ATOM      5  C   UNL     1       7.778  -5.011  25.269  0.00  0.00    +0.156 C 
ATOM      6  C   UNL     1       8.382  -4.880  26.663  0.00  0.00    +0.038 C 
BRANCH   5   7
ATOM      7  C   UNL     1       6.288  -5.386  25.373  0.00  0.00    +0.234 C 
ATOM      8  N   UNL     1       5.454  -4.619  24.595  0.00  0.00    -0.301 N 
ATOM      9  H   UNL     1       5.831  -3.737  24.244  0.00  0.00    +0.150 HD
ATOM     10  O   UNL     1       5.877  -6.248  26.148  0.00  0.00    -0.274 OA
BRANCH   8  11
ATOM     11  C   UNL     1       3.988  -4.725  24.660  0.00  0.00    +0.182 C 
BRANCH  11  12
ATOM     12  C   UNL     1       3.380  -3.444  25.276  0.00  0.00    +0.327 C 
ATOM     13  O   UNL     1       3.973  -2.379  25.389  0.00  0.00    -0.249 OA
BRANCH  12  14
ATOM     14  O   UNL     1       2.095  -3.662  25.683  0.00  0.00    -0.467 OA
ATOM     15  C   UNL     1       1.954  -4.611  26.739  0.00  0.00    +0.280 C 
ENDBRANCH  12  14
ENDBRANCH  11  12
BRANCH  11  16
ATOM     16  C   UNL     1       3.355  -4.963  23.273  0.00  0.00    +0.036 C 
BRANCH  16  17
ATOM     17  C   UNL     1       2.654  -6.326  23.082  0.00  0.00    -0.015 C 
ATOM     18  C   UNL     1       1.143  -6.137  22.899  0.00  0.00    +0.007 C 
ATOM     19  C   UNL     1       2.888  -7.284  24.251  0.00  0.00    +0.007 C 
ENDBRANCH  16  17
ENDBRANCH  11  16
ENDBRANCH   8  11
ENDBRANCH   5   7
ENDBRANCH   1   5
BRANCH   3  20
ATOM     20  C   UNL     1       7.990  -2.209  22.647  0.00  0.00    +0.221 C 
BRANCH  20  21
ATOM     21  O   UNL     1       7.319  -1.322  23.558  0.00  0.00    -0.381 OA
ATOM     22  H   UNL     1       6.365  -1.416  23.388  0.00  0.00    +0.211 HD
ENDBRANCH  20  21
BRANCH  20  23
ATOM     23  C   UNL     1       9.501  -1.855  22.463  0.00  0.00    +0.119 C 
BRANCH  23  24
ATOM     24  C   UNL     1       9.806  -0.382  22.742  0.00  0.00    -0.028 A 
ATOM     25  C   UNL     1      10.376   0.016  23.963  0.00  0.00    +0.005 A 
ATOM     26  C   UNL     1      10.721   1.350  24.198  0.00  0.00    +0.003 A 
ATOM     27  C   UNL     1      10.514   2.323  23.216  0.00  0.00    -0.050 A 
ATOM     28  C   UNL     1      10.934   3.741  23.470  0.00  0.00    +0.044 C 
ATOM     29  C   UNL     1       9.931   1.940  22.004  0.00  0.00    +0.003 A 
ATOM     30  C   UNL     1       9.580   0.603  21.769  0.00  0.00    +0.005 A 
ENDBRANCH  23  24
BRANCH  23  31
ATOM     31  N   UNL     1      10.420  -2.691  23.259  0.00  0.00    -0.321 NA
ATOM     32  H   UNL     1       9.907  -3.150  24.009  0.00  0.00    +0.119 HD
ATOM     33  H   UNL     1      10.793  -3.424  22.659  0.00  0.00    +0.119 HD
ENDBRANCH  23  31
ENDBRANCH  20  23
ENDBRANCH   3  20
TORSDOF 12
ENDMDL
