MODEL 1
REMARK VINA RESULT:      -5.3      0.000      0.000
REMARK  Name = 
REMARK  2 active torsions:
REMARK  status: ('A' for Active; 'I' for Inactive)
REMARK    1  A    between atoms: O_1  and  C_2
REMARK    2  A    between atoms: C_9  and  N_12
REMARK                            x       y       z     vdW  Elec       q    Type
REMARK                         _______ _______ _______ _____ _____    ______ ____
ROOT
ATOM      1  C   UNL     1       7.877  -5.076  25.877  0.00  0.00    +0.143 A 
ATOM      2  C   UNL     1       8.553  -4.488  24.813  0.00  0.00    +0.054 A 
ATOM      3  C   UNL     1       7.943  -4.456  23.568  0.00  0.00    +0.088 A 
ATOM      4  C   UNL     1       6.661  -5.011  23.430  0.00  0.00    +0.282 A 
ATOM      5  C   UNL     1       5.963  -5.619  24.511  0.00  0.00    +0.081 A 
ATOM      6  C   UNL     1       4.682  -6.222  24.456  0.00  0.00    +0.018 A 
ATOM      7  C   UNL     1       4.120  -6.800  25.589  0.00  0.00    +0.021 A 
ATOM      8  C   UNL     1       4.847  -6.767  26.760  0.00  0.00    +0.111 A 
ATOM      9  N   UNL     1       6.068  -6.201  26.866  0.00  0.00    -0.251 NA
ATOM     10  C   UNL     1       6.609  -5.645  25.762  0.00  0.00    +0.119 A 
ENDROOT
BRANCH   4  11
ATOM     11  N   UNL     1       6.064  -4.955  22.108  0.00  0.00    +0.080 N 
ATOM     12  O   UNL     1       6.361  -5.861  21.318  0.00  0.00    +0.041 OA
ATOM     13  O   UNL     1       5.319  -3.998  21.860  0.00  0.00    -0.576 OA
ENDBRANCH   4  11
BRANCH   1  14
ATOM     14  O   UNL     1       8.507  -5.095  27.100  0.00  0.00    -0.505 OA
ATOM     15  H   UNL     1       9.399  -5.453  26.904  0.00  0.00    +0.292 HD
ENDBRANCH   1  14
TORSDOF 2
ENDMDL
MODEL 2
REMARK VINA RESULT:      -5.3      2.483      4.400
REMARK  Name = 
REMARK  2 active torsions:
REMARK  status: ('A' for Active; 'I' for Inactive)
REMARK    1  A    between atoms: O_1  and  C_2
REMARK    2  A    between atoms: C_9  and  N_12
REMARK                            x       y       z     vdW  Elec       q    Type
REMARK                         _______ _______ _______ _____ _____    ______ ____
ROOT
ATOM      1  C   UNL     1       9.039  -4.619  24.803  0.00  0.00    +0.143 A 
ATOM      2  C   UNL     1       7.912  -5.323  25.212  0.00  0.00    +0.054 A 
ATOM      3  C   UNL     1       6.661  -4.875  24.814  0.00  0.00    +0.088 A 
ATOM      4  C   UNL     1       6.581  -3.730  24.005  0.00  0.00    +0.282 A 
ATOM      5  C   UNL     1       7.727  -3.000  23.586  0.00  0.00    +0.081 A 
ATOM      6  C   UNL     1       7.737  -1.826  22.792  0.00  0.00    +0.018 A 
ATOM      7  C   UNL     1       8.935  -1.198  22.468  0.00  0.00    +0.021 A 
ATOM      8  C   UNL     1      10.105  -1.751  22.943  0.00  0.00    +0.111 A 
ATOM      9  N   UNL     1      10.150  -2.869  23.698  0.00  0.00    -0.251 NA
ATOM     10  C   UNL     1       8.984  -3.472  24.011  0.00  0.00    +0.119 A 
ENDROOT
BRANCH   4  11
ATOM     11  N   UNL     1       5.251  -3.298  23.615  0.00  0.00    +0.080 N 
ATOM     12  O   UNL     1       4.656  -2.540  24.391  0.00  0.00    +0.041 OA
ATOM     13  O   UNL     1       4.801  -3.735  22.547  0.00  0.00    -0.576 OA
ENDBRANCH   4  11
BRANCH   1  14
ATOM     14  O   UNL     1      10.266  -5.086  25.215  0.00  0.00    -0.505 OA
ATOM     15  H   UNL     1      10.065  -5.605  26.023  0.00  0.00    +0.292 HD
ENDBRANCH   1  14
TORSDOF 2
ENDMDL
MODEL 3
REMARK VINA RESULT:      -5.2      2.400      5.589
REMARK  Name = 
REMARK  2 active torsions:
REMARK  status: ('A' for Active; 'I' for Inactive)
REMARK    1  A    between atoms: O_1  and  C_2
REMARK    2  A    between atoms: C_9  and  N_12
REMARK                            x       y       z     vdW  Elec       q    Type
REMARK                         _______ _______ _______ _____ _____    ______ ____
ROOT
ATOM      1  C   UNL     1       6.656  -3.674  22.644  0.00  0.00    +0.143 A 
ATOM      2  C   UNL     1       6.343  -4.723  23.502  0.00  0.00    +0.054 A 
ATOM      3  C   UNL     1       7.237  -5.053  24.510  0.00  0.00    +0.088 A 
ATOM      4  C   UNL     1       8.422  -4.310  24.631  0.00  0.00    +0.282 A 
ATOM      5  C   UNL     1       8.753  -3.239  23.755  0.00  0.00    +0.081 A 
ATOM      6  C   UNL     1       9.932  -2.453  23.791  0.00  0.00    +0.018 A 
ATOM      7  C   UNL     1      10.140  -1.442  22.859  0.00  0.00    +0.021 A 
ATOM      8  C   UNL     1       9.168  -1.232  21.904  0.00  0.00    +0.111 A 
ATOM      9  N   UNL     1       8.026  -1.949  21.831  0.00  0.00    -0.251 NA
ATOM     10  C   UNL     1       7.831  -2.930  22.736  0.00  0.00    +0.119 A 
ENDROOT
BRANCH   4  11
ATOM     11  N   UNL     1       9.327  -4.693  25.699  0.00  0.00    +0.080 N 
ATOM     12  O   UNL     1       9.009  -4.364  26.849  0.00  0.00    +0.041 OA
ATOM     13  O   UNL     1      10.358  -5.301  25.381  0.00  0.00    -0.576 OA
ENDBRANCH   4  11
BRANCH   1  14
ATOM     14  O   UNL     1       5.751  -3.370  21.653  0.00  0.00    -0.505 OA
ATOM     15  H   UNL     1       5.802  -4.135  21.040  0.00  0.00    +0.292 HD
ENDBRANCH   1  14
TORSDOF 2
ENDMDL
MODEL 4
REMARK VINA RESULT:      -5.2      1.289      2.992
REMARK  Name = 
REMARK  2 active torsions:
REMARK  status: ('A' for Active; 'I' for Inactive)
REMARK    1  A    between atoms: O_1  and  C_2
REMARK    2  A    between atoms: C_9  and  N_12
REMARK                            x       y       z     vdW  Elec       q    Type
REMARK                         _______ _______ _______ _____ _____    ______ ____
ROOT
ATOM      1  C   UNL     1       5.298  -6.569  26.198  0.00  0.00    +0.143 A 
ATOM      2  C   UNL     1       4.259  -6.781  25.299  0.00  0.00    +0.054 A 
ATOM      3  C   UNL     1       4.338  -6.208  24.038  0.00  0.00    +0.088 A 
ATOM      4  C   UNL     1       5.470  -5.443  23.714  0.00  0.00    +0.282 A 
ATOM      5  C   UNL     1       6.535  -5.217  24.629  0.00  0.00    +0.081 A 
ATOM      6  C   UNL     1       7.699  -4.443  24.394  0.00  0.00    +0.018 A 
ATOM      7  C   UNL     1       8.661  -4.288  25.388  0.00  0.00    +0.021 A 
ATOM      8  C   UNL     1       8.445  -4.908  26.600  0.00  0.00    +0.111 A 
ATOM      9  N   UNL     1       7.356  -5.659  26.872  0.00  0.00    -0.251 NA
ATOM     10  C   UNL     1       6.426  -5.803  25.905  0.00  0.00    +0.119 A 
ENDROOT
BRANCH   4  11
ATOM     11  N   UNL     1       5.507  -4.863  22.384  0.00  0.00    +0.080 N 
ATOM     12  O   UNL     1       6.081  -5.516  21.502  0.00  0.00    +0.041 OA
ATOM     13  O   UNL     1       4.984  -3.751  22.233  0.00  0.00    -0.576 OA
ENDBRANCH   4  11
BRANCH   1  14
ATOM     14  O   UNL     1       5.191  -7.148  27.442  0.00  0.00    -0.505 OA
ATOM     15  H   UNL     1       5.784  -7.929  27.394  0.00  0.00    +0.292 HD
ENDBRANCH   1  14
TORSDOF 2
ENDMDL
MODEL 5
REMARK VINA RESULT:      -5.1      1.886      4.585
REMARK  Name = 
REMARK  2 active torsions:
REMARK  status: ('A' for Active; 'I' for Inactive)
REMARK    1  A    between atoms: O_1  and  C_2
REMARK    2  A    between atoms: C_9  and  N_12
REMARK                            x       y       z     vdW  Elec       q    Type
REMARK                         _______ _______ _______ _____ _____    ______ ____
ROOT
ATOM      1  C   UNL     1       4.624  -6.808  24.478  0.00  0.00    +0.143 A 
ATOM      2  C   UNL     1       4.586  -6.889  25.866  0.00  0.00    +0.054 A 
ATOM      3  C   UNL     1       5.456  -6.103  26.607  0.00  0.00    +0.088 A 
ATOM      4  C   UNL     1       6.337  -5.247  25.928  0.00  0.00    +0.282 A 
ATOM      5  C   UNL     1       6.387  -5.160  24.509  0.00  0.00    +0.081 A 
ATOM      6  C   UNL     1       7.257  -4.344  23.744  0.00  0.00    +0.018 A 
ATOM      7  C   UNL     1       7.214  -4.369  22.353  0.00  0.00    +0.021 A 
ATOM      8  C   UNL     1       6.303  -5.209  21.749  0.00  0.00    +0.111 A 
ATOM      9  N   UNL     1       5.450  -6.002  22.432  0.00  0.00    -0.251 NA
ATOM     10  C   UNL     1       5.499  -5.975  23.781  0.00  0.00    +0.119 A 
ENDROOT
BRANCH   4  11
ATOM     11  N   UNL     1       7.228  -4.445  26.746  0.00  0.00    +0.080 N 
ATOM     12  O   UNL     1       6.867  -3.289  27.003  0.00  0.00    +0.041 OA
ATOM     13  O   UNL     1       8.292  -4.965  27.107  0.00  0.00    -0.576 OA
ENDBRANCH   4  11
BRANCH   1  14
ATOM     14  O   UNL     1       3.752  -7.601  23.769  0.00  0.00    -0.505 OA
ATOM     15  H   UNL     1       2.868  -7.228  23.976  0.00  0.00    +0.292 HD
ENDBRANCH   1  14
TORSDOF 2
ENDMDL
MODEL 6
REMARK VINA RESULT:      -5.1      5.091      6.689
REMARK  Name = 
REMARK  2 active torsions:
REMARK  status: ('A' for Active; 'I' for Inactive)
REMARK    1  A    between atoms: O_1  and  C_2
REMARK    2  A    between atoms: C_9  and  N_12
REMARK                            x       y       z     vdW  Elec       q    Type
REMARK                         _______ _______ _______ _____ _____    ______ ____
ROOT
ATOM      1  C   UNL     1       9.087   0.948  22.050  0.00  0.00    +0.143 A 
ATOM      2  C   UNL     1       9.451  -0.130  21.249  0.00  0.00    +0.054 A 
ATOM      3  C   UNL     1       9.425  -1.405  21.793  0.00  0.00    +0.088 A 
ATOM      4  C   UNL     1       9.025  -1.563  23.129  0.00  0.00    +0.282 A 
ATOM      5  C   UNL     1       8.656  -0.466  23.957  0.00  0.00    +0.081 A 
ATOM      6  C   UNL     1       8.262  -0.531  25.317  0.00  0.00    +0.018 A 
ATOM      7  C   UNL     1       7.943   0.626  26.019  0.00  0.00    +0.021 A 
ATOM      8  C   UNL     1       8.022   1.831  25.353  0.00  0.00    +0.111 A 
ATOM      9  N   UNL     1       8.387   1.945  24.058  0.00  0.00    -0.251 NA
ATOM     10  C   UNL     1       8.698   0.819  23.383  0.00  0.00    +0.119 A 
ENDROOT
BRANCH   4  11
ATOM     11  N   UNL     1       9.015  -2.916  23.653  0.00  0.00    +0.080 N 
ATOM     12  O   UNL     1       7.936  -3.522  23.623  0.00  0.00    +0.041 OA
ATOM     13  O   UNL     1      10.077  -3.357  24.110  0.00  0.00    -0.576 OA
ENDBRANCH   4  11
BRANCH   1  14
ATOM     14  O   UNL     1       9.124   2.202  21.485  0.00  0.00    -0.505 OA
ATOM     15  H   UNL     1       8.416   2.180  20.806  0.00  0.00    +0.292 HD
ENDBRANCH   1  14
TORSDOF 2
ENDMDL
MODEL 7
REMARK VINA RESULT:      -5.1      2.898      4.462
REMARK  Name = 
REMARK  2 active torsions:
REMARK  status: ('A' for Active; 'I' for Inactive)
REMARK    1  A    between atoms: O_1  and  C_2
REMARK    2  A    between atoms: C_9  and  N_12
REMARK                            x       y       z     vdW  Elec       q    Type
REMARK                         _______ _______ _______ _____ _____    ______ ____
ROOT
ATOM      1  C   UNL     1       6.760  -2.171  23.284  0.00  0.00    +0.143 A 
ATOM      2  C   UNL     1       7.427  -1.822  24.454  0.00  0.00    +0.054 A 
ATOM      3  C   UNL     1       8.154  -2.794  25.125  0.00  0.00    +0.088 A 
ATOM      4  C   UNL     1       8.196  -4.093  24.594  0.00  0.00    +0.282 A 
ATOM      5  C   UNL     1       7.514  -4.461  23.402  0.00  0.00    +0.081 A 
ATOM      6  C   UNL     1       7.484  -5.747  22.809  0.00  0.00    +0.018 A 
ATOM      7  C   UNL     1       6.758  -5.977  21.645  0.00  0.00    +0.021 A 
ATOM      8  C   UNL     1       6.073  -4.917  21.091  0.00  0.00    +0.111 A 
ATOM      9  N   UNL     1       6.073  -3.671  21.613  0.00  0.00    -0.251 NA
ATOM     10  C   UNL     1       6.777  -3.457  22.744  0.00  0.00    +0.119 A 
ENDROOT
BRANCH   4  11
ATOM     11  N   UNL     1       8.969  -5.075  25.333  0.00  0.00    +0.080 N 
ATOM     12  O   UNL     1      10.174  -5.158  25.065  0.00  0.00    +0.041 OA
ATOM     13  O   UNL     1       8.363  -5.771  26.158  0.00  0.00    -0.576 OA
ENDBRANCH   4  11
BRANCH   1  14
ATOM     14  O   UNL     1       6.045  -1.187  22.641  0.00  0.00    -0.505 OA
ATOM     15  H   UNL     1       5.109  -1.399  22.846  0.00  0.00    +0.292 HD
ENDBRANCH   1  14
TORSDOF 2
ENDMDL
MODEL 8
REMARK VINA RESULT:      -5.1      4.225      6.072
REMARK  Name = 
REMARK  2 active torsions:
REMARK  status: ('A' for Active; 'I' for Inactive)
REMARK    1  A    between atoms: O_1  and  C_2
REMARK    2  A    between atoms: C_9  and  N_12
REMARK                            x       y       z     vdW  Elec       q    Type
REMARK                         _______ _______ _______ _____ _____    ______ ____
ROOT
ATOM      1  C   UNL     1       8.603  -0.142  25.722  0.00  0.00    +0.143 A 
ATOM      2  C   UNL     1       8.323  -1.174  26.611  0.00  0.00    +0.054 A 
ATOM      3  C   UNL     1       8.480  -2.485  26.187  0.00  0.00    +0.088 A 
ATOM      4  C   UNL     1       8.925  -2.721  24.876  0.00  0.00    +0.282 A 
ATOM      5  C   UNL     1       9.209  -1.673  23.958  0.00  0.00    +0.081 A 
ATOM      6  C   UNL     1       9.639  -1.821  22.615  0.00  0.00    +0.018 A 
ATOM      7  C   UNL     1       9.865  -0.705  21.815  0.00  0.00    +0.021 A 
ATOM      8  C   UNL     1       9.658   0.540  22.369  0.00  0.00    +0.111 A 
ATOM      9  N   UNL     1       9.254   0.735  23.642  0.00  0.00    -0.251 NA
ATOM     10  C   UNL     1       9.034  -0.352  24.412  0.00  0.00    +0.119 A 
ENDROOT
BRANCH   4  11
ATOM     11  N   UNL     1       9.073  -4.109  24.477  0.00  0.00    +0.080 N 
ATOM     12  O   UNL     1      10.149  -4.659  24.744  0.00  0.00    +0.041 OA
ATOM     13  O   UNL     1       8.123  -4.635  23.882  0.00  0.00    -0.576 OA
ENDBRANCH   4  11
BRANCH   1  14
ATOM     14  O   UNL     1       8.437   1.148  26.170  0.00  0.00    -0.505 OA
ATOM     15  H   UNL     1       8.220   1.045  27.121  0.00  0.00    +0.292 HD
ENDBRANCH   1  14
TORSDOF 2
ENDMDL
MODEL 9
REMARK VINA RESULT:      -5.1      2.655      3.639
REMARK  Name = 
REMARK  2 active torsions:
REMARK  status: ('A' for Active; 'I' for Inactive)
REMARK    1  A    between atoms: O_1  and  C_2
REMARK    2  A    between atoms: C_9  and  N_12
REMARK                            x       y       z     vdW  Elec       q    Type
REMARK                         _______ _______ _______ _____ _____    ______ ____
ROOT
ATOM      1  C   UNL     1       6.750  -5.458  25.942  0.00  0.00    +0.143 A 
ATOM      2  C   UNL     1       7.696  -4.823  26.740  0.00  0.00    +0.054 A 
ATOM      3  C   UNL     1       8.536  -3.882  26.162  0.00  0.00    +0.088 A 
ATOM      4  C   UNL     1       8.394  -3.599  24.795  0.00  0.00    +0.282 A 
ATOM      5  C   UNL     1       7.432  -4.246  23.969  0.00  0.00    +0.081 A 
ATOM      6  C   UNL     1       7.235  -4.038  22.582  0.00  0.00    +0.018 A 
ATOM      7  C   UNL     1       6.266  -4.755  21.887  0.00  0.00    +0.021 A 
ATOM      8  C   UNL     1       5.509  -5.668  22.590  0.00  0.00    +0.111 A 
ATOM      9  N   UNL     1       5.654  -5.899  23.912  0.00  0.00    -0.251 NA
ATOM     10  C   UNL     1       6.598  -5.203  24.579  0.00  0.00    +0.119 A 
ENDROOT
BRANCH   4  11
ATOM     11  N   UNL     1       9.295  -2.608  24.235  0.00  0.00    +0.080 N 
ATOM     12  O   UNL     1       8.930  -1.426  24.282  0.00  0.00    +0.041 OA
ATOM     13  O   UNL     1      10.351  -3.018  23.735  0.00  0.00    -0.576 OA
ENDBRANCH   4  11
BRANCH   1  14
ATOM     14  O   UNL     1       5.932  -6.388  26.541  0.00  0.00    -0.505 OA
ATOM     15  H   UNL     1       6.555  -7.046  26.917  0.00  0.00    +0.292 HD
ENDBRANCH   1  14
TORSDOF 2
ENDMDL
