MODEL 1
REMARK VINA RESULT:      -7.6      0.000      0.000
REMARK  Name = 
REMARK  5 active torsions:
REMARK  status: ('A' for Active; 'I' for Inactive)
REMARK    1  A    between atoms: N_1  and  S_2
REMARK    2  A    between atoms: S_2  and  C_5
REMARK    3  A    between atoms: C_8  and  N_9
REMARK    4  A    between atoms: N_9  and  C_10
REMARK    5  A    between atoms: N_13  and  C_14
REMARK                            x       y       z     vdW  Elec       q    Type
REMARK                         _______ _______ _______ _____ _____    ______ ____
ROOT
ATOM      1  C   UNL     1       7.245  -4.644  23.416  0.00  0.00    +0.131 A 
ATOM      2  N   UNL     1       7.678  -4.603  24.754  0.00  0.00    -0.182 N 
ATOM      3  C   UNL     1       6.964  -5.255  25.769  0.00  0.00    +0.256 A 
ATOM      4  N   UNL     1       7.579  -5.063  26.919  0.00  0.00    -0.197 NA
ATOM      5  C   UNL     1       8.655  -4.302  26.580  0.00  0.00    +0.247 A 
ATOM      6  N   UNL     1       5.813  -5.942  25.511  0.00  0.00    -0.196 NA
ATOM      7  C   UNL     1       5.426  -6.028  24.265  0.00  0.00    +0.126 A 
ATOM      8  N   UNL     1       4.254  -6.675  23.930  0.00  0.00    -0.326 N 
ATOM      9  H   UNL     1       4.048  -6.711  22.940  0.00  0.00    +0.148 HD
ATOM     10  N   UNL     1       8.770  -3.985  25.292  0.00  0.00    -0.151 NA
ATOM     11  C   UNL     1       6.179  -5.401  23.129  0.00  0.00    +0.087 A 
ENDROOT
BRANCH   8  12
ATOM     12  C   UNL     1       3.055  -6.610  24.766  0.00  0.00    +0.072 C 
ATOM     13  C   UNL     1       2.311  -7.956  24.684  0.00  0.00    +0.022 C 
ATOM     14  C   UNL     1       1.636  -8.199  23.329  0.00  0.00    +0.002 C 
ATOM     15  C   UNL     1       0.763  -7.027  22.891  0.00  0.00    +0.000 C 
ATOM     16  C   UNL     1       1.521  -5.704  22.940  0.00  0.00    +0.002 C 
ATOM     17  C   UNL     1       2.125  -5.468  24.323  0.00  0.00    +0.022 C 
ENDBRANCH   8  12
BRANCH   1  18
ATOM     18  N   UNL     1       7.939  -3.929  22.440  0.00  0.00    -0.299 N 
ATOM     19  H   UNL     1       8.924  -4.221  22.435  0.00  0.00    +0.154 HD
BRANCH  18  23
ATOM     20  C   UNL     1       8.197   0.299  22.462  0.00  0.00    +0.105 A 
ATOM     21  C   UNL     1       9.188  -0.473  21.856  0.00  0.00    +0.030 A 
ATOM     22  C   UNL     1       9.060  -1.865  21.833  0.00  0.00    +0.025 A 
ATOM     23  C   UNL     1       7.955  -2.499  22.424  0.00  0.00    +0.032 A 
ATOM     24  C   UNL     1       6.920  -1.696  22.935  0.00  0.00    +0.025 A 
ATOM     25  C   UNL     1       7.043  -0.302  22.968  0.00  0.00    +0.030 A 
BRANCH  20  26
ATOM     26  S   UNL     1       8.454   2.040  22.657  0.00  0.00    +0.056 S 
ATOM     27  O   UNL     1       7.427   2.759  21.945  0.00  0.00    -0.153 OA
ATOM     28  O   UNL     1       8.792   2.305  24.035  0.00  0.00    -0.153 OA
BRANCH  26  29
ATOM     29  N   UNL     1       9.861   2.281  21.765  0.00  0.00    -0.204 NA
ATOM     30  H   UNL     1      10.639   2.500  22.388  0.00  0.00    +0.144 HD
ATOM     31  H   UNL     1      10.031   1.475  21.162  0.00  0.00    +0.144 HD
ENDBRANCH  26  29
ENDBRANCH  20  26
ENDBRANCH  18  23
ENDBRANCH   1  18
TORSDOF 5
ENDMDL
MODEL 2
REMARK VINA RESULT:      -7.4      2.428      3.960
REMARK  Name = 
REMARK  5 active torsions:
REMARK  status: ('A' for Active; 'I' for Inactive)
REMARK    1  A    between atoms: N_1  and  S_2
REMARK    2  A    between atoms: S_2  and  C_5
REMARK    3  A    between atoms: C_8  and  N_9
REMARK    4  A    between atoms: N_9  and  C_10
REMARK    5  A    between atoms: N_13  and  C_14
REMARK                            x       y       z     vdW  Elec       q    Type
REMARK                         _______ _______ _______ _____ _____    ______ ____
ROOT
ATOM      1  C   UNL     1       7.557  -4.152  24.216  0.00  0.00    +0.131 A 
ATOM      2  N   UNL     1       6.827  -4.742  23.169  0.00  0.00    -0.182 N 
ATOM      3  C   UNL     1       5.524  -5.217  23.369  0.00  0.00    +0.256 A 
ATOM      4  N   UNL     1       5.069  -5.717  22.237  0.00  0.00    -0.197 NA
ATOM      5  C   UNL     1       6.103  -5.532  21.371  0.00  0.00    +0.247 A 
ATOM      6  N   UNL     1       4.912  -5.145  24.588  0.00  0.00    -0.196 NA
ATOM      7  C   UNL     1       5.562  -4.555  25.557  0.00  0.00    +0.126 A 
ATOM      8  N   UNL     1       5.023  -4.476  26.825  0.00  0.00    -0.326 N 
ATOM      9  H   UNL     1       5.588  -3.982  27.504  0.00  0.00    +0.148 HD
ATOM     10  N   UNL     1       7.193  -4.956  21.871  0.00  0.00    -0.151 NA
ATOM     11  C   UNL     1       6.936  -3.976  25.388  0.00  0.00    +0.087 A 
ENDROOT
BRANCH   8  12
ATOM     12  C   UNL     1       4.234  -5.559  27.411  0.00  0.00    +0.072 C 
ATOM     13  C   UNL     1       3.472  -5.019  28.637  0.00  0.00    +0.022 C 
ATOM     14  C   UNL     1       4.380  -4.718  29.836  0.00  0.00    +0.002 C 
ATOM     15  C   UNL     1       5.291  -5.890  30.189  0.00  0.00    +0.000 C 
ATOM     16  C   UNL     1       6.068  -6.392  28.977  0.00  0.00    +0.002 C 
ATOM     17  C   UNL     1       5.125  -6.741  27.826  0.00  0.00    +0.022 C 
ENDBRANCH   8  12
BRANCH   1  18
ATOM     18  N   UNL     1       8.877  -3.751  24.002  0.00  0.00    -0.299 N 
ATOM     19  H   UNL     1       9.456  -4.034  24.803  0.00  0.00    +0.154 HD
BRANCH  18  23
ATOM     20  C   UNL     1       9.731   0.348  23.366  0.00  0.00    +0.105 A 
ATOM     21  C   UNL     1       9.693  -0.181  24.656  0.00  0.00    +0.030 A 
ATOM     22  C   UNL     1       9.443  -1.544  24.836  0.00  0.00    +0.025 A 
ATOM     23  C   UNL     1       9.215  -2.388  23.736  0.00  0.00    +0.032 A 
ATOM     24  C   UNL     1       9.362  -1.853  22.443  0.00  0.00    +0.025 A 
ATOM     25  C   UNL     1       9.605  -0.488  22.255  0.00  0.00    +0.030 A 
BRANCH  20  26
ATOM     26  S   UNL     1       9.857   2.101  23.154  0.00  0.00    +0.056 S 
ATOM     27  O   UNL     1       8.584   2.713  23.447  0.00  0.00    -0.153 OA
ATOM     28  O   UNL     1      11.100   2.549  23.735  0.00  0.00    -0.153 OA
BRANCH  26  29
ATOM     29  N   UNL     1      10.035   2.233  21.485  0.00  0.00    -0.204 NA
ATOM     30  H   UNL     1      10.791   1.627  21.163  0.00  0.00    +0.144 HD
ATOM     31  H   UNL     1       9.141   2.052  21.027  0.00  0.00    +0.144 HD
ENDBRANCH  26  29
ENDBRANCH  20  26
ENDBRANCH  18  23
ENDBRANCH   1  18
TORSDOF 5
ENDMDL
MODEL 3
REMARK VINA RESULT:      -7.0      4.639      8.452
REMARK  Name = 
REMARK  5 active torsions:
REMARK  status: ('A' for Active; 'I' for Inactive)
REMARK    1  A    between atoms: N_1  and  S_2
REMARK    2  A    between atoms: S_2  and  C_5
REMARK    3  A    between atoms: C_8  and  N_9
REMARK    4  A    between atoms: N_9  and  C_10
REMARK    5  A    between atoms: N_13  and  C_14
REMARK                            x       y       z     vdW  Elec       q    Type
REMARK                         _______ _______ _______ _____ _____    ______ ____
ROOT
ATOM      1  C   UNL     1       7.792  -4.337  24.275  0.00  0.00    +0.131 A 
ATOM      2  N   UNL     1       7.037  -4.662  23.133  0.00  0.00    -0.182 N 
ATOM      3  C   UNL     1       6.865  -3.742  22.090  0.00  0.00    +0.256 A 
ATOM      4  N   UNL     1       6.123  -4.293  21.149  0.00  0.00    -0.197 NA
ATOM      5  C   UNL     1       5.864  -5.537  21.637  0.00  0.00    +0.247 A 
ATOM      6  N   UNL     1       7.404  -2.489  22.140  0.00  0.00    -0.196 NA
ATOM      7  C   UNL     1       8.148  -2.191  23.173  0.00  0.00    +0.126 A 
ATOM      8  N   UNL     1       8.697  -0.932  23.311  0.00  0.00    -0.326 N 
ATOM      9  H   UNL     1       9.276  -0.802  24.131  0.00  0.00    +0.148 HD
ATOM     10  N   UNL     1       6.381  -5.820  22.831  0.00  0.00    -0.151 NA
ATOM     11  C   UNL     1       8.416  -3.153  24.293  0.00  0.00    +0.087 A 
ENDROOT
BRANCH   8  12
ATOM     12  C   UNL     1       7.988   0.282  22.907  0.00  0.00    +0.072 C 
ATOM     13  C   UNL     1       8.712   0.908  21.700  0.00  0.00    +0.022 C 
ATOM     14  C   UNL     1      10.064   1.537  22.057  0.00  0.00    +0.002 C 
ATOM     15  C   UNL     1       9.969   2.498  23.238  0.00  0.00    +0.000 C 
ATOM     16  C   UNL     1       9.285   1.855  24.441  0.00  0.00    +0.002 C 
ATOM     17  C   UNL     1       7.915   1.297  24.059  0.00  0.00    +0.022 C 
ENDBRANCH   8  12
BRANCH   1  18
ATOM     18  N   UNL     1       7.889  -5.249  25.326  0.00  0.00    -0.299 N 
ATOM     19  H   UNL     1       8.065  -6.189  24.950  0.00  0.00    +0.154 HD
BRANCH  18  23
ATOM     20  C   UNL     1       4.883  -5.891  28.240  0.00  0.00    +0.105 A 
ATOM     21  C   UNL     1       6.232  -6.025  28.566  0.00  0.00    +0.030 A 
ATOM     22  C   UNL     1       7.205  -5.773  27.594  0.00  0.00    +0.025 A 
ATOM     23  C   UNL     1       6.843  -5.401  26.289  0.00  0.00    +0.032 A 
ATOM     24  C   UNL     1       5.483  -5.171  26.014  0.00  0.00    +0.025 A 
ATOM     25  C   UNL     1       4.502  -5.427  26.979  0.00  0.00    +0.030 A 
BRANCH  20  26
ATOM     26  S   UNL     1       3.655  -6.393  29.413  0.00  0.00    +0.056 S 
ATOM     27  O   UNL     1       4.287  -7.123  30.485  0.00  0.00    -0.153 OA
ATOM     28  O   UNL     1       2.750  -5.292  29.635  0.00  0.00    -0.153 OA
BRANCH  26  29
ATOM     29  N   UNL     1       2.798  -7.548  28.539  0.00  0.00    -0.204 NA
ATOM     30  H   UNL     1       2.816  -7.322  27.544  0.00  0.00    +0.144 HD
ATOM     31  H   UNL     1       3.155  -8.480  28.754  0.00  0.00    +0.144 HD
ENDBRANCH  26  29
ENDBRANCH  20  26
ENDBRANCH  18  23
ENDBRANCH   1  18
TORSDOF 5
ENDMDL
MODEL 4
REMARK VINA RESULT:      -6.9      4.660      7.650
REMARK  Name = 
REMARK  5 active torsions:
REMARK  status: ('A' for Active; 'I' for Inactive)
REMARK    1  A    between atoms: N_1  and  S_2
REMARK    2  A    between atoms: S_2  and  C_5
REMARK    3  A    between atoms: C_8  and  N_9
REMARK    4  A    between atoms: N_9  and  C_10
REMARK    5  A    between atoms: N_13  and  C_14
REMARK                            x       y       z     vdW  Elec       q    Type
REMARK                         _______ _______ _______ _____ _____    ______ ____
ROOT
ATOM      1  C   UNL     1       8.853  -2.844  25.332  0.00  0.00    +0.131 A 
ATOM      2  N   UNL     1       9.467  -2.135  24.284  0.00  0.00    -0.182 N 
ATOM      3  C   UNL     1       9.560  -0.737  24.309  0.00  0.00    +0.256 A 
ATOM      4  N   UNL     1      10.175  -0.327  23.217  0.00  0.00    -0.197 NA
ATOM      5  C   UNL     1      10.447  -1.483  22.553  0.00  0.00    +0.247 A 
ATOM      6  N   UNL     1       9.047  -0.001  25.339  0.00  0.00    -0.196 NA
ATOM      7  C   UNL     1       8.517  -0.650  26.342  0.00  0.00    +0.126 A 
ATOM      8  N   UNL     1       7.946   0.025  27.401  0.00  0.00    -0.326 N 
ATOM      9  H   UNL     1       7.582  -0.561  28.141  0.00  0.00    +0.148 HD
ATOM     10  N   UNL     1      10.042  -2.607  23.139  0.00  0.00    -0.151 NA
ATOM     11  C   UNL     1       8.441  -2.148  26.398  0.00  0.00    +0.087 A 
ENDROOT
BRANCH   8  12
ATOM     12  C   UNL     1       7.193   1.266  27.225  0.00  0.00    +0.072 C 
ATOM     13  C   UNL     1       6.966   1.917  28.603  0.00  0.00    +0.022 C 
ATOM     14  C   UNL     1       5.962   1.157  29.479  0.00  0.00    +0.002 C 
ATOM     15  C   UNL     1       4.652   0.869  28.753  0.00  0.00    +0.000 C 
ATOM     16  C   UNL     1       4.886   0.191  27.406  0.00  0.00    +0.002 C 
ATOM     17  C   UNL     1       5.841   1.008  26.538  0.00  0.00    +0.022 C 
ENDBRANCH   8  12
BRANCH   1  18
ATOM     18  N   UNL     1       8.715  -4.230  25.245  0.00  0.00    -0.299 N 
ATOM     19  H   UNL     1       9.351  -4.594  24.524  0.00  0.00    +0.154 HD
BRANCH  18  23
ATOM     20  C   UNL     1       4.904  -5.874  24.404  0.00  0.00    +0.105 A 
ATOM     21  C   UNL     1       5.671  -5.297  23.392  0.00  0.00    +0.030 A 
ATOM     22  C   UNL     1       6.940  -4.794  23.691  0.00  0.00    +0.025 A 
ATOM     23  C   UNL     1       7.449  -4.846  24.999  0.00  0.00    +0.032 A 
ATOM     24  C   UNL     1       6.702  -5.524  25.979  0.00  0.00    +0.025 A 
ATOM     25  C   UNL     1       5.427  -6.026  25.689  0.00  0.00    +0.030 A 
BRANCH  20  26
ATOM     26  S   UNL     1       3.229  -6.335  24.063  0.00  0.00    +0.056 S 
ATOM     27  O   UNL     1       2.391  -5.953  25.173  0.00  0.00    -0.153 OA
ATOM     28  O   UNL     1       2.926  -5.998  22.693  0.00  0.00    -0.153 OA
BRANCH  26  29
ATOM     29  N   UNL     1       3.314  -8.015  24.134  0.00  0.00    -0.204 NA
ATOM     30  H   UNL     1       3.901  -8.369  23.378  0.00  0.00    +0.144 HD
ATOM     31  H   UNL     1       3.620  -8.307  25.063  0.00  0.00    +0.144 HD
ENDBRANCH  26  29
ENDBRANCH  20  26
ENDBRANCH  18  23
ENDBRANCH   1  18
TORSDOF 5
ENDMDL
MODEL 5
REMARK VINA RESULT:      -6.9      5.135      8.744
REMARK  Name = 
REMARK  5 active torsions:
REMARK  status: ('A' for Active; 'I' for Inactive)
REMARK    1  A    between atoms: N_1  and  S_2
REMARK    2  A    between atoms: S_2  and  C_5
REMARK    3  A    between atoms: C_8  and  N_9
REMARK    4  A    between atoms: N_9  and  C_10
REMARK    5  A    between atoms: N_13  and  C_14
REMARK                            x       y       z     vdW  Elec       q    Type
REMARK                         _______ _______ _______ _____ _____    ______ ____
ROOT
ATOM      1  C   UNL     1      10.003   2.712  23.553  0.00  0.00    +0.131 A 
ATOM      2  N   UNL     1      10.649   3.961  23.594  0.00  0.00    -0.182 N 
ATOM      3  C   UNL     1       9.976   5.113  24.021  0.00  0.00    +0.256 A 
ATOM      4  N   UNL     1      10.801   6.140  23.964  0.00  0.00    -0.197 NA
ATOM      5  C   UNL     1      11.960   5.590  23.508  0.00  0.00    +0.247 A 
ATOM      6  N   UNL     1       8.664   5.081  24.400  0.00  0.00    -0.196 NA
ATOM      7  C   UNL     1       8.067   3.918  24.413  0.00  0.00    +0.126 A 
ATOM      8  N   UNL     1       6.733   3.811  24.750  0.00  0.00    -0.326 N 
ATOM      9  H   UNL     1       6.363   2.869  24.755  0.00  0.00    +0.148 HD
ATOM     10  N   UNL     1      11.933   4.283  23.260  0.00  0.00    -0.151 NA
ATOM     11  C   UNL     1       8.752   2.642  24.022  0.00  0.00    +0.087 A 
ENDROOT
BRANCH   8  12
ATOM     12  C   UNL     1       5.743   4.817  24.365  0.00  0.00    +0.072 C 
ATOM     13  C   UNL     1       4.464   4.608  25.197  0.00  0.00    +0.022 C 
ATOM     14  C   UNL     1       3.680   3.349  24.807  0.00  0.00    +0.002 C 
ATOM     15  C   UNL     1       3.415   3.267  23.307  0.00  0.00    +0.000 C 
ATOM     16  C   UNL     1       4.694   3.437  22.493  0.00  0.00    +0.002 C 
ATOM     17  C   UNL     1       5.413   4.732  22.865  0.00  0.00    +0.022 C 
ENDBRANCH   8  12
BRANCH   1  18
ATOM     18  N   UNL     1      10.680   1.596  23.059  0.00  0.00    -0.299 N 
ATOM     19  H   UNL     1      10.884   1.733  22.061  0.00  0.00    +0.154 HD
BRANCH  18  23
ATOM     20  C   UNL     1       8.904  -2.243  23.271  0.00  0.00    +0.105 A 
ATOM     21  C   UNL     1       9.014  -1.574  22.052  0.00  0.00    +0.030 A 
ATOM     22  C   UNL     1       9.636  -0.323  22.005  0.00  0.00    +0.025 A 
ATOM     23  C   UNL     1      10.139   0.278  23.171  0.00  0.00    +0.032 A 
ATOM     24  C   UNL     1      10.110  -0.460  24.368  0.00  0.00    +0.025 A 
ATOM     25  C   UNL     1       9.483  -1.710  24.425  0.00  0.00    +0.030 A 
BRANCH  20  26
ATOM     26  S   UNL     1       7.950  -3.732  23.358  0.00  0.00    +0.056 S 
ATOM     27  O   UNL     1       7.249  -3.926  22.113  0.00  0.00    -0.153 OA
ATOM     28  O   UNL     1       8.752  -4.758  23.981  0.00  0.00    -0.153 OA
BRANCH  26  29
ATOM     29  N   UNL     1       6.760  -3.313  24.473  0.00  0.00    -0.204 NA
ATOM     30  H   UNL     1       6.473  -2.344  24.332  0.00  0.00    +0.144 HD
ATOM     31  H   UNL     1       5.990  -3.981  24.424  0.00  0.00    +0.144 HD
ENDBRANCH  26  29
ENDBRANCH  20  26
ENDBRANCH  18  23
ENDBRANCH   1  18
TORSDOF 5
ENDMDL
MODEL 6
REMARK VINA RESULT:      -6.8      4.754      8.143
REMARK  Name = 
REMARK  5 active torsions:
REMARK  status: ('A' for Active; 'I' for Inactive)
REMARK    1  A    between atoms: N_1  and  S_2
REMARK    2  A    between atoms: S_2  and  C_5
REMARK    3  A    between atoms: C_8  and  N_9
REMARK    4  A    between atoms: N_9  and  C_10
REMARK    5  A    between atoms: N_13  and  C_14
REMARK                            x       y       z     vdW  Elec       q    Type
REMARK                         _______ _______ _______ _____ _____    ______ ____
ROOT
ATOM      1  C   UNL     1       9.197  -1.444  24.459  0.00  0.00    +0.131 A 
ATOM      2  N   UNL     1       9.221  -0.808  23.205  0.00  0.00    -0.182 N 
ATOM      3  C   UNL     1       8.846   0.535  23.064  0.00  0.00    +0.256 A 
ATOM      4  N   UNL     1       8.958   0.882  21.796  0.00  0.00    -0.197 NA
ATOM      5  C   UNL     1       9.403  -0.255  21.194  0.00  0.00    +0.247 A 
ATOM      6  N   UNL     1       8.426   1.280  24.128  0.00  0.00    -0.196 NA
ATOM      7  C   UNL     1       8.446   0.715  25.307  0.00  0.00    +0.126 A 
ATOM      8  N   UNL     1       8.002   1.393  26.424  0.00  0.00    -0.326 N 
ATOM      9  H   UNL     1       8.077   0.884  27.296  0.00  0.00    +0.148 HD
ATOM     10  N   UNL     1       9.576  -1.311  21.986  0.00  0.00    -0.151 NA
ATOM     11  C   UNL     1       8.892  -0.701  25.529  0.00  0.00    +0.087 A 
ENDROOT
BRANCH   8  12
ATOM     12  C   UNL     1       6.861   2.307  26.386  0.00  0.00    +0.072 C 
ATOM     13  C   UNL     1       7.033   3.371  27.487  0.00  0.00    +0.022 C 
ATOM     14  C   UNL     1       6.842   2.820  28.905  0.00  0.00    +0.002 C 
ATOM     15  C   UNL     1       5.544   2.034  29.057  0.00  0.00    +0.000 C 
ATOM     16  C   UNL     1       5.402   0.957  27.986  0.00  0.00    +0.002 C 
ATOM     17  C   UNL     1       5.535   1.555  26.586  0.00  0.00    +0.022 C 
ENDBRANCH   8  12
BRANCH   1  18
ATOM     18  N   UNL     1       9.511  -2.800  24.556  0.00  0.00    -0.299 N 
ATOM     19  H   UNL     1       9.840  -3.143  23.645  0.00  0.00    +0.154 HD
BRANCH  18  23
ATOM     20  C   UNL     1       6.525  -5.507  25.860  0.00  0.00    +0.105 A 
ATOM     21  C   UNL     1       6.430  -4.885  24.615  0.00  0.00    +0.030 A 
ATOM     22  C   UNL     1       7.447  -4.024  24.195  0.00  0.00    +0.025 A 
ATOM     23  C   UNL     1       8.557  -3.762  25.015  0.00  0.00    +0.032 A 
ATOM     24  C   UNL     1       8.681  -4.479  26.219  0.00  0.00    +0.025 A 
ATOM     25  C   UNL     1       7.665  -5.339  26.650  0.00  0.00    +0.030 A 
BRANCH  20  26
ATOM     26  S   UNL     1       5.151  -6.443  26.467  0.00  0.00    +0.056 S 
ATOM     27  O   UNL     1       4.499  -7.108  25.365  0.00  0.00    -0.153 OA
ATOM     28  O   UNL     1       5.553  -7.125  27.674  0.00  0.00    -0.153 OA
BRANCH  26  29
ATOM     29  N   UNL     1       4.087  -5.226  26.938  0.00  0.00    -0.204 NA
ATOM     30  H   UNL     1       3.256  -5.634  27.369  0.00  0.00    +0.144 HD
ATOM     31  H   UNL     1       4.572  -4.555  27.534  0.00  0.00    +0.144 HD
ENDBRANCH  26  29
ENDBRANCH  20  26
ENDBRANCH  18  23
ENDBRANCH   1  18
TORSDOF 5
ENDMDL
MODEL 7
REMARK VINA RESULT:      -6.8      4.532      8.931
REMARK  Name = 
REMARK  5 active torsions:
REMARK  status: ('A' for Active; 'I' for Inactive)
REMARK    1  A    between atoms: N_1  and  S_2
REMARK    2  A    between atoms: S_2  and  C_5
REMARK    3  A    between atoms: C_8  and  N_9
REMARK    4  A    between atoms: N_9  and  C_10
REMARK    5  A    between atoms: N_13  and  C_14
REMARK                            x       y       z     vdW  Elec       q    Type
REMARK                         _______ _______ _______ _____ _____    ______ ____
ROOT
ATOM      1  C   UNL     1       7.079  -0.279  23.441  0.00  0.00    +0.131 A 
ATOM      2  N   UNL     1       8.400  -0.638  23.118  0.00  0.00    -0.182 N 
ATOM      3  C   UNL     1       9.428   0.315  23.098  0.00  0.00    +0.256 A 
ATOM      4  N   UNL     1      10.558  -0.278  22.768  0.00  0.00    -0.197 NA
ATOM      5  C   UNL     1      10.196  -1.579  22.598  0.00  0.00    +0.247 A 
ATOM      6  N   UNL     1       9.192   1.632  23.374  0.00  0.00    -0.196 NA
ATOM      7  C   UNL     1       7.979   1.969  23.724  0.00  0.00    +0.126 A 
ATOM      8  N   UNL     1       7.656   3.286  23.983  0.00  0.00    -0.326 N 
ATOM      9  H   UNL     1       6.699   3.448  24.268  0.00  0.00    +0.148 HD
ATOM     10  N   UNL     1       8.910  -1.861  22.788  0.00  0.00    -0.151 NA
ATOM     11  C   UNL     1       6.851   0.984  23.819  0.00  0.00    +0.087 A 
ENDROOT
BRANCH   8  12
ATOM     12  C   UNL     1       8.227   4.397  23.223  0.00  0.00    +0.072 C 
ATOM     13  C   UNL     1       8.741   5.467  24.205  0.00  0.00    +0.022 C 
ATOM     14  C   UNL     1       7.619   6.228  24.922  0.00  0.00    +0.002 C 
ATOM     15  C   UNL     1       6.578   6.782  23.955  0.00  0.00    +0.000 C 
ATOM     16  C   UNL     1       6.048   5.707  23.012  0.00  0.00    +0.002 C 
ATOM     17  C   UNL     1       7.190   5.016  22.270  0.00  0.00    +0.022 C 
ENDBRANCH   8  12
BRANCH   1  18
ATOM     18  N   UNL     1       6.066  -1.238  23.386  0.00  0.00    -0.299 N 
ATOM     19  H   UNL     1       5.150  -0.772  23.425  0.00  0.00    +0.154 HD
BRANCH  18  23
ATOM     20  C   UNL     1       6.028  -4.334  26.275  0.00  0.00    +0.105 A 
ATOM     21  C   UNL     1       6.004  -2.995  26.664  0.00  0.00    +0.030 A 
ATOM     22  C   UNL     1       5.982  -1.994  25.689  0.00  0.00    +0.025 A 
ATOM     23  C   UNL     1       5.999  -2.316  24.322  0.00  0.00    +0.032 A 
ATOM     24  C   UNL     1       5.917  -3.671  23.955  0.00  0.00    +0.025 A 
ATOM     25  C   UNL     1       5.946  -4.680  24.925  0.00  0.00    +0.030 A 
BRANCH  20  26
ATOM     26  S   UNL     1       6.248  -5.589  27.505  0.00  0.00    +0.056 S 
ATOM     27  O   UNL     1       6.031  -5.021  28.813  0.00  0.00    -0.153 OA
ATOM     28  O   UNL     1       5.603  -6.798  27.052  0.00  0.00    -0.153 OA
BRANCH  26  29
ATOM     29  N   UNL     1       7.905  -5.870  27.416  0.00  0.00    -0.204 NA
ATOM     30  H   UNL     1       8.266  -5.563  26.512  0.00  0.00    +0.144 HD
ATOM     31  H   UNL     1       8.373  -5.436  28.213  0.00  0.00    +0.144 HD
ENDBRANCH  26  29
ENDBRANCH  20  26
ENDBRANCH  18  23
ENDBRANCH   1  18
TORSDOF 5
ENDMDL
MODEL 8
REMARK VINA RESULT:      -6.7      3.206      5.060
REMARK  Name = 
REMARK  5 active torsions:
REMARK  status: ('A' for Active; 'I' for Inactive)
REMARK    1  A    between atoms: N_1  and  S_2
REMARK    2  A    between atoms: S_2  and  C_5
REMARK    3  A    between atoms: C_8  and  N_9
REMARK    4  A    between atoms: N_9  and  C_10
REMARK    5  A    between atoms: N_13  and  C_14
REMARK                            x       y       z     vdW  Elec       q    Type
REMARK                         _______ _______ _______ _____ _____    ______ ____
ROOT
ATOM      1  C   UNL     1       7.055  -0.225  24.062  0.00  0.00    +0.131 A 
ATOM      2  N   UNL     1       8.454  -0.101  24.146  0.00  0.00    -0.182 N 
ATOM      3  C   UNL     1       9.304  -1.054  23.569  0.00  0.00    +0.256 A 
ATOM      4  N   UNL     1      10.556  -0.703  23.789  0.00  0.00    -0.197 NA
ATOM      5  C   UNL     1      10.441   0.458  24.489  0.00  0.00    +0.247 A 
ATOM      6  N   UNL     1       8.817  -2.152  22.919  0.00  0.00    -0.196 NA
ATOM      7  C   UNL     1       7.519  -2.255  22.793  0.00  0.00    +0.126 A 
ATOM      8  N   UNL     1       6.952  -3.353  22.180  0.00  0.00    -0.326 N 
ATOM      9  H   UNL     1       5.943  -3.334  22.108  0.00  0.00    +0.148 HD
ATOM     10  N   UNL     1       9.202   0.873  24.742  0.00  0.00    -0.151 NA
ATOM     11  C   UNL     1       6.561  -1.236  23.338  0.00  0.00    +0.087 A 
ENDROOT
BRANCH   8  12
ATOM     12  C   UNL     1       7.494  -4.703  22.332  0.00  0.00    +0.072 C 
ATOM     13  C   UNL     1       6.608  -5.691  21.549  0.00  0.00    +0.022 C 
ATOM     14  C   UNL     1       5.233  -5.919  22.191  0.00  0.00    +0.002 C 
ATOM     15  C   UNL     1       5.330  -6.274  23.671  0.00  0.00    +0.000 C 
ATOM     16  C   UNL     1       6.178  -5.268  24.443  0.00  0.00    +0.002 C 
ATOM     17  C   UNL     1       7.561  -5.116  23.811  0.00  0.00    +0.022 C 
ENDBRANCH   8  12
BRANCH   1  18
ATOM     18  N   UNL     1       6.236   0.704  24.704  0.00  0.00    -0.299 N 
ATOM     19  H   UNL     1       5.260   0.385  24.668  0.00  0.00    +0.154 HD
BRANCH  18  23
ATOM     20  C   UNL     1       6.296   4.729  23.386  0.00  0.00    +0.105 A 
ATOM     21  C   UNL     1       6.020   3.690  22.496  0.00  0.00    +0.030 A 
ATOM     22  C   UNL     1       5.972   2.375  22.965  0.00  0.00    +0.025 A 
ATOM     23  C   UNL     1       6.213   2.080  24.317  0.00  0.00    +0.032 A 
ATOM     24  C   UNL     1       6.385   3.151  25.213  0.00  0.00    +0.025 A 
ATOM     25  C   UNL     1       6.441   4.471  24.750  0.00  0.00    +0.030 A 
BRANCH  20  26
ATOM     26  S   UNL     1       6.544   6.365  22.756  0.00  0.00    +0.056 S 
ATOM     27  O   UNL     1       5.305   6.861  22.208  0.00  0.00    -0.153 OA
ATOM     28  O   UNL     1       7.342   7.108  23.701  0.00  0.00    -0.153 OA
BRANCH  26  29
ATOM     29  N   UNL     1       7.529   6.074  21.423  0.00  0.00    -0.204 NA
ATOM     30  H   UNL     1       7.108   5.364  20.823  0.00  0.00    +0.144 HD
ATOM     31  H   UNL     1       7.729   6.952  20.942  0.00  0.00    +0.144 HD
ENDBRANCH  26  29
ENDBRANCH  20  26
ENDBRANCH  18  23
ENDBRANCH   1  18
TORSDOF 5
ENDMDL
MODEL 9
REMARK VINA RESULT:      -6.7      2.815      4.482
REMARK  Name = 
REMARK  5 active torsions:
REMARK  status: ('A' for Active; 'I' for Inactive)
REMARK    1  A    between atoms: N_1  and  S_2
REMARK    2  A    between atoms: S_2  and  C_5
REMARK    3  A    between atoms: C_8  and  N_9
REMARK    4  A    between atoms: N_9  and  C_10
REMARK    5  A    between atoms: N_13  and  C_14
REMARK                            x       y       z     vdW  Elec       q    Type
REMARK                         _______ _______ _______ _____ _____    ______ ____
ROOT
ATOM      1  C   UNL     1       6.991  -0.898  22.985  0.00  0.00    +0.131 A 
ATOM      2  N   UNL     1       8.357  -1.148  22.760  0.00  0.00    -0.182 N 
ATOM      3  C   UNL     1       8.952  -2.349  23.169  0.00  0.00    +0.256 A 
ATOM      4  N   UNL     1      10.229  -2.330  22.840  0.00  0.00    -0.197 NA
ATOM      5  C   UNL     1      10.382  -1.121  22.235  0.00  0.00    +0.247 A 
ATOM      6  N   UNL     1       8.242  -3.319  23.817  0.00  0.00    -0.196 NA
ATOM      7  C   UNL     1       6.961  -3.120  23.989  0.00  0.00    +0.126 A 
ATOM      8  N   UNL     1       6.186  -4.038  24.666  0.00  0.00    -0.326 N 
ATOM      9  H   UNL     1       5.202  -3.809  24.730  0.00  0.00    +0.148 HD
ATOM     10  N   UNL     1       9.294  -0.359  22.159  0.00  0.00    -0.151 NA
ATOM     11  C   UNL     1       6.257  -1.880  23.521  0.00  0.00    +0.087 A 
ENDROOT
BRANCH   8  12
ATOM     12  C   UNL     1       6.681  -4.781  25.825  0.00  0.00    +0.072 C 
ATOM     13  C   UNL     1       5.790  -6.017  26.049  0.00  0.00    +0.022 C 
ATOM     14  C   UNL     1       4.390  -5.674  26.573  0.00  0.00    +0.002 C 
ATOM     15  C   UNL     1       4.430  -4.761  27.794  0.00  0.00    +0.000 C 
ATOM     16  C   UNL     1       5.285  -3.521  27.549  0.00  0.00    +0.002 C 
ATOM     17  C   UNL     1       6.690  -3.905  27.089  0.00  0.00    +0.022 C 
ENDBRANCH   8  12
BRANCH   1  18
ATOM     18  N   UNL     1       6.443   0.335  22.627  0.00  0.00    -0.299 N 
ATOM     19  H   UNL     1       6.347   0.384  21.605  0.00  0.00    +0.154 HD
BRANCH  18  23
ATOM     20  C   UNL     1       8.335   3.994  23.613  0.00  0.00    +0.105 A 
ATOM     21  C   UNL     1       7.728   3.816  22.369  0.00  0.00    +0.030 A 
ATOM     22  C   UNL     1       7.080   2.611  22.083  0.00  0.00    +0.025 A 
ATOM     23  C   UNL     1       7.044   1.569  23.024  0.00  0.00    +0.032 A 
ATOM     24  C   UNL     1       7.571   1.809  24.306  0.00  0.00    +0.025 A 
ATOM     25  C   UNL     1       8.227   3.011  24.599  0.00  0.00    +0.030 A 
BRANCH  20  26
ATOM     26  S   UNL     1       9.313   5.441  23.900  0.00  0.00    +0.056 S 
ATOM     27  O   UNL     1       8.910   6.481  22.986  0.00  0.00    -0.153 OA
ATOM     28  O   UNL     1       9.432   5.643  25.324  0.00  0.00    -0.153 OA
BRANCH  26  29
ATOM     29  N   UNL     1      10.828   4.944  23.360  0.00  0.00    -0.204 NA
ATOM     30  H   UNL     1      10.914   5.107  22.356  0.00  0.00    +0.144 HD
ATOM     31  H   UNL     1      11.558   5.394  23.913  0.00  0.00    +0.144 HD
ENDBRANCH  26  29
ENDBRANCH  20  26
ENDBRANCH  18  23
ENDBRANCH   1  18
TORSDOF 5
ENDMDL
