MODEL 1
REMARK VINA RESULT:      -5.6      0.000      0.000
REMARK  Name = 
REMARK  3 active torsions:
REMARK  status: ('A' for Active; 'I' for Inactive)
REMARK    1  A    between atoms: C_1  and  N_2
REMARK    2  A    between atoms: C_8  and  S_12
REMARK    3  A    between atoms: S_12  and  N_13
REMARK                            x       y       z     vdW  Elec       q    Type
REMARK                         _______ _______ _______ _____ _____    ______ ____
ROOT
ATOM      1  C   UNL     1       8.970   2.113  24.828  0.00  0.00    +0.158 C 
ATOM      2  N   UNL     1       9.228   0.893  24.098  0.00  0.00    -0.311 N 
ATOM      3  C   UNL     1       9.043  -0.388  24.599  0.00  0.00    +0.060 A 
ATOM      4  C   UNL     1       9.417  -1.420  23.721  0.00  0.00    +0.056 A 
ATOM      5  C   UNL     1       9.305  -2.768  24.032  0.00  0.00    +0.043 A 
ATOM      6  C   UNL     1       8.803  -3.092  25.291  0.00  0.00    +0.106 A 
ATOM      7  C   UNL     1       8.408  -2.088  26.192  0.00  0.00    +0.030 A 
ATOM      8  C   UNL     1       9.936  -0.879  22.459  0.00  0.00    +0.242 A 
ATOM      9  O   UNL     1      10.340  -1.529  21.512  0.00  0.00    -0.278 OA
ATOM     10  C   UNL     1       8.533  -0.734  25.846  0.00  0.00    +0.029 A 
ATOM     11  S   UNL     1       9.889   0.888  22.559  0.00  0.00    +0.032 S 
ENDROOT
BRANCH   6  12
ATOM     12  S   UNL     1       8.619  -4.794  25.737  0.00  0.00    +0.056 S 
ATOM     13  O   UNL     1       7.717  -5.430  24.806  0.00  0.00    -0.153 OA
ATOM     14  O   UNL     1       8.457  -4.892  27.168  0.00  0.00    -0.153 OA
BRANCH  12  15
ATOM     15  N   UNL     1      10.148  -5.396  25.397  0.00  0.00    -0.204 NA
ATOM     16  H   UNL     1      10.815  -5.067  26.096  0.00  0.00    +0.144 HD
ATOM     17  H   UNL     1      10.409  -5.163  24.439  0.00  0.00    +0.144 HD
ENDBRANCH  12  15
ENDBRANCH   6  12
TORSDOF 2
ENDMDL
MODEL 2
REMARK VINA RESULT:      -5.4      2.098      2.538
REMARK  Name = 
REMARK  3 active torsions:
REMARK  status: ('A' for Active; 'I' for Inactive)
REMARK    1  A    between atoms: C_1  and  N_2
REMARK    2  A    between atoms: C_8  and  S_12
REMARK    3  A    between atoms: S_12  and  N_13
REMARK                            x       y       z     vdW  Elec       q    Type
REMARK                         _______ _______ _______ _____ _____    ______ ____
ROOT
ATOM      1  C   UNL     1       9.710   1.187  21.849  0.00  0.00    +0.158 C 
ATOM      2  N   UNL     1       8.711   0.632  22.733  0.00  0.00    -0.311 N 
ATOM      3  C   UNL     1       8.786  -0.616  23.335  0.00  0.00    +0.060 A 
ATOM      4  C   UNL     1       7.665  -0.962  24.109  0.00  0.00    +0.056 A 
ATOM      5  C   UNL     1       7.548  -2.162  24.794  0.00  0.00    +0.043 A 
ATOM      6  C   UNL     1       8.606  -3.063  24.687  0.00  0.00    +0.106 A 
ATOM      7  C   UNL     1       9.749  -2.748  23.932  0.00  0.00    +0.030 A 
ATOM      8  C   UNL     1       6.655   0.104  24.083  0.00  0.00    +0.242 A 
ATOM      9  O   UNL     1       5.580   0.087  24.654  0.00  0.00    -0.278 OA
ATOM     10  C   UNL     1       9.836  -1.524  23.250  0.00  0.00    +0.029 A 
ATOM     11  S   UNL     1       7.266   1.414  23.061  0.00  0.00    +0.032 S 
ENDROOT
BRANCH   6  12
ATOM     12  S   UNL     1       8.523  -4.602  25.554  0.00  0.00    +0.056 S 
ATOM     13  O   UNL     1       7.329  -5.305  25.153  0.00  0.00    -0.153 OA
ATOM     14  O   UNL     1       8.870  -4.383  26.939  0.00  0.00    -0.153 OA
BRANCH  12  15
ATOM     15  N   UNL     1       9.811  -5.438  24.878  0.00  0.00    -0.204 NA
ATOM     16  H   UNL     1       9.722  -6.436  25.076  0.00  0.00    +0.144 HD
ATOM     17  H   UNL     1      10.693  -5.034  25.194  0.00  0.00    +0.144 HD
ENDBRANCH  12  15
ENDBRANCH   6  12
TORSDOF 2
ENDMDL
MODEL 3
REMARK VINA RESULT:      -5.3      2.605      5.220
REMARK  Name = 
REMARK  3 active torsions:
REMARK  status: ('A' for Active; 'I' for Inactive)
REMARK    1  A    between atoms: C_1  and  N_2
REMARK    2  A    between atoms: C_8  and  S_12
REMARK    3  A    between atoms: S_12  and  N_13
REMARK                            x       y       z     vdW  Elec       q    Type
REMARK                         _______ _______ _______ _____ _____    ______ ____
ROOT
ATOM      1  C   UNL     1       5.281  -3.749  22.680  0.00  0.00    +0.158 C 
ATOM      2  N   UNL     1       6.600  -3.633  23.257  0.00  0.00    -0.311 N 
ATOM      3  C   UNL     1       7.322  -2.453  23.361  0.00  0.00    +0.060 A 
ATOM      4  C   UNL     1       8.609  -2.599  23.907  0.00  0.00    +0.056 A 
ATOM      5  C   UNL     1       9.485  -1.541  24.099  0.00  0.00    +0.043 A 
ATOM      6  C   UNL     1       9.048  -0.274  23.712  0.00  0.00    +0.106 A 
ATOM      7  C   UNL     1       7.764  -0.087  23.173  0.00  0.00    +0.030 A 
ATOM      8  C   UNL     1       8.889  -4.003  24.232  0.00  0.00    +0.242 A 
ATOM      9  O   UNL     1       9.920  -4.436  24.713  0.00  0.00    -0.278 OA
ATOM     10  C   UNL     1       6.902  -1.179  22.992  0.00  0.00    +0.029 A 
ATOM     11  S   UNL     1       7.469  -4.963  23.789  0.00  0.00    +0.032 S 
ENDROOT
BRANCH   6  12
ATOM     12  S   UNL     1      10.113   1.118  23.950  0.00  0.00    +0.056 S 
ATOM     13  O   UNL     1      10.250   1.825  22.699  0.00  0.00    -0.153 OA
ATOM     14  O   UNL     1      11.249   0.713  24.745  0.00  0.00    -0.153 OA
BRANCH  12  15
ATOM     15  N   UNL     1       9.174   2.093  24.941  0.00  0.00    -0.204 NA
ATOM     16  H   UNL     1       9.468   1.989  25.913  0.00  0.00    +0.144 HD
ATOM     17  H   UNL     1       8.185   1.895  24.788  0.00  0.00    +0.144 HD
ENDBRANCH  12  15
ENDBRANCH   6  12
TORSDOF 2
ENDMDL
MODEL 4
REMARK VINA RESULT:      -5.3      3.216      5.479
REMARK  Name = 
REMARK  3 active torsions:
REMARK  status: ('A' for Active; 'I' for Inactive)
REMARK    1  A    between atoms: C_1  and  N_2
REMARK    2  A    between atoms: C_8  and  S_12
REMARK    3  A    between atoms: S_12  and  N_13
REMARK                            x       y       z     vdW  Elec       q    Type
REMARK                         _______ _______ _______ _____ _____    ______ ____
ROOT
ATOM      1  C   UNL     1       5.780  -5.963  25.815  0.00  0.00    +0.158 C 
ATOM      2  N   UNL     1       6.022  -5.405  24.504  0.00  0.00    -0.311 N 
ATOM      3  C   UNL     1       6.840  -4.315  24.242  0.00  0.00    +0.060 A 
ATOM      4  C   UNL     1       6.873  -3.918  22.894  0.00  0.00    +0.056 A 
ATOM      5  C   UNL     1       7.632  -2.855  22.426  0.00  0.00    +0.043 A 
ATOM      6  C   UNL     1       8.387  -2.151  23.364  0.00  0.00    +0.106 A 
ATOM      7  C   UNL     1       8.388  -2.524  24.718  0.00  0.00    +0.030 A 
ATOM      8  C   UNL     1       6.003  -4.767  22.071  0.00  0.00    +0.242 A 
ATOM      9  O   UNL     1       5.825  -4.662  20.871  0.00  0.00    -0.278 OA
ATOM     10  C   UNL     1       7.609  -3.605  25.158  0.00  0.00    +0.029 A 
ATOM     11  S   UNL     1       5.243  -5.965  23.130  0.00  0.00    +0.032 S 
ENDROOT
BRANCH   6  12
ATOM     12  S   UNL     1       9.390  -0.797  22.824  0.00  0.00    +0.056 S 
ATOM     13  O   UNL     1      10.369  -0.501  23.843  0.00  0.00    -0.153 OA
ATOM     14  O   UNL     1       8.543   0.216  22.241  0.00  0.00    -0.153 OA
BRANCH  12  15
ATOM     15  N   UNL     1      10.233  -1.491  21.550  0.00  0.00    -0.204 NA
ATOM     16  H   UNL     1      10.080  -0.953  20.697  0.00  0.00    +0.144 HD
ATOM     17  H   UNL     1       9.983  -2.477  21.464  0.00  0.00    +0.144 HD
ENDBRANCH  12  15
ENDBRANCH   6  12
TORSDOF 2
ENDMDL
MODEL 5
REMARK VINA RESULT:      -5.3      2.971      3.506
REMARK  Name = 
REMARK  3 active torsions:
REMARK  status: ('A' for Active; 'I' for Inactive)
REMARK    1  A    between atoms: C_1  and  N_2
REMARK    2  A    between atoms: C_8  and  S_12
REMARK    3  A    between atoms: S_12  and  N_13
REMARK                            x       y       z     vdW  Elec       q    Type
REMARK                         _______ _______ _______ _____ _____    ______ ____
ROOT
ATOM      1  C   UNL     1       8.659  -0.900  26.811  0.00  0.00    +0.158 C 
ATOM      2  N   UNL     1       8.818  -1.188  25.405  0.00  0.00    -0.311 N 
ATOM      3  C   UNL     1       8.096  -2.140  24.700  0.00  0.00    +0.060 A 
ATOM      4  C   UNL     1       8.468  -2.280  23.353  0.00  0.00    +0.056 A 
ATOM      5  C   UNL     1       7.865  -3.174  22.479  0.00  0.00    +0.043 A 
ATOM      6  C   UNL     1       6.844  -3.973  22.991  0.00  0.00    +0.106 A 
ATOM      7  C   UNL     1       6.435  -3.854  24.331  0.00  0.00    +0.030 A 
ATOM      8  C   UNL     1       9.568  -1.369  23.010  0.00  0.00    +0.242 A 
ATOM      9  O   UNL     1      10.103  -1.268  21.921  0.00  0.00    -0.278 OA
ATOM     10  C   UNL     1       7.067  -2.940  25.188  0.00  0.00    +0.029 A 
ATOM     11  S   UNL     1       9.993  -0.452  24.463  0.00  0.00    +0.032 S 
ENDROOT
BRANCH   6  12
ATOM     12  S   UNL     1       6.023  -5.118  21.921  0.00  0.00    +0.056 S 
ATOM     13  O   UNL     1       6.621  -6.422  22.078  0.00  0.00    -0.153 OA
ATOM     14  O   UNL     1       5.828  -4.500  20.630  0.00  0.00    -0.153 OA
BRANCH  12  15
ATOM     15  N   UNL     1       4.504  -5.209  22.629  0.00  0.00    -0.204 NA
ATOM     16  H   UNL     1       4.495  -5.940  23.342  0.00  0.00    +0.144 HD
ATOM     17  H   UNL     1       3.791  -5.329  21.908  0.00  0.00    +0.144 HD
ENDBRANCH  12  15
ENDBRANCH   6  12
TORSDOF 2
ENDMDL
MODEL 6
REMARK VINA RESULT:      -5.3      2.856      5.493
REMARK  Name = 
REMARK  3 active torsions:
REMARK  status: ('A' for Active; 'I' for Inactive)
REMARK    1  A    between atoms: C_1  and  N_2
REMARK    2  A    between atoms: C_8  and  S_12
REMARK    3  A    between atoms: S_12  and  N_13
REMARK                            x       y       z     vdW  Elec       q    Type
REMARK                         _______ _______ _______ _____ _____    ______ ____
ROOT
ATOM      1  C   UNL     1       9.566  -4.621  25.152  0.00  0.00    +0.158 C 
ATOM      2  N   UNL     1       8.735  -3.941  24.185  0.00  0.00    -0.311 N 
ATOM      3  C   UNL     1       8.773  -2.579  23.920  0.00  0.00    +0.060 A 
ATOM      4  C   UNL     1       7.828  -2.138  22.978  0.00  0.00    +0.056 A 
ATOM      5  C   UNL     1       7.709  -0.817  22.573  0.00  0.00    +0.043 A 
ATOM      6  C   UNL     1       8.576   0.108  23.153  0.00  0.00    +0.106 A 
ATOM      7  C   UNL     1       9.542  -0.297  24.090  0.00  0.00    +0.030 A 
ATOM      8  C   UNL     1       6.999  -3.252  22.499  0.00  0.00    +0.242 A 
ATOM      9  O   UNL     1       6.097  -3.176  21.685  0.00  0.00    -0.278 OA
ATOM     10  C   UNL     1       9.637  -1.642  24.478  0.00  0.00    +0.029 A 
ATOM     11  S   UNL     1       7.530  -4.725  23.324  0.00  0.00    +0.032 S 
ENDROOT
BRANCH   6  12
ATOM     12  S   UNL     1       8.484   1.805  22.662  0.00  0.00    +0.056 S 
ATOM     13  O   UNL     1       8.971   2.634  23.739  0.00  0.00    -0.153 OA
ATOM     14  O   UNL     1       7.218   2.040  22.010  0.00  0.00    -0.153 OA
BRANCH  12  15
ATOM     15  N   UNL     1       9.649   1.869  21.457  0.00  0.00    -0.204 NA
ATOM     16  H   UNL     1      10.177   0.995  21.435  0.00  0.00    +0.144 HD
ATOM     17  H   UNL     1      10.232   2.698  21.580  0.00  0.00    +0.144 HD
ENDBRANCH  12  15
ENDBRANCH   6  12
TORSDOF 2
ENDMDL
MODEL 7
REMARK VINA RESULT:      -5.3      4.314      6.709
REMARK  Name = 
REMARK  3 active torsions:
REMARK  status: ('A' for Active; 'I' for Inactive)
REMARK    1  A    between atoms: C_1  and  N_2
REMARK    2  A    between atoms: C_8  and  S_12
REMARK    3  A    between atoms: S_12  and  N_13
REMARK                            x       y       z     vdW  Elec       q    Type
REMARK                         _______ _______ _______ _____ _____    ______ ____
ROOT
ATOM      1  C   UNL     1       2.866  -6.372  22.971  0.00  0.00    +0.158 C 
ATOM      2  N   UNL     1       3.637  -6.369  24.193  0.00  0.00    -0.311 N 
ATOM      3  C   UNL     1       4.922  -5.860  24.322  0.00  0.00    +0.060 A 
ATOM      4  C   UNL     1       5.491  -6.021  25.597  0.00  0.00    +0.056 A 
ATOM      5  C   UNL     1       6.762  -5.578  25.930  0.00  0.00    +0.043 A 
ATOM      6  C   UNL     1       7.501  -4.951  24.928  0.00  0.00    +0.106 A 
ATOM      7  C   UNL     1       6.962  -4.761  23.644  0.00  0.00    +0.030 A 
ATOM      8  C   UNL     1       4.569  -6.717  26.504  0.00  0.00    +0.242 A 
ATOM      9  O   UNL     1       4.786  -7.002  27.667  0.00  0.00    -0.278 OA
ATOM     10  C   UNL     1       5.671  -5.222  23.340  0.00  0.00    +0.029 A 
ATOM     11  S   UNL     1       3.089  -7.086  25.605  0.00  0.00    +0.032 S 
ENDROOT
BRANCH   6  12
ATOM     12  S   UNL     1       9.122  -4.346  25.298  0.00  0.00    +0.056 S 
ATOM     13  O   UNL     1       9.142  -3.851  26.654  0.00  0.00    -0.153 OA
ATOM     14  O   UNL     1       9.603  -3.571  24.179  0.00  0.00    -0.153 OA
BRANCH  12  15
ATOM     15  N   UNL     1      10.016  -5.766  25.302  0.00  0.00    -0.204 NA
ATOM     16  H   UNL     1      10.994  -5.561  25.511  0.00  0.00    +0.144 HD
ATOM     17  H   UNL     1       9.881  -6.265  24.422  0.00  0.00    +0.144 HD
ENDBRANCH  12  15
ENDBRANCH   6  12
TORSDOF 2
ENDMDL
MODEL 8
REMARK VINA RESULT:      -5.1      2.106      2.341
REMARK  Name = 
REMARK  3 active torsions:
REMARK  status: ('A' for Active; 'I' for Inactive)
REMARK    1  A    between atoms: C_1  and  N_2
REMARK    2  A    between atoms: C_8  and  S_12
REMARK    3  A    between atoms: S_12  and  N_13
REMARK                            x       y       z     vdW  Elec       q    Type
REMARK                         _______ _______ _______ _____ _____    ______ ____
ROOT
ATOM      1  C   UNL     1       6.845   1.717  22.322  0.00  0.00    +0.158 C 
ATOM      2  N   UNL     1       7.938   1.086  23.025  0.00  0.00    -0.311 N 
ATOM      3  C   UNL     1       7.995  -0.258  23.365  0.00  0.00    +0.060 A 
ATOM      4  C   UNL     1       9.135  -0.629  24.099  0.00  0.00    +0.056 A 
ATOM      5  C   UNL     1       9.381  -1.925  24.530  0.00  0.00    +0.043 A 
ATOM      6  C   UNL     1       8.427  -2.892  24.216  0.00  0.00    +0.106 A 
ATOM      7  C   UNL     1       7.280  -2.562  23.474  0.00  0.00    +0.030 A 
ATOM      8  C   UNL     1      10.005   0.527  24.344  0.00  0.00    +0.242 A 
ATOM      9  O   UNL     1      11.059   0.516  24.954  0.00  0.00    -0.278 OA
ATOM     10  C   UNL     1       7.062  -1.241  23.053  0.00  0.00    +0.029 A 
ATOM     11  S   UNL     1       9.249   1.949  23.610  0.00  0.00    +0.032 S 
ENDROOT
BRANCH   6  12
ATOM     12  S   UNL     1       8.695  -4.566  24.722  0.00  0.00    +0.056 S 
ATOM     13  O   UNL     1       7.785  -4.885  25.796  0.00  0.00    -0.153 OA
ATOM     14  O   UNL     1      10.115  -4.813  24.805  0.00  0.00    -0.153 OA
BRANCH  12  15
ATOM     15  N   UNL     1       8.152  -5.413  23.379  0.00  0.00    -0.204 NA
ATOM     16  H   UNL     1       7.768  -6.314  23.666  0.00  0.00    +0.144 HD
ATOM     17  H   UNL     1       8.900  -5.487  22.688  0.00  0.00    +0.144 HD
ENDBRANCH  12  15
ENDBRANCH   6  12
TORSDOF 2
ENDMDL
MODEL 9
REMARK VINA RESULT:      -5.1      2.943      5.437
REMARK  Name = 
REMARK  3 active torsions:
REMARK  status: ('A' for Active; 'I' for Inactive)
REMARK    1  A    between atoms: C_1  and  N_2
REMARK    2  A    between atoms: C_8  and  S_12
REMARK    3  A    between atoms: S_12  and  N_13
REMARK                            x       y       z     vdW  Elec       q    Type
REMARK                         _______ _______ _______ _____ _____    ______ ____
ROOT
ATOM      1  C   UNL     1       5.081  -2.838  24.503  0.00  0.00    +0.158 C 
ATOM      2  N   UNL     1       6.507  -2.648  24.365  0.00  0.00    -0.311 N 
ATOM      3  C   UNL     1       7.126  -1.435  24.097  0.00  0.00    +0.060 A 
ATOM      4  C   UNL     1       8.521  -1.509  23.950  0.00  0.00    +0.056 A 
ATOM      5  C   UNL     1       9.324  -0.409  23.685  0.00  0.00    +0.043 A 
ATOM      6  C   UNL     1       8.689   0.824  23.550  0.00  0.00    +0.106 A 
ATOM      7  C   UNL     1       7.296   0.941  23.702  0.00  0.00    +0.030 A 
ATOM      8  C   UNL     1       8.997  -2.890  24.108  0.00  0.00    +0.242 A 
ATOM      9  O   UNL     1      10.153  -3.263  24.030  0.00  0.00    -0.278 OA
ATOM     10  C   UNL     1       6.514  -0.193  23.970  0.00  0.00    +0.029 A 
ATOM     11  S   UNL     1       7.593  -3.922  24.417  0.00  0.00    +0.032 S 
ENDROOT
BRANCH   6  12
ATOM     12  S   UNL     1       9.661   2.267  23.231  0.00  0.00    +0.056 S 
ATOM     13  O   UNL     1      10.936   2.133  23.895  0.00  0.00    -0.153 OA
ATOM     14  O   UNL     1       8.828   3.439  23.373  0.00  0.00    -0.153 OA
BRANCH  12  15
ATOM     15  N   UNL     1       9.967   2.109  21.589  0.00  0.00    -0.204 NA
ATOM     16  H   UNL     1       9.250   1.526  21.155  0.00  0.00    +0.144 HD
ATOM     17  H   UNL     1      10.917   1.767  21.443  0.00  0.00    +0.144 HD
ENDBRANCH  12  15
ENDBRANCH   6  12
TORSDOF 2
ENDMDL
