MODEL 1
REMARK VINA RESULT:      -6.1      0.000      0.000
REMARK  Name = 
REMARK  6 active torsions:
REMARK  status: ('A' for Active; 'I' for Inactive)
REMARK    1  A    between atoms: C4*_2  and  C5*_3
REMARK    2  A    between atoms: C5*_3  and  O5*_4
REMARK    3  A    between atoms: C1*_6  and  N_8
REMARK    4  A    between atoms: C_13  and  N_14
REMARK    5  A    between atoms: C2*_19  and  O2*_21
REMARK    6  A    between atoms: C3*_22  and  O3*_24
REMARK                            x       y       z     vdW  Elec       q    Type
REMARK                         _______ _______ _______ _____ _____    ______ ____
ROOT
ATOM      1  N   UNL     1       7.648  -1.595  24.204  0.00  0.00    -0.302 N 
ATOM      2  C   UNL     1       8.163  -0.831  23.171  0.00  0.00    +0.149 A 
ATOM      3  C   UNL     1       7.536   0.417  23.197  0.00  0.00    +0.071 A 
ATOM      4  C   UNL     1       7.928   1.333  22.209  0.00  0.00    +0.130 A 
ATOM      5  N   UNL     1       8.890   0.978  21.338  0.00  0.00    -0.220 NA
ATOM      6  C   UNL     1       9.413  -0.258  21.425  0.00  0.00    +0.225 A 
ATOM      7  C   UNL     1       6.622   0.374  24.279  0.00  0.00    +0.044 A 
ATOM      8  I   UNL     1       5.345   1.828  24.897  0.00  0.00    -0.041 I 
ATOM      9  N   UNL     1       9.095  -1.238  22.292  0.00  0.00    -0.218 NA
ATOM     10  C   UNL     1       6.698  -0.855  24.880  0.00  0.00    +0.105 A 
ENDROOT
BRANCH   1  14
ATOM     11  C4* UNL     1       7.423  -4.791  25.794  0.00  0.00    +0.177 C 
ATOM     12  C3* UNL     1       8.919  -4.570  25.989  0.00  0.00    +0.178 C 
ATOM     13  C2* UNL     1       9.252  -3.379  25.085  0.00  0.00    +0.195 C 
ATOM     14  C1* UNL     1       7.908  -3.008  24.442  0.00  0.00    +0.252 C 
ATOM     15  O4* UNL     1       6.895  -3.536  25.328  0.00  0.00    -0.346 OA
BRANCH  12  16
ATOM     16  O3* UNL     1       9.647  -5.744  25.629  0.00  0.00    -0.386 OA
ATOM     17  H3* UNL     1      10.075  -5.534  24.771  0.00  0.00    +0.210 HD
ENDBRANCH  12  16
BRANCH  13  18
ATOM     18  O2* UNL     1      10.241  -3.756  24.115  0.00  0.00    -0.385 OA
ATOM     19  H2* UNL     1      10.702  -4.532  24.503  0.00  0.00    +0.210 HD
ENDBRANCH  13  18
BRANCH  11  20
ATOM     20  C5* UNL     1       6.691  -5.237  27.057  0.00  0.00    +0.190 C 
BRANCH  20  21
ATOM     21  O5* UNL     1       7.524  -6.058  27.874  0.00  0.00    -0.392 OA
ATOM     22  H5* UNL     1       8.091  -6.561  27.262  0.00  0.00    +0.210 HD
ENDBRANCH  20  21
ENDBRANCH  11  20
ENDBRANCH   1  14
BRANCH   4  23
ATOM     23  N   UNL     1       7.381   2.598  22.056  0.00  0.00    -0.343 N 
ATOM     24  H   UNL     1       7.101   3.001  22.942  0.00  0.00    +0.144 HD
ATOM     25  H   UNL     1       6.759   2.717  21.269  0.00  0.00    +0.144 HD
ENDBRANCH   4  23
TORSDOF 6
ENDMDL
MODEL 2
REMARK VINA RESULT:      -6.0      3.608      6.336
REMARK  Name = 
REMARK  6 active torsions:
REMARK  status: ('A' for Active; 'I' for Inactive)
REMARK    1  A    between atoms: C4*_2  and  C5*_3
REMARK    2  A    between atoms: C5*_3  and  O5*_4
REMARK    3  A    between atoms: C1*_6  and  N_8
REMARK    4  A    between atoms: C_13  and  N_14
REMARK    5  A    between atoms: C2*_19  and  O2*_21
REMARK    6  A    between atoms: C3*_22  and  O3*_24
REMARK                            x       y       z     vdW  Elec       q    Type
REMARK                         _______ _______ _______ _____ _____    ______ ____
ROOT
ATOM      1  N   UNL     1       7.562  -2.447  24.081  0.00  0.00    -0.302 N 
ATOM      2  C   UNL     1       6.954  -3.163  25.097  0.00  0.00    +0.149 A 
ATOM      3  C   UNL     1       6.499  -4.373  24.567  0.00  0.00    +0.071 A 
ATOM      4  C   UNL     1       5.844  -5.237  25.456  0.00  0.00    +0.130 A 
ATOM      5  N   UNL     1       5.727  -4.876  26.748  0.00  0.00    -0.220 NA
ATOM      6  C   UNL     1       6.213  -3.680  27.127  0.00  0.00    +0.225 A 
ATOM      7  C   UNL     1       6.850  -4.356  23.193  0.00  0.00    +0.044 A 
ATOM      8  I   UNL     1       6.479  -5.775  21.790  0.00  0.00    -0.041 I 
ATOM      9  N   UNL     1       6.820  -2.748  26.369  0.00  0.00    -0.218 NA
ATOM     10  C   UNL     1       7.492  -3.178  22.911  0.00  0.00    +0.105 A 
ENDROOT
BRANCH   1  14
ATOM     11  C4* UNL     1       8.937   0.662  22.967  0.00  0.00    +0.177 C 
ATOM     12  C3* UNL     1      10.004   0.326  24.004  0.00  0.00    +0.178 C 
ATOM     13  C2* UNL     1       9.404  -0.832  24.809  0.00  0.00    +0.195 C 
ATOM     14  C1* UNL     1       8.034  -1.071  24.160  0.00  0.00    +0.252 C 
ATOM     15  O4* UNL     1       8.136  -0.525  22.826  0.00  0.00    -0.346 OA
BRANCH  12  16
ATOM     16  O3* UNL     1      10.281   1.465  24.818  0.00  0.00    -0.386 OA
ATOM     17  H3* UNL     1       9.447   1.652  25.301  0.00  0.00    +0.210 HD
ENDBRANCH  12  16
BRANCH  13  18
ATOM     18  O2* UNL     1       9.302  -0.470  26.194  0.00  0.00    -0.385 OA
ATOM     19  H2* UNL     1      10.221  -0.270  26.478  0.00  0.00    +0.210 HD
ENDBRANCH  13  18
BRANCH  11  20
ATOM     20  C5* UNL     1       9.500   1.085  21.613  0.00  0.00    +0.190 C 
BRANCH  20  21
ATOM     21  O5* UNL     1      10.287   2.269  21.728  0.00  0.00    -0.392 OA
ATOM     22  H5* UNL     1      10.565   2.498  20.822  0.00  0.00    +0.210 HD
ENDBRANCH  20  21
ENDBRANCH  11  20
ENDBRANCH   1  14
BRANCH   4  23
ATOM     23  N   UNL     1       5.288  -6.455  25.095  0.00  0.00    -0.343 N 
ATOM     24  H   UNL     1       4.718  -6.380  24.261  0.00  0.00    +0.144 HD
ATOM     25  H   UNL     1       4.938  -7.022  25.854  0.00  0.00    +0.144 HD
ENDBRANCH   4  23
TORSDOF 6
ENDMDL
MODEL 3
REMARK VINA RESULT:      -5.9      2.390      2.799
REMARK  Name = 
REMARK  6 active torsions:
REMARK  status: ('A' for Active; 'I' for Inactive)
REMARK    1  A    between atoms: C4*_2  and  C5*_3
REMARK    2  A    between atoms: C5*_3  and  O5*_4
REMARK    3  A    between atoms: C1*_6  and  N_8
REMARK    4  A    between atoms: C_13  and  N_14
REMARK    5  A    between atoms: C2*_19  and  O2*_21
REMARK    6  A    between atoms: C3*_22  and  O3*_24
REMARK                            x       y       z     vdW  Elec       q    Type
REMARK                         _______ _______ _______ _____ _____    ______ ____
ROOT
ATOM      1  N   UNL     1       8.110  -0.982  23.199  0.00  0.00    -0.302 N 
ATOM      2  C   UNL     1       9.111  -0.108  23.583  0.00  0.00    +0.149 A 
ATOM      3  C   UNL     1       8.580   1.184  23.598  0.00  0.00    +0.071 A 
ATOM      4  C   UNL     1       9.457   2.217  23.961  0.00  0.00    +0.130 A 
ATOM      5  N   UNL     1      10.722   1.905  24.302  0.00  0.00    -0.220 NA
ATOM      6  C   UNL     1      11.105   0.617  24.246  0.00  0.00    +0.225 A 
ATOM      7  C   UNL     1       7.224   1.055  23.204  0.00  0.00    +0.044 A 
ATOM      8  I   UNL     1       5.842   2.526  22.975  0.00  0.00    -0.041 I 
ATOM      9  N   UNL     1      10.377  -0.454  23.875  0.00  0.00    -0.218 NA
ATOM     10  C   UNL     1       6.953  -0.266  22.962  0.00  0.00    +0.105 A 
ENDROOT
BRANCH   1  14
ATOM     11  C4* UNL     1       7.169  -4.323  22.332  0.00  0.00    +0.177 C 
ATOM     12  C3* UNL     1       7.767  -4.628  23.701  0.00  0.00    +0.178 C 
ATOM     13  C2* UNL     1       8.510  -3.345  24.089  0.00  0.00    +0.195 C 
ATOM     14  C1* UNL     1       8.272  -2.399  22.903  0.00  0.00    +0.252 C 
ATOM     15  O4* UNL     1       7.079  -2.889  22.250  0.00  0.00    -0.346 OA
BRANCH  12  16
ATOM     16  O3* UNL     1       8.638  -5.756  23.623  0.00  0.00    -0.386 OA
ATOM     17  H3* UNL     1       9.033  -5.720  22.725  0.00  0.00    +0.210 HD
ENDBRANCH  12  16
BRANCH  13  18
ATOM     18  O2* UNL     1       9.902  -3.625  24.300  0.00  0.00    -0.385 OA
ATOM     19  H2* UNL     1      10.141  -4.283  23.612  0.00  0.00    +0.210 HD
ENDBRANCH  13  18
BRANCH  11  20
ATOM     20  C5* UNL     1       5.798  -4.953  22.099  0.00  0.00    +0.190 C 
BRANCH  20  21
ATOM     21  O5* UNL     1       5.840  -6.366  22.290  0.00  0.00    -0.392 OA
ATOM     22  H5* UNL     1       5.265  -6.554  23.054  0.00  0.00    +0.210 HD
ENDBRANCH  20  21
ENDBRANCH  11  20
ENDBRANCH   1  14
BRANCH   4  23
ATOM     23  N   UNL     1       9.116   3.560  23.986  0.00  0.00    -0.343 N 
ATOM     24  H   UNL     1       8.123   3.697  24.133  0.00  0.00    +0.144 HD
ATOM     25  H   UNL     1       9.574   4.144  23.300  0.00  0.00    +0.144 HD
ENDBRANCH   4  23
TORSDOF 6
ENDMDL
MODEL 4
REMARK VINA RESULT:      -5.9      3.423      6.088
REMARK  Name = 
REMARK  6 active torsions:
REMARK  status: ('A' for Active; 'I' for Inactive)
REMARK    1  A    between atoms: C4*_2  and  C5*_3
REMARK    2  A    between atoms: C5*_3  and  O5*_4
REMARK    3  A    between atoms: C1*_6  and  N_8
REMARK    4  A    between atoms: C_13  and  N_14
REMARK    5  A    between atoms: C2*_19  and  O2*_21
REMARK    6  A    between atoms: C3*_22  and  O3*_24
REMARK                            x       y       z     vdW  Elec       q    Type
REMARK                         _______ _______ _______ _____ _____    ______ ____
ROOT
ATOM      1  N   UNL     1       8.125  -1.744  24.051  0.00  0.00    -0.302 N 
ATOM      2  C   UNL     1       8.549  -2.987  24.489  0.00  0.00    +0.149 A 
ATOM      3  C   UNL     1       7.447  -3.660  25.022  0.00  0.00    +0.071 A 
ATOM      4  C   UNL     1       7.685  -4.947  25.527  0.00  0.00    +0.130 A 
ATOM      5  N   UNL     1       8.926  -5.461  25.438  0.00  0.00    -0.220 NA
ATOM      6  C   UNL     1       9.899  -4.704  24.899  0.00  0.00    +0.225 A 
ATOM      7  C   UNL     1       6.346  -2.776  24.892  0.00  0.00    +0.044 A 
ATOM      8  I   UNL     1       4.426  -3.074  25.480  0.00  0.00    -0.041 I 
ATOM      9  N   UNL     1       9.809  -3.448  24.421  0.00  0.00    -0.218 NA
ATOM     10  C   UNL     1       6.774  -1.614  24.304  0.00  0.00    +0.105 A 
ENDROOT
BRANCH   1  14
ATOM     11  C4* UNL     1       9.397   1.583  23.718  0.00  0.00    +0.177 C 
ATOM     12  C3* UNL     1       8.996   1.370  22.262  0.00  0.00    +0.178 C 
ATOM     13  C2* UNL     1       8.717  -0.133  22.157  0.00  0.00    +0.195 C 
ATOM     14  C1* UNL     1       8.978  -0.664  23.574  0.00  0.00    +0.252 C 
ATOM     15  O4* UNL     1       8.833   0.478  24.448  0.00  0.00    -0.346 OA
BRANCH  12  16
ATOM     16  O3* UNL     1      10.047   1.788  21.391  0.00  0.00    -0.386 OA
ATOM     17  H3* UNL     1       9.885   1.323  20.542  0.00  0.00    +0.210 HD
ENDBRANCH  12  16
BRANCH  13  18
ATOM     18  O2* UNL     1       9.581  -0.729  21.178  0.00  0.00    -0.385 OA
ATOM     19  H2* UNL     1      10.105  -1.399  21.667  0.00  0.00    +0.210 HD
ENDBRANCH  13  18
BRANCH  11  20
ATOM     20  C5* UNL     1       8.916   2.906  24.307  0.00  0.00    +0.190 C 
BRANCH  20  21
ATOM     21  O5* UNL     1       9.096   3.978  23.383  0.00  0.00    -0.392 OA
ATOM     22  H5* UNL     1       8.263   4.485  23.390  0.00  0.00    +0.210 HD
ENDBRANCH  20  21
ENDBRANCH  11  20
ENDBRANCH   1  14
BRANCH   4  23
ATOM     23  N   UNL     1       6.722  -5.740  26.132  0.00  0.00    -0.343 N 
ATOM     24  H   UNL     1       7.058  -6.157  26.991  0.00  0.00    +0.144 HD
ATOM     25  H   UNL     1       6.175  -6.320  25.511  0.00  0.00    +0.144 HD
ENDBRANCH   4  23
TORSDOF 6
ENDMDL
MODEL 5
REMARK VINA RESULT:      -5.8      3.711      6.432
REMARK  Name = 
REMARK  6 active torsions:
REMARK  status: ('A' for Active; 'I' for Inactive)
REMARK    1  A    between atoms: C4*_2  and  C5*_3
REMARK    2  A    between atoms: C5*_3  and  O5*_4
REMARK    3  A    between atoms: C1*_6  and  N_8
REMARK    4  A    between atoms: C_13  and  N_14
REMARK    5  A    between atoms: C2*_19  and  O2*_21
REMARK    6  A    between atoms: C3*_22  and  O3*_24
REMARK                            x       y       z     vdW  Elec       q    Type
REMARK                         _______ _______ _______ _____ _____    ______ ____
ROOT
ATOM      1  N   UNL     1       7.859  -1.968  23.328  0.00  0.00    -0.302 N 
ATOM      2  C   UNL     1       7.465  -2.572  24.509  0.00  0.00    +0.149 A 
ATOM      3  C   UNL     1       6.974  -3.844  24.205  0.00  0.00    +0.071 A 
ATOM      4  C   UNL     1       6.517  -4.612  25.287  0.00  0.00    +0.130 A 
ATOM      5  N   UNL     1       6.612  -4.105  26.530  0.00  0.00    -0.220 NA
ATOM      6  C   UNL     1       7.108  -2.864  26.683  0.00  0.00    +0.225 A 
ATOM      7  C   UNL     1       7.081  -3.980  22.798  0.00  0.00    +0.044 A 
ATOM      8  I   UNL     1       6.530  -5.561  21.649  0.00  0.00    -0.041 I 
ATOM      9  N   UNL     1       7.536  -2.014  25.730  0.00  0.00    -0.218 NA
ATOM     10  C   UNL     1       7.617  -2.831  22.278  0.00  0.00    +0.105 A 
ENDROOT
BRANCH   1  14
ATOM     11  C4* UNL     1       7.565   1.547  22.731  0.00  0.00    +0.177 C 
ATOM     12  C3* UNL     1       8.495   1.219  21.567  0.00  0.00    +0.178 C 
ATOM     13  C2* UNL     1       8.981  -0.205  21.856  0.00  0.00    +0.195 C 
ATOM     14  C1* UNL     1       8.282  -0.583  23.169  0.00  0.00    +0.252 C 
ATOM     15  O4* UNL     1       7.126   0.281  23.255  0.00  0.00    -0.346 OA
BRANCH  12  16
ATOM     16  O3* UNL     1       9.569   2.157  21.510  0.00  0.00    -0.386 OA
ATOM     17  H3* UNL     1       9.458   2.630  20.657  0.00  0.00    +0.210 HD
ENDBRANCH  12  16
BRANCH  13  18
ATOM     18  O2* UNL     1      10.412  -0.225  21.968  0.00  0.00    -0.385 OA
ATOM     19  H2* UNL     1      10.636   0.524  22.561  0.00  0.00    +0.210 HD
ENDBRANCH  13  18
BRANCH  11  20
ATOM     20  C5* UNL     1       6.363   2.404  22.342  0.00  0.00    +0.190 C 
BRANCH  20  21
ATOM     21  O5* UNL     1       6.775   3.623  21.726  0.00  0.00    -0.392 OA
ATOM     22  H5* UNL     1       7.287   4.107  22.400  0.00  0.00    +0.210 HD
ENDBRANCH  20  21
ENDBRANCH  11  20
ENDBRANCH   1  14
BRANCH   4  23
ATOM     23  N   UNL     1       5.956  -5.874  25.167  0.00  0.00    -0.343 N 
ATOM     24  H   UNL     1       5.555  -6.026  24.250  0.00  0.00    +0.144 HD
ATOM     25  H   UNL     1       5.435  -6.203  25.968  0.00  0.00    +0.144 HD
ENDBRANCH   4  23
TORSDOF 6
ENDMDL
MODEL 6
REMARK VINA RESULT:      -5.6      1.518      2.226
REMARK  Name = 
REMARK  6 active torsions:
REMARK  status: ('A' for Active; 'I' for Inactive)
REMARK    1  A    between atoms: C4*_2  and  C5*_3
REMARK    2  A    between atoms: C5*_3  and  O5*_4
REMARK    3  A    between atoms: C1*_6  and  N_8
REMARK    4  A    between atoms: C_13  and  N_14
REMARK    5  A    between atoms: C2*_19  and  O2*_21
REMARK    6  A    between atoms: C3*_22  and  O3*_24
REMARK                            x       y       z     vdW  Elec       q    Type
REMARK                         _______ _______ _______ _____ _____    ______ ____
ROOT
ATOM      1  N   UNL     1       6.869  -1.259  23.973  0.00  0.00    -0.302 N 
ATOM      2  C   UNL     1       7.976  -1.035  23.173  0.00  0.00    +0.149 A 
ATOM      3  C   UNL     1       7.968   0.306  22.783  0.00  0.00    +0.071 A 
ATOM      4  C   UNL     1       9.021   0.722  21.954  0.00  0.00    +0.130 A 
ATOM      5  N   UNL     1       9.976  -0.166  21.620  0.00  0.00    -0.220 NA
ATOM      6  C   UNL     1       9.862  -1.431  22.066  0.00  0.00    +0.225 A 
ATOM      7  C   UNL     1       6.815   0.880  23.374  0.00  0.00    +0.044 A 
ATOM      8  I   UNL     1       6.147   2.792  23.217  0.00  0.00    -0.041 I 
ATOM      9  N   UNL     1       8.885  -1.962  22.826  0.00  0.00    -0.218 NA
ATOM     10  C   UNL     1       6.154  -0.083  24.091  0.00  0.00    +0.105 A 
ENDROOT
BRANCH   1  14
ATOM     11  C4* UNL     1       7.057  -4.498  25.479  0.00  0.00    +0.177 C 
ATOM     12  C3* UNL     1       6.563  -4.939  24.106  0.00  0.00    +0.178 C 
ATOM     13  C2* UNL     1       6.125  -3.641  23.420  0.00  0.00    +0.195 C 
ATOM     14  C1* UNL     1       6.409  -2.551  24.463  0.00  0.00    +0.252 C 
ATOM     15  O4* UNL     1       7.409  -3.109  25.345  0.00  0.00    -0.346 OA
BRANCH  12  16
ATOM     16  O3* UNL     1       5.489  -5.871  24.239  0.00  0.00    -0.386 OA
ATOM     17  H3* UNL     1       4.676  -5.326  24.306  0.00  0.00    +0.210 HD
ENDBRANCH  12  16
BRANCH  13  18
ATOM     18  O2* UNL     1       4.736  -3.715  23.065  0.00  0.00    -0.385 OA
ATOM     19  H2* UNL     1       4.712  -3.624  22.088  0.00  0.00    +0.210 HD
ENDBRANCH  13  18
BRANCH  11  20
ATOM     20  C5* UNL     1       8.249  -5.298  25.997  0.00  0.00    +0.190 C 
BRANCH  20  21
ATOM     21  O5* UNL     1       8.046  -5.711  27.348  0.00  0.00    -0.392 OA
ATOM     22  H5* UNL     1       8.471  -5.032  27.905  0.00  0.00    +0.210 HD
ENDBRANCH  20  21
ENDBRANCH  11  20
ENDBRANCH   1  14
BRANCH   4  23
ATOM     23  N   UNL     1       9.149   2.001  21.436  0.00  0.00    -0.343 N 
ATOM     24  H   UNL     1       8.810   2.707  22.078  0.00  0.00    +0.144 HD
ATOM     25  H   UNL     1       8.917   2.106  20.458  0.00  0.00    +0.144 HD
ENDBRANCH   4  23
TORSDOF 6
ENDMDL
MODEL 7
REMARK VINA RESULT:      -5.6      4.999      7.373
REMARK  Name = 
REMARK  6 active torsions:
REMARK  status: ('A' for Active; 'I' for Inactive)
REMARK    1  A    between atoms: C4*_2  and  C5*_3
REMARK    2  A    between atoms: C5*_3  and  O5*_4
REMARK    3  A    between atoms: C1*_6  and  N_8
REMARK    4  A    between atoms: C_13  and  N_14
REMARK    5  A    between atoms: C2*_19  and  O2*_21
REMARK    6  A    between atoms: C3*_22  and  O3*_24
REMARK                            x       y       z     vdW  Elec       q    Type
REMARK                         _______ _______ _______ _____ _____    ______ ____
ROOT
ATOM      1  N   UNL     1       9.187   1.890  23.744  0.00  0.00    -0.302 N 
ATOM      2  C   UNL     1       9.256   0.751  22.961  0.00  0.00    +0.149 A 
ATOM      3  C   UNL     1       8.985  -0.353  23.773  0.00  0.00    +0.071 A 
ATOM      4  C   UNL     1       9.016  -1.610  23.149  0.00  0.00    +0.130 A 
ATOM      5  N   UNL     1       9.263  -1.674  21.827  0.00  0.00    -0.220 NA
ATOM      6  C   UNL     1       9.507  -0.530  21.162  0.00  0.00    +0.225 A 
ATOM      7  C   UNL     1       8.755   0.162  25.073  0.00  0.00    +0.044 A 
ATOM      8  I   UNL     1       8.332  -0.868  26.771  0.00  0.00    -0.041 I 
ATOM      9  N   UNL     1       9.548   0.725  21.649  0.00  0.00    -0.218 NA
ATOM     10  C   UNL     1       8.885   1.526  25.042  0.00  0.00    +0.105 A 
ENDROOT
BRANCH   1  14
ATOM     11  C4* UNL     1      11.274   4.745  23.205  0.00  0.00    +0.177 C 
ATOM     12  C3* UNL     1      10.278   5.396  24.159  0.00  0.00    +0.178 C 
ATOM     13  C2* UNL     1       9.122   4.394  24.249  0.00  0.00    +0.195 C 
ATOM     14  C1* UNL     1       9.554   3.239  23.335  0.00  0.00    +0.252 C 
ATOM     15  O4* UNL     1      10.993   3.334  23.245  0.00  0.00    -0.346 OA
BRANCH  12  16
ATOM     16  O3* UNL     1       9.859   6.663  23.651  0.00  0.00    -0.386 OA
ATOM     17  H3* UNL     1       8.879   6.626  23.630  0.00  0.00    +0.210 HD
ENDBRANCH  12  16
BRANCH  13  18
ATOM     18  O2* UNL     1       7.899   5.011  23.816  0.00  0.00    -0.385 OA
ATOM     19  H2* UNL     1       7.331   5.050  24.616  0.00  0.00    +0.210 HD
ENDBRANCH  13  18
BRANCH  11  20
ATOM     20  C5* UNL     1      12.735   5.003  23.562  0.00  0.00    +0.190 C 
BRANCH  20  21
ATOM     21  O5* UNL     1      12.867   6.155  24.395  0.00  0.00    -0.392 OA
ATOM     22  H5* UNL     1      13.042   5.820  25.294  0.00  0.00    +0.210 HD
ENDBRANCH  20  21
ENDBRANCH  11  20
ENDBRANCH   1  14
BRANCH   4  23
ATOM     23  N   UNL     1       8.817  -2.814  23.807  0.00  0.00    -0.343 N 
ATOM     24  H   UNL     1       7.834  -3.040  23.896  0.00  0.00    +0.144 HD
ATOM     25  H   UNL     1       9.413  -2.983  24.606  0.00  0.00    +0.144 HD
ENDBRANCH   4  23
TORSDOF 6
ENDMDL
MODEL 8
REMARK VINA RESULT:      -5.6      2.981      5.831
REMARK  Name = 
REMARK  6 active torsions:
REMARK  status: ('A' for Active; 'I' for Inactive)
REMARK    1  A    between atoms: C4*_2  and  C5*_3
REMARK    2  A    between atoms: C5*_3  and  O5*_4
REMARK    3  A    between atoms: C1*_6  and  N_8
REMARK    4  A    between atoms: C_13  and  N_14
REMARK    5  A    between atoms: C2*_19  and  O2*_21
REMARK    6  A    between atoms: C3*_22  and  O3*_24
REMARK                            x       y       z     vdW  Elec       q    Type
REMARK                         _______ _______ _______ _____ _____    ______ ____
ROOT
ATOM      1  N   UNL     1       7.518  -1.888  25.291  0.00  0.00    -0.302 N 
ATOM      2  C   UNL     1       7.474  -3.051  26.040  0.00  0.00    +0.149 A 
ATOM      3  C   UNL     1       6.309  -3.031  26.810  0.00  0.00    +0.071 A 
ATOM      4  C   UNL     1       6.095  -4.136  27.648  0.00  0.00    +0.130 A 
ATOM      5  N   UNL     1       6.984  -5.146  27.633  0.00  0.00    -0.220 NA
ATOM      6  C   UNL     1       8.066  -5.038  26.840  0.00  0.00    +0.225 A 
ATOM      7  C   UNL     1       5.656  -1.811  26.501  0.00  0.00    +0.044 A 
ATOM      8  I   UNL     1       3.917  -1.094  27.267  0.00  0.00    -0.041 I 
ATOM      9  N   UNL     1       8.407  -4.019  26.029  0.00  0.00    -0.218 NA
ATOM     10  C   UNL     1       6.403  -1.126  25.579  0.00  0.00    +0.105 A 
ENDROOT
BRANCH   1  14
ATOM     11  C4* UNL     1       9.245  -0.031  22.769  0.00  0.00    +0.177 C 
ATOM     12  C3* UNL     1       9.525  -1.427  22.222  0.00  0.00    +0.178 C 
ATOM     13  C2* UNL     1       9.120  -2.371  23.359  0.00  0.00    +0.195 C 
ATOM     14  C1* UNL     1       8.633  -1.433  24.472  0.00  0.00    +0.252 C 
ATOM     15  O4* UNL     1       8.265  -0.202  23.809  0.00  0.00    -0.346 OA
BRANCH  12  16
ATOM     16  O3* UNL     1      10.903  -1.557  21.874  0.00  0.00    -0.386 OA
ATOM     17  H3* UNL     1      11.318  -0.703  22.122  0.00  0.00    +0.210 HD
ENDBRANCH  12  16
BRANCH  13  18
ATOM     18  O2* UNL     1      10.244  -3.168  23.763  0.00  0.00    -0.385 OA
ATOM     19  H2* UNL     1      10.799  -2.574  24.314  0.00  0.00    +0.210 HD
ENDBRANCH  13  18
BRANCH  11  20
ATOM     20  C5* UNL     1       8.736   0.955  21.720  0.00  0.00    +0.190 C 
BRANCH  20  21
ATOM     21  O5* UNL     1       9.706   1.965  21.448  0.00  0.00    -0.392 OA
ATOM     22  H5* UNL     1      10.305   1.591  20.776  0.00  0.00    +0.210 HD
ENDBRANCH  20  21
ENDBRANCH  11  20
ENDBRANCH   1  14
BRANCH   4  23
ATOM     23  N   UNL     1       5.019  -4.263  28.513  0.00  0.00    -0.343 N 
ATOM     24  H   UNL     1       5.135  -5.040  29.151  0.00  0.00    +0.144 HD
ATOM     25  H   UNL     1       4.105  -4.124  28.104  0.00  0.00    +0.144 HD
ENDBRANCH   4  23
TORSDOF 6
ENDMDL
MODEL 9
REMARK VINA RESULT:      -5.5      3.565      5.875
REMARK  Name = 
REMARK  6 active torsions:
REMARK  status: ('A' for Active; 'I' for Inactive)
REMARK    1  A    between atoms: C4*_2  and  C5*_3
REMARK    2  A    between atoms: C5*_3  and  O5*_4
REMARK    3  A    between atoms: C1*_6  and  N_8
REMARK    4  A    between atoms: C_13  and  N_14
REMARK    5  A    between atoms: C2*_19  and  O2*_21
REMARK    6  A    between atoms: C3*_22  and  O3*_24
REMARK                            x       y       z     vdW  Elec       q    Type
REMARK                         _______ _______ _______ _____ _____    ______ ____
ROOT
ATOM      1  N   UNL     1       7.161  -3.155  24.370  0.00  0.00    -0.302 N 
ATOM      2  C   UNL     1       6.609  -3.967  23.395  0.00  0.00    +0.149 A 
ATOM      3  C   UNL     1       5.902  -4.991  24.030  0.00  0.00    +0.071 A 
ATOM      4  C   UNL     1       5.273  -5.926  23.194  0.00  0.00    +0.130 A 
ATOM      5  N   UNL     1       5.354  -5.765  21.860  0.00  0.00    -0.220 NA
ATOM      6  C   UNL     1       6.068  -4.731  21.380  0.00  0.00    +0.225 A 
ATOM      7  C   UNL     1       6.053  -4.768  25.421  0.00  0.00    +0.044 A 
ATOM      8  I   UNL     1       5.318  -5.880  26.954  0.00  0.00    -0.041 I 
ATOM      9  N   UNL     1       6.749  -3.796  22.069  0.00  0.00    -0.218 NA
ATOM     10  C   UNL     1       6.824  -3.651  25.614  0.00  0.00    +0.105 A 
ENDROOT
BRANCH   1  14
ATOM     11  C4* UNL     1       8.391  -0.024  23.154  0.00  0.00    +0.177 C 
ATOM     12  C3* UNL     1       9.407  -0.926  22.460  0.00  0.00    +0.178 C 
ATOM     13  C2* UNL     1       9.221  -2.294  23.125  0.00  0.00    +0.195 C 
ATOM     14  C1* UNL     1       8.102  -2.065  24.151  0.00  0.00    +0.252 C 
ATOM     15  O4* UNL     1       7.382  -0.901  23.686  0.00  0.00    -0.346 OA
BRANCH  12  16
ATOM     16  O3* UNL     1      10.728  -0.414  22.634  0.00  0.00    -0.386 OA
ATOM     17  H3* UNL     1      10.768   0.399  22.086  0.00  0.00    +0.210 HD
ENDBRANCH  12  16
BRANCH  13  18
ATOM     18  O2* UNL     1      10.449  -2.718  23.735  0.00  0.00    -0.385 OA
ATOM     19  H2* UNL     1      10.875  -1.895  24.061  0.00  0.00    +0.210 HD
ENDBRANCH  13  18
BRANCH  11  20
ATOM     20  C5* UNL     1       7.757   1.017  22.235  0.00  0.00    +0.190 C 
BRANCH  20  21
ATOM     21  O5* UNL     1       8.637   1.370  21.169  0.00  0.00    -0.392 OA
ATOM     22  H5* UNL     1       9.246   2.039  21.531  0.00  0.00    +0.210 HD
ENDBRANCH  20  21
ENDBRANCH  11  20
ENDBRANCH   1  14
BRANCH   4  23
ATOM     23  N   UNL     1       4.569  -7.030  23.649  0.00  0.00    -0.343 N 
ATOM     24  H   UNL     1       4.393  -6.985  24.645  0.00  0.00    +0.144 HD
ATOM     25  H   UNL     1       4.846  -7.921  23.261  0.00  0.00    +0.144 HD
ENDBRANCH   4  23
TORSDOF 6
ENDMDL
