MODEL 1
REMARK VINA RESULT:      -8.0      0.000      0.000
REMARK  Name = 
REMARK  10 active torsions:
REMARK  status: ('A' for Active; 'I' for Inactive)
REMARK    1  A    between atoms: C_1  and  O_2
REMARK    2  A    between atoms: O_2  and  C_3
REMARK    3  A    between atoms: C_9  and  C_10
REMARK    4  A    between atoms: C_9  and  C_11
REMARK    5  A    between atoms: N_14  and  C_15
REMARK    6  A    between atoms: C_15  and  C_16
REMARK    7  A    between atoms: C_16  and  C_17
REMARK    8  A    between atoms: C_20  and  S_23
REMARK    9  A    between atoms: S_23  and  N_26
REMARK   10  A    between atoms: N_29  and  C_30
REMARK                            x       y       z     vdW  Elec       q    Type
REMARK                         _______ _______ _______ _____ _____    ______ ____
ROOT
ATOM      1  C   UNL     1       9.612   1.592  23.081  0.00  0.00    -0.046 A 
ATOM      2  C   UNL     1       8.782   1.783  21.966  0.00  0.00    +0.005 A 
ATOM      3  C   UNL     1       7.930   2.889  21.891  0.00  0.00    +0.029 A 
ATOM      4  C   UNL     1       7.920   3.823  22.928  0.00  0.00    +0.109 A 
ATOM      5  C   UNL     1       8.771   3.682  24.021  0.00  0.00    +0.029 A 
ATOM      6  C   UNL     1       9.623   2.580  24.085  0.00  0.00    +0.005 A 
ENDROOT
BRANCH   4   7
ATOM      7  S   UNL     1       6.747   5.141  22.924  0.00  0.00    +0.076 S 
ATOM      8  O   UNL     1       7.173   6.099  21.916  0.00  0.00    -0.150 OA
ATOM      9  O   UNL     1       6.496   5.572  24.278  0.00  0.00    -0.150 OA
BRANCH   7  10
ATOM     10  N   UNL     1       5.377   4.453  22.297  0.00  0.00    -0.169 N 
ATOM     11  H   UNL     1       5.496   3.472  22.090  0.00  0.00    +0.178 HD
ATOM     12  C   UNL     1       4.143   5.065  22.206  0.00  0.00    +0.319 C 
ATOM     13  N   UNL     1       3.231   4.229  21.640  0.00  0.00    -0.295 N 
ATOM     14  H   UNL     1       3.614   3.429  21.165  0.00  0.00    +0.151 HD
ATOM     15  O   UNL     1       3.906   6.204  22.579  0.00  0.00    -0.251 OA
BRANCH  13  16
ATOM     16  C   UNL     1       1.887   4.652  21.265  0.00  0.00    +0.074 C 
ATOM     17  C   UNL     1       0.875   4.154  22.303  0.00  0.00    +0.022 C 
ATOM     18  C   UNL     1       0.762   2.628  22.317  0.00  0.00    +0.002 C 
ATOM     19  C   UNL     1       0.514   2.042  20.926  0.00  0.00    +0.000 C 
ATOM     20  C   UNL     1       1.453   2.596  19.856  0.00  0.00    +0.002 C 
ATOM     21  C   UNL     1       1.509   4.124  19.876  0.00  0.00    +0.022 C 
ENDBRANCH  13  16
ENDBRANCH   7  10
ENDBRANCH   4   7
BRANCH   1  22
ATOM     22  C   UNL     1      10.452   0.330  23.185  0.00  0.00    +0.054 C 
BRANCH  22  23
ATOM     23  C   UNL     1      10.294  -0.336  24.553  0.00  0.00    +0.121 C 
BRANCH  23  30
ATOM     24  C   UNL     1       6.599  -4.948  23.029  0.00  0.00    +0.121 A 
ATOM     25  C   UNL     1       5.423  -4.258  23.318  0.00  0.00    +0.046 A 
ATOM     26  C   UNL     1       5.459  -3.040  24.006  0.00  0.00    +0.009 A 
ATOM     27  C   UNL     1       6.682  -2.473  24.393  0.00  0.00    -0.021 A 
ATOM     28  C   UNL     1       6.759  -1.144  25.135  0.00  0.00    +0.067 C 
ATOM     29  C   UNL     1       8.183  -0.865  25.643  0.00  0.00    +0.232 C 
ATOM     30  N   UNL     1       9.162  -1.218  24.732  0.00  0.00    -0.237 N 
ATOM     31  C   UNL     1       9.181  -2.477  24.171  0.00  0.00    +0.253 C 
ATOM     32  O   UNL     1      10.201  -3.032  23.774  0.00  0.00    -0.270 OA
ATOM     33  O   UNL     1       8.427  -0.257  26.683  0.00  0.00    -0.274 OA
ATOM     34  C   UNL     1       6.445   0.009  24.157  0.00  0.00    +0.025 C 
ATOM     35  C   UNL     1       5.780  -1.085  26.321  0.00  0.00    +0.025 C 
ATOM     36  C   UNL     1       7.862  -3.141  24.021  0.00  0.00    +0.045 A 
ATOM     37  C   UNL     1       7.820  -4.379  23.369  0.00  0.00    +0.059 A 
BRANCH  24  39
ATOM     38  C   UNL     1       6.036  -6.011  20.997  0.00  0.00    +0.277 C 
ATOM     39  O   UNL     1       6.446  -6.130  22.358  0.00  0.00    -0.495 OA
ENDBRANCH  24  39
ENDBRANCH  23  30
ENDBRANCH  22  23
ENDBRANCH   1  22
TORSDOF 7
ENDMDL
MODEL 2
REMARK VINA RESULT:      -7.5      3.693      4.680
REMARK  Name = 
REMARK  10 active torsions:
REMARK  status: ('A' for Active; 'I' for Inactive)
REMARK    1  A    between atoms: C_1  and  O_2
REMARK    2  A    between atoms: O_2  and  C_3
REMARK    3  A    between atoms: C_9  and  C_10
REMARK    4  A    between atoms: C_9  and  C_11
REMARK    5  A    between atoms: N_14  and  C_15
REMARK    6  A    between atoms: C_15  and  C_16
REMARK    7  A    between atoms: C_16  and  C_17
REMARK    8  A    between atoms: C_20  and  S_23
REMARK    9  A    between atoms: S_23  and  N_26
REMARK   10  A    between atoms: N_29  and  C_30
REMARK                            x       y       z     vdW  Elec       q    Type
REMARK                         _______ _______ _______ _____ _____    ______ ____
ROOT
ATOM      1  C   UNL     1       9.812  -0.352  22.872  0.00  0.00    -0.046 A 
ATOM      2  C   UNL     1       9.196   0.474  21.920  0.00  0.00    +0.005 A 
ATOM      3  C   UNL     1       9.052   1.846  22.150  0.00  0.00    +0.029 A 
ATOM      4  C   UNL     1       9.545   2.402  23.330  0.00  0.00    +0.109 A 
ATOM      5  C   UNL     1      10.206   1.613  24.267  0.00  0.00    +0.029 A 
ATOM      6  C   UNL     1      10.351   0.246  24.027  0.00  0.00    +0.005 A 
ENDROOT
BRANCH   4   7
ATOM      7  S   UNL     1       9.241   4.099  23.707  0.00  0.00    +0.076 S 
ATOM      8  O   UNL     1       8.129   4.536  22.877  0.00  0.00    -0.150 OA
ATOM      9  O   UNL     1      10.485   4.829  23.700  0.00  0.00    -0.150 OA
BRANCH   7  10
ATOM     10  N   UNL     1       8.627   4.061  25.245  0.00  0.00    -0.169 N 
ATOM     11  H   UNL     1       9.242   4.492  25.919  0.00  0.00    +0.178 HD
ATOM     12  C   UNL     1       7.354   3.653  25.589  0.00  0.00    +0.319 C 
ATOM     13  N   UNL     1       7.167   3.741  26.933  0.00  0.00    -0.295 N 
ATOM     14  H   UNL     1       8.004   3.841  27.481  0.00  0.00    +0.151 HD
ATOM     15  O   UNL     1       6.514   3.260  24.793  0.00  0.00    -0.251 OA
BRANCH  13  16
ATOM     16  C   UNL     1       5.982   3.225  27.608  0.00  0.00    +0.074 C 
ATOM     17  C   UNL     1       5.586   4.162  28.755  0.00  0.00    +0.022 C 
ATOM     18  C   UNL     1       6.631   4.188  29.871  0.00  0.00    +0.002 C 
ATOM     19  C   UNL     1       7.006   2.789  30.361  0.00  0.00    +0.000 C 
ATOM     20  C   UNL     1       7.315   1.811  29.228  0.00  0.00    +0.002 C 
ATOM     21  C   UNL     1       6.227   1.813  28.154  0.00  0.00    +0.022 C 
ENDBRANCH  13  16
ENDBRANCH   7  10
ENDBRANCH   4   7
BRANCH   1  22
ATOM     22  C   UNL     1       9.863  -1.853  22.643  0.00  0.00    +0.054 C 
BRANCH  22  23
ATOM     23  C   UNL     1       9.825  -2.621  23.966  0.00  0.00    +0.121 C 
BRANCH  23  30
ATOM     24  C   UNL     1       4.378  -5.370  23.863  0.00  0.00    +0.121 A 
ATOM     25  C   UNL     1       3.675  -4.256  24.316  0.00  0.00    +0.046 A 
ATOM     26  C   UNL     1       4.350  -3.142  24.825  0.00  0.00    +0.009 A 
ATOM     27  C   UNL     1       5.753  -3.111  24.863  0.00  0.00    -0.021 A 
ATOM     28  C   UNL     1       6.521  -1.910  25.402  0.00  0.00    +0.067 C 
ATOM     29  C   UNL     1       8.020  -2.221  25.548  0.00  0.00    +0.232 C 
ATOM     30  N   UNL     1       8.524  -2.963  24.495  0.00  0.00    -0.237 N 
ATOM     31  C   UNL     1       7.913  -4.134  24.101  0.00  0.00    +0.253 C 
ATOM     32  O   UNL     1       8.503  -5.065  23.563  0.00  0.00    -0.270 OA
ATOM     33  O   UNL     1       8.731  -1.740  26.427  0.00  0.00    -0.274 OA
ATOM     34  C   UNL     1       6.445  -0.752  24.382  0.00  0.00    +0.025 C 
ATOM     35  C   UNL     1       5.971  -1.431  26.757  0.00  0.00    +0.025 C 
ATOM     36  C   UNL     1       6.447  -4.208  24.327  0.00  0.00    +0.045 A 
ATOM     37  C   UNL     1       5.768  -5.339  23.856  0.00  0.00    +0.059 A 
BRANCH  24  39
ATOM     38  C   UNL     1       2.287  -6.059  23.012  0.00  0.00    +0.277 C 
ATOM     39  O   UNL     1       3.617  -6.404  23.392  0.00  0.00    -0.495 OA
ENDBRANCH  24  39
ENDBRANCH  23  30
ENDBRANCH  22  23
ENDBRANCH   1  22
TORSDOF 7
ENDMDL
MODEL 3
REMARK VINA RESULT:      -7.5      1.652      2.327
REMARK  Name = 
REMARK  10 active torsions:
REMARK  status: ('A' for Active; 'I' for Inactive)
REMARK    1  A    between atoms: C_1  and  O_2
REMARK    2  A    between atoms: O_2  and  C_3
REMARK    3  A    between atoms: C_9  and  C_10
REMARK    4  A    between atoms: C_9  and  C_11
REMARK    5  A    between atoms: N_14  and  C_15
REMARK    6  A    between atoms: C_15  and  C_16
REMARK    7  A    between atoms: C_16  and  C_17
REMARK    8  A    between atoms: C_20  and  S_23
REMARK    9  A    between atoms: S_23  and  N_26
REMARK   10  A    between atoms: N_29  and  C_30
REMARK                            x       y       z     vdW  Elec       q    Type
REMARK                         _______ _______ _______ _____ _____    ______ ____
ROOT
ATOM      1  C   UNL     1       9.415   0.569  23.192  0.00  0.00    -0.046 A 
ATOM      2  C   UNL     1       8.499   0.787  22.151  0.00  0.00    +0.005 A 
ATOM      3  C   UNL     1       7.770   1.977  22.081  0.00  0.00    +0.029 A 
ATOM      4  C   UNL     1       7.970   2.967  23.043  0.00  0.00    +0.109 A 
ATOM      5  C   UNL     1       8.910   2.796  24.055  0.00  0.00    +0.029 A 
ATOM      6  C   UNL     1       9.638   1.608  24.116  0.00  0.00    +0.005 A 
ENDROOT
BRANCH   4   7
ATOM      7  S   UNL     1       6.953   4.409  23.058  0.00  0.00    +0.076 S 
ATOM      8  O   UNL     1       7.530   5.358  22.118  0.00  0.00    -0.150 OA
ATOM      9  O   UNL     1       6.690   4.804  24.421  0.00  0.00    -0.150 OA
BRANCH   7  10
ATOM     10  N   UNL     1       5.545   3.912  22.342  0.00  0.00    -0.169 N 
ATOM     11  H   UNL     1       5.586   2.952  22.032  0.00  0.00    +0.178 HD
ATOM     12  C   UNL     1       4.369   4.633  22.302  0.00  0.00    +0.319 C 
ATOM     13  N   UNL     1       3.404   3.944  21.636  0.00  0.00    -0.295 N 
ATOM     14  H   UNL     1       3.728   3.168  21.083  0.00  0.00    +0.151 HD
ATOM     15  O   UNL     1       4.220   5.742  22.792  0.00  0.00    -0.251 OA
BRANCH  13  16
ATOM     16  C   UNL     1       2.108   4.517  21.291  0.00  0.00    +0.074 C 
ATOM     17  C   UNL     1       1.059   4.095  22.325  0.00  0.00    +0.022 C 
ATOM     18  C   UNL     1       0.785   2.590  22.294  0.00  0.00    +0.002 C 
ATOM     19  C   UNL     1       0.464   2.078  20.889  0.00  0.00    +0.000 C 
ATOM     20  C   UNL     1       1.447   2.564  19.825  0.00  0.00    +0.002 C 
ATOM     21  C   UNL     1       1.665   4.076  19.891  0.00  0.00    +0.022 C 
ENDBRANCH  13  16
ENDBRANCH   7  10
ENDBRANCH   4   7
BRANCH   1  22
ATOM     22  C   UNL     1      10.119  -0.773  23.304  0.00  0.00    +0.054 C 
BRANCH  22  23
ATOM     23  C   UNL     1       9.343  -1.873  22.578  0.00  0.00    +0.121 C 
BRANCH  23  30
ATOM     24  C   UNL     1       3.991  -3.900  24.697  0.00  0.00    +0.121 A 
ATOM     25  C   UNL     1       4.410  -3.976  26.023  0.00  0.00    +0.046 A 
ATOM     26  C   UNL     1       5.764  -3.852  26.354  0.00  0.00    +0.009 A 
ATOM     27  C   UNL     1       6.724  -3.618  25.359  0.00  0.00    -0.021 A 
ATOM     28  C   UNL     1       8.206  -3.468  25.684  0.00  0.00    +0.067 C 
ATOM     29  C   UNL     1       9.064  -3.453  24.408  0.00  0.00    +0.232 C 
ATOM     30  N   UNL     1       8.492  -2.724  23.381  0.00  0.00    -0.237 N 
ATOM     31  C   UNL     1       7.195  -2.962  22.983  0.00  0.00    +0.253 C 
ATOM     32  O   UNL     1       6.778  -2.754  21.848  0.00  0.00    -0.270 OA
ATOM     33  O   UNL     1      10.202  -3.912  24.348  0.00  0.00    -0.274 OA
ATOM     34  C   UNL     1       8.449  -2.097  26.352  0.00  0.00    +0.025 C 
ATOM     35  C   UNL     1       8.710  -4.584  26.617  0.00  0.00    +0.025 C 
ATOM     36  C   UNL     1       6.275  -3.461  24.037  0.00  0.00    +0.045 A 
ATOM     37  C   UNL     1       4.925  -3.627  23.704  0.00  0.00    +0.059 A 
BRANCH  24  39
ATOM     38  C   UNL     1       2.270  -5.122  23.639  0.00  0.00    +0.277 C 
ATOM     39  O   UNL     1       2.646  -4.040  24.488  0.00  0.00    -0.495 OA
ENDBRANCH  24  39
ENDBRANCH  23  30
ENDBRANCH  22  23
ENDBRANCH   1  22
TORSDOF 7
ENDMDL
MODEL 4
REMARK VINA RESULT:      -7.4      3.749      8.043
REMARK  Name = 
REMARK  10 active torsions:
REMARK  status: ('A' for Active; 'I' for Inactive)
REMARK    1  A    between atoms: C_1  and  O_2
REMARK    2  A    between atoms: O_2  and  C_3
REMARK    3  A    between atoms: C_9  and  C_10
REMARK    4  A    between atoms: C_9  and  C_11
REMARK    5  A    between atoms: N_14  and  C_15
REMARK    6  A    between atoms: C_15  and  C_16
REMARK    7  A    between atoms: C_16  and  C_17
REMARK    8  A    between atoms: C_20  and  S_23
REMARK    9  A    between atoms: S_23  and  N_26
REMARK   10  A    between atoms: N_29  and  C_30
REMARK                            x       y       z     vdW  Elec       q    Type
REMARK                         _______ _______ _______ _____ _____    ______ ____
ROOT
ATOM      1  C   UNL     1       9.459  -1.666  23.049  0.00  0.00    -0.046 A 
ATOM      2  C   UNL     1       8.318  -1.519  22.246  0.00  0.00    +0.005 A 
ATOM      3  C   UNL     1       7.328  -2.506  22.225  0.00  0.00    +0.029 A 
ATOM      4  C   UNL     1       7.467  -3.639  23.026  0.00  0.00    +0.109 A 
ATOM      5  C   UNL     1       8.565  -3.785  23.869  0.00  0.00    +0.029 A 
ATOM      6  C   UNL     1       9.545  -2.793  23.890  0.00  0.00    +0.005 A 
ENDROOT
BRANCH   4   7
ATOM      7  S   UNL     1       6.306  -4.963  22.901  0.00  0.00    +0.076 S 
ATOM      8  O   UNL     1       7.022  -6.121  22.388  0.00  0.00    -0.150 OA
ATOM      9  O   UNL     1       5.108  -4.499  22.246  0.00  0.00    -0.150 OA
BRANCH   7  10
ATOM     10  N   UNL     1       5.966  -5.344  24.477  0.00  0.00    -0.169 N 
ATOM     11  H   UNL     1       6.377  -6.221  24.761  0.00  0.00    +0.178 HD
ATOM     12  C   UNL     1       5.341  -4.514  25.384  0.00  0.00    +0.319 C 
ATOM     13  N   UNL     1       5.209  -5.130  26.590  0.00  0.00    -0.295 N 
ATOM     14  H   UNL     1       5.346  -6.126  26.584  0.00  0.00    +0.151 HD
ATOM     15  O   UNL     1       4.953  -3.382  25.135  0.00  0.00    -0.251 OA
BRANCH  13  16
ATOM     16  C   UNL     1       4.444  -4.564  27.695  0.00  0.00    +0.074 C 
ATOM     17  C   UNL     1       5.133  -4.887  29.025  0.00  0.00    +0.022 C 
ATOM     18  C   UNL     1       5.125  -6.385  29.335  0.00  0.00    +0.002 C 
ATOM     19  C   UNL     1       3.730  -7.001  29.233  0.00  0.00    +0.000 C 
ATOM     20  C   UNL     1       2.986  -6.616  27.955  0.00  0.00    +0.002 C 
ATOM     21  C   UNL     1       3.010  -5.108  27.708  0.00  0.00    +0.022 C 
ENDBRANCH  13  16
ENDBRANCH   7  10
ENDBRANCH   4   7
BRANCH   1  22
ATOM     22  C   UNL     1      10.568  -0.630  22.975  0.00  0.00    +0.054 C 
BRANCH  22  23
ATOM     23  C   UNL     1      10.571   0.273  24.210  0.00  0.00    +0.121 C 
BRANCH  23  30
ATOM     24  C   UNL     1       4.771   1.541  25.621  0.00  0.00    +0.121 A 
ATOM     25  C   UNL     1       4.571   2.399  24.541  0.00  0.00    +0.046 A 
ATOM     26  C   UNL     1       5.651   2.840  23.769  0.00  0.00    +0.009 A 
ATOM     27  C   UNL     1       6.955   2.402  24.046  0.00  0.00    -0.021 A 
ATOM     28  C   UNL     1       8.153   2.853  23.219  0.00  0.00    +0.067 C 
ATOM     29  C   UNL     1       9.478   2.421  23.866  0.00  0.00    +0.232 C 
ATOM     30  N   UNL     1       9.431   1.144  24.396  0.00  0.00    -0.237 N 
ATOM     31  C   UNL     1       8.427   0.778  25.266  0.00  0.00    +0.253 C 
ATOM     32  O   UNL     1       8.551  -0.089  26.126  0.00  0.00    -0.270 OA
ATOM     33  O   UNL     1      10.515   3.076  23.795  0.00  0.00    -0.274 OA
ATOM     34  C   UNL     1       8.123   2.147  21.845  0.00  0.00    +0.025 C 
ATOM     35  C   UNL     1       8.169   4.377  23.007  0.00  0.00    +0.025 C 
ATOM     36  C   UNL     1       7.127   1.472  25.086  0.00  0.00    +0.045 A 
ATOM     37  C   UNL     1       6.050   1.066  25.883  0.00  0.00    +0.059 A 
BRANCH  24  39
ATOM     38  C   UNL     1       3.775   0.012  27.119  0.00  0.00    +0.277 C 
ATOM     39  O   UNL     1       3.646   1.179  26.310  0.00  0.00    -0.495 OA
ENDBRANCH  24  39
ENDBRANCH  23  30
ENDBRANCH  22  23
ENDBRANCH   1  22
TORSDOF 7
ENDMDL
MODEL 5
REMARK VINA RESULT:      -7.3      4.130      6.969
REMARK  Name = 
REMARK  10 active torsions:
REMARK  status: ('A' for Active; 'I' for Inactive)
REMARK    1  A    between atoms: C_1  and  O_2
REMARK    2  A    between atoms: O_2  and  C_3
REMARK    3  A    between atoms: C_9  and  C_10
REMARK    4  A    between atoms: C_9  and  C_11
REMARK    5  A    between atoms: N_14  and  C_15
REMARK    6  A    between atoms: C_15  and  C_16
REMARK    7  A    between atoms: C_16  and  C_17
REMARK    8  A    between atoms: C_20  and  S_23
REMARK    9  A    between atoms: S_23  and  N_26
REMARK   10  A    between atoms: N_29  and  C_30
REMARK                            x       y       z     vdW  Elec       q    Type
REMARK                         _______ _______ _______ _____ _____    ______ ____
ROOT
ATOM      1  C   UNL     1       3.567  -4.211  27.163  0.00  0.00    -0.046 A 
ATOM      2  C   UNL     1       4.394  -3.803  28.221  0.00  0.00    +0.005 A 
ATOM      3  C   UNL     1       4.568  -2.446  28.509  0.00  0.00    +0.029 A 
ATOM      4  C   UNL     1       3.895  -1.488  27.749  0.00  0.00    +0.109 A 
ATOM      5  C   UNL     1       3.029  -1.869  26.728  0.00  0.00    +0.029 A 
ATOM      6  C   UNL     1       2.856  -3.225  26.451  0.00  0.00    +0.005 A 
ENDROOT
BRANCH   4   7
ATOM      7  S   UNL     1       4.217   0.229  27.998  0.00  0.00    +0.076 S 
ATOM      8  O   UNL     1       5.238   0.335  29.029  0.00  0.00    -0.150 OA
ATOM      9  O   UNL     1       2.970   0.943  28.133  0.00  0.00    -0.150 OA
BRANCH   7  10
ATOM     10  N   UNL     1       4.978   0.698  26.604  0.00  0.00    -0.169 N 
ATOM     11  H   UNL     1       4.504   1.458  26.140  0.00  0.00    +0.178 HD
ATOM     12  C   UNL     1       6.209   0.247  26.173  0.00  0.00    +0.319 C 
ATOM     13  N   UNL     1       6.548   0.825  24.990  0.00  0.00    -0.295 N 
ATOM     14  H   UNL     1       5.795   1.277  24.498  0.00  0.00    +0.151 HD
ATOM     15  O   UNL     1       6.897  -0.566  26.772  0.00  0.00    -0.251 OA
BRANCH  13  16
ATOM     16  C   UNL     1       7.713   0.424  24.210  0.00  0.00    +0.074 C 
ATOM     17  C   UNL     1       8.960   1.151  24.724  0.00  0.00    +0.022 C 
ATOM     18  C   UNL     1       8.892   2.661  24.485  0.00  0.00    +0.002 C 
ATOM     19  C   UNL     1       8.564   3.014  23.034  0.00  0.00    +0.000 C 
ATOM     20  C   UNL     1       7.379   2.230  22.470  0.00  0.00    +0.002 C 
ATOM     21  C   UNL     1       7.512   0.728  22.721  0.00  0.00    +0.022 C 
ENDBRANCH  13  16
ENDBRANCH   7  10
ENDBRANCH   4   7
BRANCH   1  22
ATOM     22  C   UNL     1       3.477  -5.685  26.806  0.00  0.00    +0.054 C 
BRANCH  22  23
ATOM     23  C   UNL     1       4.865  -6.317  26.686  0.00  0.00    +0.121 C 
BRANCH  23  30
ATOM     24  C   UNL     1       9.069  -3.005  23.753  0.00  0.00    +0.121 A 
ATOM     25  C   UNL     1       8.311  -2.853  22.593  0.00  0.00    +0.046 A 
ATOM     26  C   UNL     1       7.148  -3.604  22.395  0.00  0.00    +0.009 A 
ATOM     27  C   UNL     1       6.703  -4.506  23.373  0.00  0.00    -0.021 A 
ATOM     28  C   UNL     1       5.435  -5.333  23.194  0.00  0.00    +0.067 C 
ATOM     29  C   UNL     1       5.300  -6.400  24.293  0.00  0.00    +0.232 C 
ATOM     30  N   UNL     1       5.667  -5.938  25.544  0.00  0.00    -0.237 N 
ATOM     31  C   UNL     1       6.884  -5.321  25.739  0.00  0.00    +0.253 C 
ATOM     32  O   UNL     1       7.488  -5.325  26.806  0.00  0.00    -0.270 OA
ATOM     33  O   UNL     1       4.783  -7.500  24.112  0.00  0.00    -0.274 OA
ATOM     34  C   UNL     1       4.200  -4.421  23.361  0.00  0.00    +0.025 C 
ATOM     35  C   UNL     1       5.380  -6.018  21.817  0.00  0.00    +0.025 C 
ATOM     36  C   UNL     1       7.433  -4.587  24.571  0.00  0.00    +0.045 A 
ATOM     37  C   UNL     1       8.619  -3.864  24.749  0.00  0.00    +0.059 A 
BRANCH  24  39
ATOM     38  C   UNL     1      10.534  -1.518  22.651  0.00  0.00    +0.277 C 
ATOM     39  O   UNL     1      10.189  -2.225  23.840  0.00  0.00    -0.495 OA
ENDBRANCH  24  39
ENDBRANCH  23  30
ENDBRANCH  22  23
ENDBRANCH   1  22
TORSDOF 7
ENDMDL
MODEL 6
REMARK VINA RESULT:      -7.3      3.840      5.017
REMARK  Name = 
REMARK  10 active torsions:
REMARK  status: ('A' for Active; 'I' for Inactive)
REMARK    1  A    between atoms: C_1  and  O_2
REMARK    2  A    between atoms: O_2  and  C_3
REMARK    3  A    between atoms: C_9  and  C_10
REMARK    4  A    between atoms: C_9  and  C_11
REMARK    5  A    between atoms: N_14  and  C_15
REMARK    6  A    between atoms: C_15  and  C_16
REMARK    7  A    between atoms: C_16  and  C_17
REMARK    8  A    between atoms: C_20  and  S_23
REMARK    9  A    between atoms: S_23  and  N_26
REMARK   10  A    between atoms: N_29  and  C_30
REMARK                            x       y       z     vdW  Elec       q    Type
REMARK                         _______ _______ _______ _____ _____    ______ ____
ROOT
ATOM      1  C   UNL     1      10.168  -0.369  22.939  0.00  0.00    -0.046 A 
ATOM      2  C   UNL     1       9.811   0.488  21.886  0.00  0.00    +0.005 A 
ATOM      3  C   UNL     1       9.607   1.853  22.114  0.00  0.00    +0.029 A 
ATOM      4  C   UNL     1       9.782   2.371  23.397  0.00  0.00    +0.109 A 
ATOM      5  C   UNL     1      10.185   1.551  24.447  0.00  0.00    +0.029 A 
ATOM      6  C   UNL     1      10.392   0.192  24.211  0.00  0.00    +0.005 A 
ENDROOT
BRANCH   4   7
ATOM      7  S   UNL     1       9.384   4.056  23.736  0.00  0.00    +0.076 S 
ATOM      8  O   UNL     1       8.301   4.436  22.842  0.00  0.00    -0.150 OA
ATOM      9  O   UNL     1      10.594   4.840  23.786  0.00  0.00    -0.150 OA
BRANCH   7  10
ATOM     10  N   UNL     1       8.690   4.008  25.239  0.00  0.00    -0.169 N 
ATOM     11  H   UNL     1       9.241   4.487  25.936  0.00  0.00    +0.178 HD
ATOM     12  C   UNL     1       7.428   3.529  25.523  0.00  0.00    +0.319 C 
ATOM     13  N   UNL     1       7.162   3.628  26.853  0.00  0.00    -0.295 N 
ATOM     14  H   UNL     1       7.961   3.789  27.443  0.00  0.00    +0.151 HD
ATOM     15  O   UNL     1       6.657   3.072  24.691  0.00  0.00    -0.251 OA
BRANCH  13  16
ATOM     16  C   UNL     1       5.975   3.053  27.474  0.00  0.00    +0.074 C 
ATOM     17  C   UNL     1       5.870   3.519  28.930  0.00  0.00    +0.022 C 
ATOM     18  C   UNL     1       7.008   2.976  29.797  0.00  0.00    +0.002 C 
ATOM     19  C   UNL     1       7.168   1.460  29.678  0.00  0.00    +0.000 C 
ATOM     20  C   UNL     1       7.181   0.962  28.233  0.00  0.00    +0.002 C 
ATOM     21  C   UNL     1       6.012   1.521  27.422  0.00  0.00    +0.022 C 
ENDBRANCH  13  16
ENDBRANCH   7  10
ENDBRANCH   4   7
BRANCH   1  22
ATOM     22  C   UNL     1      10.282  -1.862  22.685  0.00  0.00    +0.054 C 
BRANCH  22  23
ATOM     23  C   UNL     1       8.903  -2.518  22.578  0.00  0.00    +0.121 C 
BRANCH  23  30
ATOM     24  C   UNL     1       6.993  -5.548  27.519  0.00  0.00    +0.121 A 
ATOM     25  C   UNL     1       5.659  -5.170  27.380  0.00  0.00    +0.046 A 
ATOM     26  C   UNL     1       5.288  -4.170  26.476  0.00  0.00    +0.009 A 
ATOM     27  C   UNL     1       6.250  -3.546  25.666  0.00  0.00    -0.021 A 
ATOM     28  C   UNL     1       5.881  -2.459  24.663  0.00  0.00    +0.067 C 
ATOM     29  C   UNL     1       7.133  -1.785  24.078  0.00  0.00    +0.232 C 
ATOM     30  N   UNL     1       8.151  -2.679  23.803  0.00  0.00    -0.237 N 
ATOM     31  C   UNL     1       8.590  -3.566  24.762  0.00  0.00    +0.253 C 
ATOM     32  O   UNL     1       9.729  -4.021  24.801  0.00  0.00    -0.270 OA
ATOM     33  O   UNL     1       7.177  -0.601  23.751  0.00  0.00    -0.274 OA
ATOM     34  C   UNL     1       5.164  -3.099  23.454  0.00  0.00    +0.025 C 
ATOM     35  C   UNL     1       4.971  -1.383  25.282  0.00  0.00    +0.025 C 
ATOM     36  C   UNL     1       7.578  -3.996  25.759  0.00  0.00    +0.045 A 
ATOM     37  C   UNL     1       7.951  -4.969  26.695  0.00  0.00    +0.059 A 
BRANCH  24  39
ATOM     38  C   UNL     1       6.259  -6.675  29.459  0.00  0.00    +0.277 C 
ATOM     39  O   UNL     1       7.242  -6.531  28.436  0.00  0.00    -0.495 OA
ENDBRANCH  24  39
ENDBRANCH  23  30
ENDBRANCH  22  23
ENDBRANCH   1  22
TORSDOF 7
ENDMDL
MODEL 7
REMARK VINA RESULT:      -7.2      3.919      8.806
REMARK  Name = 
REMARK  10 active torsions:
REMARK  status: ('A' for Active; 'I' for Inactive)
REMARK    1  A    between atoms: C_1  and  O_2
REMARK    2  A    between atoms: O_2  and  C_3
REMARK    3  A    between atoms: C_9  and  C_10
REMARK    4  A    between atoms: C_9  and  C_11
REMARK    5  A    between atoms: N_14  and  C_15
REMARK    6  A    between atoms: C_15  and  C_16
REMARK    7  A    between atoms: C_16  and  C_17
REMARK    8  A    between atoms: C_20  and  S_23
REMARK    9  A    between atoms: S_23  and  N_26
REMARK   10  A    between atoms: N_29  and  C_30
REMARK                            x       y       z     vdW  Elec       q    Type
REMARK                         _______ _______ _______ _____ _____    ______ ____
ROOT
ATOM      1  C   UNL     1       8.312  -3.263  23.373  0.00  0.00    -0.046 A 
ATOM      2  C   UNL     1       8.309  -4.456  24.111  0.00  0.00    +0.005 A 
ATOM      3  C   UNL     1       7.152  -5.235  24.204  0.00  0.00    +0.029 A 
ATOM      4  C   UNL     1       5.994  -4.832  23.538  0.00  0.00    +0.109 A 
ATOM      5  C   UNL     1       5.986  -3.679  22.758  0.00  0.00    +0.029 A 
ATOM      6  C   UNL     1       7.147  -2.911  22.665  0.00  0.00    +0.005 A 
ENDROOT
BRANCH   4   7
ATOM      7  S   UNL     1       4.485  -5.718  23.765  0.00  0.00    +0.076 S 
ATOM      8  O   UNL     1       4.819  -7.132  23.842  0.00  0.00    -0.150 OA
ATOM      9  O   UNL     1       3.501  -5.254  22.818  0.00  0.00    -0.150 OA
BRANCH   7  10
ATOM     10  N   UNL     1       4.013  -5.315  25.300  0.00  0.00    -0.169 N 
ATOM     11  H   UNL     1       3.229  -4.679  25.311  0.00  0.00    +0.178 HD
ATOM     12  C   UNL     1       4.493  -5.885  26.462  0.00  0.00    +0.319 C 
ATOM     13  N   UNL     1       3.903  -5.328  27.553  0.00  0.00    -0.295 N 
ATOM     14  H   UNL     1       3.419  -4.461  27.388  0.00  0.00    +0.151 HD
ATOM     15  O   UNL     1       5.339  -6.766  26.502  0.00  0.00    -0.251 OA
BRANCH  13  16
ATOM     16  C   UNL     1       4.325  -5.610  28.920  0.00  0.00    +0.074 C 
ATOM     17  C   UNL     1       3.484  -6.752  29.500  0.00  0.00    +0.022 C 
ATOM     18  C   UNL     1       2.014  -6.363  29.669  0.00  0.00    +0.002 C 
ATOM     19  C   UNL     1       1.835  -5.054  30.439  0.00  0.00    +0.000 C 
ATOM     20  C   UNL     1       2.734  -3.925  29.936  0.00  0.00    +0.002 C 
ATOM     21  C   UNL     1       4.192  -4.366  29.806  0.00  0.00    +0.022 C 
ENDBRANCH  13  16
ENDBRANCH   7  10
ENDBRANCH   4   7
BRANCH   1  22
ATOM     22  C   UNL     1       9.551  -2.383  23.372  0.00  0.00    +0.054 C 
BRANCH  22  23
ATOM     23  C   UNL     1       9.594  -1.478  24.605  0.00  0.00    +0.121 C 
BRANCH  23  30
ATOM     24  C   UNL     1       5.437   2.851  23.501  0.00  0.00    +0.121 A 
ATOM     25  C   UNL     1       6.261   3.594  22.657  0.00  0.00    +0.046 A 
ATOM     26  C   UNL     1       7.628   3.314  22.564  0.00  0.00    +0.009 A 
ATOM     27  C   UNL     1       8.193   2.258  23.296  0.00  0.00    -0.021 A 
ATOM     28  C   UNL     1       9.677   1.919  23.211  0.00  0.00    +0.067 C 
ATOM     29  C   UNL     1      10.079   0.884  24.275  0.00  0.00    +0.232 C 
ATOM     30  N   UNL     1       9.138  -0.115  24.441  0.00  0.00    -0.237 N 
ATOM     31  C   UNL     1       7.814   0.193  24.669  0.00  0.00    +0.253 C 
ATOM     32  O   UNL     1       7.040  -0.532  25.286  0.00  0.00    -0.270 OA
ATOM     33  O   UNL     1      11.181   0.860  24.817  0.00  0.00    -0.274 OA
ATOM     34  C   UNL     1       9.971   1.240  21.855  0.00  0.00    +0.025 C 
ATOM     35  C   UNL     1      10.566   3.166  23.359  0.00  0.00    +0.025 C 
ATOM     36  C   UNL     1       7.334   1.468  24.078  0.00  0.00    +0.045 A 
ATOM     37  C   UNL     1       5.974   1.777  24.200  0.00  0.00    +0.059 A 
BRANCH  24  39
ATOM     38  C   UNL     1       3.539   3.469  22.240  0.00  0.00    +0.277 C 
ATOM     39  O   UNL     1       4.118   3.215  23.518  0.00  0.00    -0.495 OA
ENDBRANCH  24  39
ENDBRANCH  23  30
ENDBRANCH  22  23
ENDBRANCH   1  22
TORSDOF 7
ENDMDL
MODEL 8
REMARK VINA RESULT:      -7.1      4.041      5.059
REMARK  Name = 
REMARK  10 active torsions:
REMARK  status: ('A' for Active; 'I' for Inactive)
REMARK    1  A    between atoms: C_1  and  O_2
REMARK    2  A    between atoms: O_2  and  C_3
REMARK    3  A    between atoms: C_9  and  C_10
REMARK    4  A    between atoms: C_9  and  C_11
REMARK    5  A    between atoms: N_14  and  C_15
REMARK    6  A    between atoms: C_15  and  C_16
REMARK    7  A    between atoms: C_16  and  C_17
REMARK    8  A    between atoms: C_20  and  S_23
REMARK    9  A    between atoms: S_23  and  N_26
REMARK   10  A    between atoms: N_29  and  C_30
REMARK                            x       y       z     vdW  Elec       q    Type
REMARK                         _______ _______ _______ _____ _____    ______ ____
ROOT
ATOM      1  C   UNL     1       9.849  -0.363  22.901  0.00  0.00    -0.046 A 
ATOM      2  C   UNL     1       9.569   0.539  21.863  0.00  0.00    +0.005 A 
ATOM      3  C   UNL     1       9.391   1.900  22.127  0.00  0.00    +0.029 A 
ATOM      4  C   UNL     1       9.514   2.370  23.435  0.00  0.00    +0.109 A 
ATOM      5  C   UNL     1       9.842   1.504  24.475  0.00  0.00    +0.029 A 
ATOM      6  C   UNL     1      10.024   0.148  24.202  0.00  0.00    +0.005 A 
ENDROOT
BRANCH   4   7
ATOM      7  S   UNL     1       9.146   4.054  23.812  0.00  0.00    +0.076 S 
ATOM      8  O   UNL     1       8.143   4.503  22.859  0.00  0.00    -0.150 OA
ATOM      9  O   UNL     1      10.373   4.794  23.980  0.00  0.00    -0.150 OA
BRANCH   7  10
ATOM     10  N   UNL     1       8.344   3.973  25.259  0.00  0.00    -0.169 N 
ATOM     11  H   UNL     1       8.361   3.046  25.659  0.00  0.00    +0.178 HD
ATOM     12  C   UNL     1       7.841   5.051  25.957  0.00  0.00    +0.319 C 
ATOM     13  N   UNL     1       7.237   4.643  27.105  0.00  0.00    -0.295 N 
ATOM     14  H   UNL     1       7.029   3.660  27.159  0.00  0.00    +0.151 HD
ATOM     15  O   UNL     1       7.923   6.214  25.589  0.00  0.00    -0.251 OA
BRANCH  13  16
ATOM     16  C   UNL     1       6.471   5.537  27.966  0.00  0.00    +0.074 C 
ATOM     17  C   UNL     1       7.111   5.596  29.357  0.00  0.00    +0.022 C 
ATOM     18  C   UNL     1       7.026   4.257  30.093  0.00  0.00    +0.002 C 
ATOM     19  C   UNL     1       5.605   3.692  30.124  0.00  0.00    +0.000 C 
ATOM     20  C   UNL     1       4.913   3.709  28.762  0.00  0.00    +0.002 C 
ATOM     21  C   UNL     1       5.014   5.076  28.084  0.00  0.00    +0.022 C 
ENDBRANCH  13  16
ENDBRANCH   7  10
ENDBRANCH   4   7
BRANCH   1  22
ATOM     22  C   UNL     1       9.935  -1.850  22.602  0.00  0.00    +0.054 C 
BRANCH  22  23
ATOM     23  C   UNL     1       8.552  -2.447  22.336  0.00  0.00    +0.121 C 
BRANCH  23  30
ATOM     24  C   UNL     1       4.636  -6.675  24.343  0.00  0.00    +0.121 A 
ATOM     25  C   UNL     1       4.890  -6.440  25.693  0.00  0.00    +0.046 A 
ATOM     26  C   UNL     1       5.970  -5.645  26.090  0.00  0.00    +0.009 A 
ATOM     27  C   UNL     1       6.804  -5.044  25.136  0.00  0.00    -0.021 A 
ATOM     28  C   UNL     1       7.984  -4.164  25.532  0.00  0.00    +0.067 C 
ATOM     29  C   UNL     1       8.865  -3.823  24.319  0.00  0.00    +0.232 C 
ATOM     30  N   UNL     1       8.132  -3.545  23.180  0.00  0.00    -0.237 N 
ATOM     31  C   UNL     1       7.163  -4.416  22.733  0.00  0.00    +0.253 C 
ATOM     32  O   UNL     1       6.828  -4.521  21.558  0.00  0.00    -0.270 OA
ATOM     33  O   UNL     1      10.082  -3.669  24.385  0.00  0.00    -0.274 OA
ATOM     34  C   UNL     1       7.461  -2.805  26.047  0.00  0.00    +0.025 C 
ATOM     35  C   UNL     1       8.855  -4.818  26.619  0.00  0.00    +0.025 C 
ATOM     36  C   UNL     1       6.486  -5.224  23.779  0.00  0.00    +0.045 A 
ATOM     37  C   UNL     1       5.428  -6.053  23.385  0.00  0.00    +0.059 A 
BRANCH  24  39
ATOM     38  C   UNL     1       2.838  -7.936  25.208  0.00  0.00    +0.277 C 
ATOM     39  O   UNL     1       3.558  -7.471  24.069  0.00  0.00    -0.495 OA
ENDBRANCH  24  39
ENDBRANCH  23  30
ENDBRANCH  22  23
ENDBRANCH   1  22
TORSDOF 7
ENDMDL
MODEL 9
REMARK VINA RESULT:      -7.1      3.554      7.964
REMARK  Name = 
REMARK  10 active torsions:
REMARK  status: ('A' for Active; 'I' for Inactive)
REMARK    1  A    between atoms: C_1  and  O_2
REMARK    2  A    between atoms: O_2  and  C_3
REMARK    3  A    between atoms: C_9  and  C_10
REMARK    4  A    between atoms: C_9  and  C_11
REMARK    5  A    between atoms: N_14  and  C_15
REMARK    6  A    between atoms: C_15  and  C_16
REMARK    7  A    between atoms: C_16  and  C_17
REMARK    8  A    between atoms: C_20  and  S_23
REMARK    9  A    between atoms: S_23  and  N_26
REMARK   10  A    between atoms: N_29  and  C_30
REMARK                            x       y       z     vdW  Elec       q    Type
REMARK                         _______ _______ _______ _____ _____    ______ ____
ROOT
ATOM      1  C   UNL     1       9.050  -0.433  22.313  0.00  0.00    -0.046 A 
ATOM      2  C   UNL     1      10.192  -1.152  22.701  0.00  0.00    +0.005 A 
ATOM      3  C   UNL     1      10.078  -2.308  23.479  0.00  0.00    +0.029 A 
ATOM      4  C   UNL     1       8.814  -2.764  23.854  0.00  0.00    +0.109 A 
ATOM      5  C   UNL     1       7.664  -2.098  23.438  0.00  0.00    +0.029 A 
ATOM      6  C   UNL     1       7.786  -0.949  22.658  0.00  0.00    +0.005 A 
ENDROOT
BRANCH   4   7
ATOM      7  S   UNL     1       8.656  -4.132  24.958  0.00  0.00    +0.076 S 
ATOM      8  O   UNL     1       8.803  -3.617  26.311  0.00  0.00    -0.150 OA
ATOM      9  O   UNL     1       9.480  -5.224  24.501  0.00  0.00    -0.150 OA
BRANCH   7  10
ATOM     10  N   UNL     1       7.058  -4.554  24.842  0.00  0.00    -0.169 N 
ATOM     11  H   UNL     1       6.617  -4.180  24.015  0.00  0.00    +0.178 HD
ATOM     12  C   UNL     1       6.406  -5.450  25.664  0.00  0.00    +0.319 C 
ATOM     13  N   UNL     1       5.099  -5.572  25.304  0.00  0.00    -0.295 N 
ATOM     14  H   UNL     1       4.750  -4.852  24.693  0.00  0.00    +0.151 HD
ATOM     15  O   UNL     1       6.930  -6.047  26.592  0.00  0.00    -0.251 OA
BRANCH  13  16
ATOM     16  C   UNL     1       4.122  -6.319  26.087  0.00  0.00    +0.074 C 
ATOM     17  C   UNL     1       3.542  -7.460  25.244  0.00  0.00    +0.022 C 
ATOM     18  C   UNL     1       2.714  -6.947  24.064  0.00  0.00    +0.002 C 
ATOM     19  C   UNL     1       1.653  -5.930  24.485  0.00  0.00    +0.000 C 
ATOM     20  C   UNL     1       2.191  -4.834  25.403  0.00  0.00    +0.002 C 
ATOM     21  C   UNL     1       2.991  -5.406  26.574  0.00  0.00    +0.022 C 
ENDBRANCH  13  16
ENDBRANCH   7  10
ENDBRANCH   4   7
BRANCH   1  22
ATOM     22  C   UNL     1       9.208   0.875  21.556  0.00  0.00    +0.054 C 
BRANCH  22  23
ATOM     23  C   UNL     1       9.602   2.018  22.493  0.00  0.00    +0.121 C 
BRANCH  23  30
ATOM     24  C   UNL     1       6.161   1.173  27.462  0.00  0.00    +0.121 A 
ATOM     25  C   UNL     1       5.017   1.748  26.912  0.00  0.00    +0.046 A 
ATOM     26  C   UNL     1       5.080   2.460  25.710  0.00  0.00    +0.009 A 
ATOM     27  C   UNL     1       6.294   2.586  25.017  0.00  0.00    -0.021 A 
ATOM     28  C   UNL     1       6.398   3.346  23.700  0.00  0.00    +0.067 C 
ATOM     29  C   UNL     1       7.862   3.532  23.272  0.00  0.00    +0.232 C 
ATOM     30  N   UNL     1       8.639   2.411  23.499  0.00  0.00    -0.237 N 
ATOM     31  C   UNL     1       8.662   1.807  24.738  0.00  0.00    +0.253 C 
ATOM     32  O   UNL     1       9.617   1.169  25.169  0.00  0.00    -0.270 OA
ATOM     33  O   UNL     1       8.272   4.515  22.658  0.00  0.00    -0.274 OA
ATOM     34  C   UNL     1       5.749   2.512  22.573  0.00  0.00    +0.025 C 
ATOM     35  C   UNL     1       5.714   4.723  23.770  0.00  0.00    +0.025 C 
ATOM     36  C   UNL     1       7.420   1.931  25.542  0.00  0.00    +0.045 A 
ATOM     37  C   UNL     1       7.362   1.254  26.767  0.00  0.00    +0.059 A 
BRANCH  24  39
ATOM     38  C   UNL     1       5.646   1.321  29.761  0.00  0.00    +0.277 C 
ATOM     39  O   UNL     1       5.984   0.505  28.642  0.00  0.00    -0.495 OA
ENDBRANCH  24  39
ENDBRANCH  23  30
ENDBRANCH  22  23
ENDBRANCH   1  22
TORSDOF 7
ENDMDL
