MODEL 1
REMARK VINA RESULT:      -4.2      0.000      0.000
REMARK  Name = 
REMARK  24 active torsions:
REMARK  status: ('A' for Active; 'I' for Inactive)
REMARK    1  A    between atoms: N_2  and  C_4
REMARK    2  A    between atoms: C_4  and  C_5
REMARK    3  A    between atoms: C_5  and  C_6
REMARK    4  A    between atoms: C_6  and  C_7
REMARK    5  A    between atoms: C_7  and  C_8
REMARK    6  A    between atoms: C_13  and  C_14
REMARK    7  A    between atoms: C_14  and  C_15
REMARK    8  A    between atoms: C_29  and  C_30
REMARK    9  A    between atoms: C_30  and  C_31
REMARK   10  A    between atoms: C_34  and  O_35
REMARK   11  A    between atoms: C_42  and  N_73
REMARK   12  A    between atoms: C_47  and  C_60
REMARK   13  A    between atoms: C_52  and  C_57
REMARK   14  A    between atoms: C_57  and  C_58
REMARK   15  A    between atoms: C_57  and  C_59
REMARK   16  A    between atoms: N_62  and  C_64
REMARK   17  A    between atoms: C_64  and  C_65
REMARK   18  A    between atoms: C_64  and  C_68
REMARK   19  A    between atoms: C_65  and  C_66
REMARK   20  A    between atoms: C_65  and  O_67
REMARK   21  A    between atoms: C_75  and  C_77
REMARK   22  A    between atoms: C_77  and  C_78
REMARK   23  A    between atoms: C_77  and  N_89
REMARK   24  A    between atoms: C_78  and  C_79
REMARK                            x       y       z     vdW  Elec       q    Type
REMARK                         _______ _______ _______ _____ _____    ______ ____
ROOT
ATOM      1  C   UNL     1       7.808   3.705  26.010  0.00  0.00    +0.159 C 
ATOM      2  C   UNL     1       6.445   3.419  27.521  0.00  0.00    +0.234 C 
ATOM      3  O   UNL     1       7.017   3.304  28.625  0.00  0.00    -0.274 OA
ATOM      4  N   UNL     1       4.698   3.099  27.753  0.00  0.00    -0.302 N 
ATOM      5  H   UNL     1       4.402   3.897  27.176  0.00  0.00    +0.150 HD
ATOM      6  C   UNL     1       3.097   2.780  28.774  0.00  0.00    +0.161 C 
ATOM      7  C   UNL     1       1.570   2.474  28.120  0.00  0.00    +0.234 C 
ATOM      8  O   UNL     1       0.949   1.411  28.029  0.00  0.00    -0.274 OA
ATOM      9  N   UNL     1       0.746   3.445  27.701  0.00  0.00    -0.302 N 
ATOM     10  H   UNL     1       0.614   4.190  28.392  0.00  0.00    +0.150 HD
ATOM     11  C   UNL     1       1.189   3.843  26.420  0.00  0.00    +0.169 C 
ATOM     12  C   UNL     1       2.246   2.793  25.773  0.00  0.00    +0.112 C 
ATOM     13  S   UNL     1       2.305   0.673  25.835  0.00  0.00    -0.091 S 
ATOM     14  S   UNL     1       3.195  -0.104  27.678  0.00  0.00    -0.091 S 
ATOM     15  C   UNL     1       2.371  -1.711  28.428  0.00  0.00    +0.112 C 
ATOM     16  C   UNL     1       3.350  -2.641  29.229  0.00  0.00    +0.169 C 
ATOM     17  C   UNL     1       4.526  -2.942  28.319  0.00  0.00    +0.235 C 
ATOM     18  O   UNL     1       4.656  -4.053  27.784  0.00  0.00    -0.274 OA
ATOM     19  N   UNL     1       5.433  -1.908  28.086  0.00  0.00    -0.302 N 
ATOM     20  H   UNL     1       5.215  -0.979  28.460  0.00  0.00    +0.150 HD
ATOM     21  C   UNL     1       6.247  -1.952  26.884  0.00  0.00    +0.163 C 
ATOM     22  C   UNL     1       6.443  -0.468  26.496  0.00  0.00    +0.234 C 
ATOM     23  O   UNL     1       6.233   0.386  27.375  0.00  0.00    -0.274 OA
ATOM     24  N   UNL     1       6.742  -0.194  25.192  0.00  0.00    -0.302 N 
ATOM     25  H   UNL     1       7.493  -0.820  24.810  0.00  0.00    +0.150 HD
ATOM     26  C   UNL     1       6.944   1.220  24.875  0.00  0.00    +0.163 C 
ATOM     27  C   UNL     1       8.442   1.529  24.888  0.00  0.00    +0.234 C 
ATOM     28  O   UNL     1       9.307   0.853  24.293  0.00  0.00    -0.274 OA
ATOM     29  N   UNL     1       8.723   2.510  25.867  0.00  0.00    -0.302 N 
ATOM     30  H   UNL     1       9.718   2.665  25.924  0.00  0.00    +0.150 HD
ENDROOT
BRANCH  11  31
ATOM     31  C   UNL     1       1.651   5.256  26.929  0.00  0.00    +0.235 C 
ATOM     32  N   UNL     1       2.929   5.418  27.326  0.00  0.00    -0.300 N 
ATOM     33  H   UNL     1       3.635   4.741  27.060  0.00  0.00    +0.150 HD
ATOM     34  O   UNL     1       0.914   6.253  26.897  0.00  0.00    -0.274 OA
BRANCH  32  35
ATOM     35  C   UNL     1       3.379   6.737  27.803  0.00  0.00    +0.187 C 
BRANCH  35  36
ATOM     36  C   UNL     1       4.867   6.761  27.461  0.00  0.00    +0.233 C 
ATOM     37  N   UNL     1       5.209   6.701  26.146  0.00  0.00    -0.328 N 
ATOM     38  H   UNL     1       6.200   6.684  25.932  0.00  0.00    +0.145 HD
ATOM     39  H   UNL     1       4.562   6.472  25.403  0.00  0.00    +0.145 HD
ATOM     40  O   UNL     1       5.737   6.835  28.330  0.00  0.00    -0.274 OA
ENDBRANCH  35  36
BRANCH  35  41
ATOM     41  C   UNL     1       3.105   6.847  29.322  0.00  0.00    +0.141 C 
ATOM     42  C   UNL     1       1.962   5.987  29.822  0.00  0.00    +0.040 C 
BRANCH  41  43
ATOM     43  O   UNL     1       4.241   6.506  30.130  0.00  0.00    -0.390 OA
ATOM     44  H   UNL     1       4.967   6.190  29.548  0.00  0.00    +0.210 HD
ENDBRANCH  41  43
ENDBRANCH  35  41
ENDBRANCH  32  35
ENDBRANCH  11  31
BRANCH  16  45
ATOM     45  N   UNL     1       2.775  -3.973  29.540  0.00  0.00    -0.302 N 
ATOM     46  C   UNL     1       1.635  -4.486  28.974  0.00  0.00    +0.231 C 
ATOM     47  O   UNL     1       1.044  -3.883  28.077  0.00  0.00    -0.274 OA
ATOM     48  H   UNL     1       3.132  -4.394  30.393  0.00  0.00    +0.150 HD
BRANCH  46  49
ATOM     49  C   UNL     1       1.240  -5.944  29.397  0.00  0.00    +0.142 C 
BRANCH  49  50
ATOM     50  N   UNL     1       2.371  -6.606  30.091  0.00  0.00    -0.320 NA
ATOM     51  H   UNL     1       2.102  -7.533  30.411  0.00  0.00    +0.119 HD
ATOM     52  H   UNL     1       2.634  -6.049  30.906  0.00  0.00    +0.119 HD
ENDBRANCH  49  50
BRANCH  49  53
ATOM     53  C   UNL     1       0.659  -6.844  28.281  0.00  0.00    +0.063 C 
BRANCH  53  54
ATOM     54  C   UNL     1       1.250  -6.652  26.903  0.00  0.00    -0.045 A 
ATOM     55  C   UNL     1       0.443  -6.341  25.805  0.00  0.00    +0.004 A 
ATOM     56  C   UNL     1       1.015  -6.131  24.546  0.00  0.00    +0.009 A 
ATOM     57  C   UNL     1       2.407  -6.214  24.363  0.00  0.00    -0.018 A 
ATOM     58  C   UNL     1       3.221  -6.564  25.460  0.00  0.00    -0.018 A 
ATOM     59  C   UNL     1       4.611  -6.652  25.303  0.00  0.00    +0.008 A 
ATOM     60  C   UNL     1       5.204  -6.348  24.079  0.00  0.00    +0.001 A 
ATOM     61  C   UNL     1       4.408  -5.983  22.998  0.00  0.00    +0.001 A 
ATOM     62  C   UNL     1       3.017  -5.941  23.130  0.00  0.00    +0.008 A 
ATOM     63  C   UNL     1       2.630  -6.794  26.705  0.00  0.00    +0.012 A 
ENDBRANCH  53  54
ENDBRANCH  49  53
ENDBRANCH  46  49
ENDBRANCH  16  45
BRANCH   6  64
ATOM     64  C   UNL     1       2.137   2.005  30.266  0.00  0.00    +0.012 C 
ATOM     65  C   UNL     1       1.399   0.477  30.476  0.00  0.00    +0.009 C 
ATOM     66  C   UNL     1       0.572   2.713  30.474  0.00  0.00    +0.009 C 
ENDBRANCH   6  64
BRANCH   1  67
ATOM     67  C   UNL     1       8.848   4.653  24.632  0.00  0.00    +0.032 C 
BRANCH  67  68
ATOM     68  C   UNL     1       9.906   6.248  24.401  0.00  0.00    +0.003 C 
BRANCH  68  69
ATOM     69  C   UNL     1      11.718   6.468  24.065  0.00  0.00    +0.015 C 
BRANCH  69  70
ATOM     70  C   UNL     1      12.839   5.706  22.946  0.00  0.00    +0.077 C 
BRANCH  70  72
ATOM     71  H   UNL     1      14.871   5.392  23.247  0.00  0.00    +0.118 HD
ATOM     72  N   UNL     1      13.993   4.844  23.318  0.00  0.00    -0.330 NA
ATOM     73  H   UNL     1      13.984   4.629  24.319  0.00  0.00    +0.118 HD
ENDBRANCH  70  72
ENDBRANCH  69  70
ENDBRANCH  68  69
ENDBRANCH  67  68
ENDBRANCH   1  67
BRANCH  21  74
ATOM     74  C   UNL     1       7.545  -2.738  27.099  0.00  0.00    +0.067 C 
BRANCH  74  75
ATOM     75  C   UNL     1       7.904  -3.699  25.986  0.00  0.00    -0.045 A 
ATOM     76  C   UNL     1       8.030  -3.244  24.669  0.00  0.00    +0.007 A 
ATOM     77  C   UNL     1       8.343  -4.137  23.643  0.00  0.00    +0.045 A 
ATOM     78  C   UNL     1       8.558  -5.479  23.936  0.00  0.00    +0.117 A 
ATOM     79  C   UNL     1       8.459  -5.948  25.240  0.00  0.00    +0.045 A 
ATOM     80  C   UNL     1       8.127  -5.058  26.263  0.00  0.00    +0.007 A 
BRANCH  78  81
ATOM     81  O   UNL     1       8.873  -6.313  22.904  0.00  0.00    -0.507 OA
ATOM     82  H   UNL     1       8.318  -6.074  22.143  0.00  0.00    +0.292 HD
ENDBRANCH  78  81
ENDBRANCH  74  75
ENDBRANCH  21  74
BRANCH  26  83
ATOM     83  C   UNL     1       5.850   2.036  24.095  0.00  0.00    +0.069 C 
BRANCH  83  84
ATOM     84  C   UNL     1       6.217   3.239  23.250  0.00  0.00    -0.020 A 
ATOM     85  C   UNL     1       5.520   4.519  22.997  0.00  0.00    +0.003 A 
ATOM     86  C   UNL     1       6.260   5.195  22.047  0.00  0.00    +0.047 A 
ATOM     87  C   UNL     1       5.921   6.451  21.484  0.00  0.00    +0.026 A 
ATOM     88  C   UNL     1       4.806   7.105  21.992  0.00  0.00    +0.002 A 
ATOM     89  C   UNL     1       4.036   6.497  22.974  0.00  0.00    +0.001 A 
ATOM     90  N   UNL     1       7.376   4.411  21.732  0.00  0.00    -0.360 N 
ATOM     91  H   UNL     1       8.074   4.675  21.072  0.00  0.00    +0.165 HD
ATOM     92  C   UNL     1       4.356   5.202  23.462  0.00  0.00    +0.010 A 
ATOM     93  C   UNL     1       7.339   3.300  22.515  0.00  0.00    +0.087 A 
ENDBRANCH  83  84
ENDBRANCH  26  83
TORSDOF 21
ENDMDL
MODEL 2
REMARK VINA RESULT:      -3.9      2.408     11.555
REMARK  Name = 
REMARK  24 active torsions:
REMARK  status: ('A' for Active; 'I' for Inactive)
REMARK    1  A    between atoms: N_2  and  C_4
REMARK    2  A    between atoms: C_4  and  C_5
REMARK    3  A    between atoms: C_5  and  C_6
REMARK    4  A    between atoms: C_6  and  C_7
REMARK    5  A    between atoms: C_7  and  C_8
REMARK    6  A    between atoms: C_13  and  C_14
REMARK    7  A    between atoms: C_14  and  C_15
REMARK    8  A    between atoms: C_29  and  C_30
REMARK    9  A    between atoms: C_30  and  C_31
REMARK   10  A    between atoms: C_34  and  O_35
REMARK   11  A    between atoms: C_42  and  N_73
REMARK   12  A    between atoms: C_47  and  C_60
REMARK   13  A    between atoms: C_52  and  C_57
REMARK   14  A    between atoms: C_57  and  C_58
REMARK   15  A    between atoms: C_57  and  C_59
REMARK   16  A    between atoms: N_62  and  C_64
REMARK   17  A    between atoms: C_64  and  C_65
REMARK   18  A    between atoms: C_64  and  C_68
REMARK   19  A    between atoms: C_65  and  C_66
REMARK   20  A    between atoms: C_65  and  O_67
REMARK   21  A    between atoms: C_75  and  C_77
REMARK   22  A    between atoms: C_77  and  C_78
REMARK   23  A    between atoms: C_77  and  N_89
REMARK   24  A    between atoms: C_78  and  C_79
REMARK                            x       y       z     vdW  Elec       q    Type
REMARK                         _______ _______ _______ _____ _____    ______ ____
ROOT
ATOM      1  C   UNL     1       4.388  -3.748  28.283  0.00  0.00    +0.159 C 
ATOM      2  C   UNL     1       6.123  -3.314  27.270  0.00  0.00    +0.234 C 
ATOM      3  O   UNL     1       7.105  -3.314  28.041  0.00  0.00    -0.274 OA
ATOM      4  N   UNL     1       6.669  -2.756  25.658  0.00  0.00    -0.302 N 
ATOM      5  H   UNL     1       6.154  -3.487  25.151  0.00  0.00    +0.150 HD
ATOM      6  C   UNL     1       7.966  -2.242  24.330  0.00  0.00    +0.161 C 
ATOM      7  C   UNL     1       7.602  -1.703  22.772  0.00  0.00    +0.234 C 
ATOM      8  O   UNL     1       7.628  -0.560  22.306  0.00  0.00    -0.274 OA
ATOM      9  N   UNL     1       7.337  -2.534  21.754  0.00  0.00    -0.302 N 
ATOM     10  H   UNL     1       8.038  -3.273  21.641  0.00  0.00    +0.150 HD
ATOM     11  C   UNL     1       5.995  -2.953  21.896  0.00  0.00    +0.169 C 
ATOM     12  C   UNL     1       5.170  -2.046  22.961  0.00  0.00    +0.112 C 
ATOM     13  S   UNL     1       5.226   0.040  23.338  0.00  0.00    -0.091 S 
ATOM     14  S   UNL     1       6.878   0.629  24.647  0.00  0.00    -0.091 S 
ATOM     15  C   UNL     1       7.770   2.315  24.214  0.00  0.00    +0.112 C 
ATOM     16  C   UNL     1       8.382   3.072  25.445  0.00  0.00    +0.169 C 
ATOM     17  C   UNL     1       7.274   3.229  26.470  0.00  0.00    +0.235 C 
ATOM     18  O   UNL     1       6.727   4.325  26.661  0.00  0.00    -0.274 OA
ATOM     19  N   UNL     1       6.877   2.084  27.161  0.00  0.00    -0.302 N 
ATOM     20  H   UNL     1       7.282   1.184  26.880  0.00  0.00    +0.150 HD
ATOM     21  C   UNL     1       5.547   2.046  27.743  0.00  0.00    +0.163 C 
ATOM     22  C   UNL     1       5.126   0.561  27.648  0.00  0.00    +0.234 C 
ATOM     23  O   UNL     1       6.027  -0.279  27.477  0.00  0.00    -0.274 OA
ATOM     24  N   UNL     1       3.788   0.286  27.666  0.00  0.00    -0.302 N 
ATOM     25  H   UNL     1       3.278   0.809  28.418  0.00  0.00    +0.150 HD
ATOM     26  C   UNL     1       3.436  -1.133  27.599  0.00  0.00    +0.163 C 
ATOM     27  C   UNL     1       3.176  -1.653  29.015  0.00  0.00    +0.234 C 
ATOM     28  O   UNL     1       2.435  -1.089  29.847  0.00  0.00    -0.274 OA
ATOM     29  N   UNL     1       4.085  -2.692  29.321  0.00  0.00    -0.302 N 
ATOM     30  H   UNL     1       3.960  -2.988  30.277  0.00  0.00    +0.150 HD
ENDROOT
BRANCH  11  31
ATOM     31  C   UNL     1       6.408  -4.433  22.233  0.00  0.00    +0.235 C 
ATOM     32  N   UNL     1       6.241  -4.883  23.491  0.00  0.00    -0.300 N 
ATOM     33  H   UNL     1       5.632  -4.390  24.133  0.00  0.00    +0.150 HD
ATOM     34  O   UNL     1       6.797  -5.232  21.367  0.00  0.00    -0.274 OA
BRANCH  32  35
ATOM     35  C   UNL     1       6.621  -6.268  23.822  0.00  0.00    +0.187 C 
BRANCH  35  36
ATOM     36  C   UNL     1       5.380  -6.833  24.510  0.00  0.00    +0.233 C 
ATOM     37  N   UNL     1       5.209  -6.549  25.829  0.00  0.00    -0.328 N 
ATOM     38  H   UNL     1       4.400  -6.956  26.283  0.00  0.00    +0.145 HD
ATOM     39  H   UNL     1       5.924  -6.140  26.417  0.00  0.00    +0.145 HD
ATOM     40  O   UNL     1       4.554  -7.519  23.907  0.00  0.00    -0.274 OA
ENDBRANCH  35  36
BRANCH  35  41
ATOM     41  C   UNL     1       7.866  -6.247  24.741  0.00  0.00    +0.141 C 
ATOM     42  C   UNL     1       8.976  -5.324  24.279  0.00  0.00    +0.040 C 
BRANCH  41  43
ATOM     43  O   UNL     1       7.568  -5.865  26.092  0.00  0.00    -0.390 OA
ATOM     44  H   UNL     1       8.408  -5.733  26.583  0.00  0.00    +0.210 HD
ENDBRANCH  41  43
ENDBRANCH  35  41
ENDBRANCH  32  35
ENDBRANCH  11  31
BRANCH  16  45
ATOM     45  N   UNL     1       8.796   4.463  25.135  0.00  0.00    -0.302 N 
ATOM     46  C   UNL     1       9.875   4.806  24.360  0.00  0.00    +0.231 C 
ATOM     47  O   UNL     1      10.541   3.945  23.783  0.00  0.00    -0.274 OA
ATOM     48  H   UNL     1       8.384   5.167  25.742  0.00  0.00    +0.150 HD
BRANCH  46  49
ATOM     49  C   UNL     1      10.095   6.338  24.105  0.00  0.00    +0.142 C 
BRANCH  49  50
ATOM     50  N   UNL     1      10.590   7.001  25.336  0.00  0.00    -0.320 NA
ATOM     51  H   UNL     1      10.992   6.318  25.973  0.00  0.00    +0.119 HD
ATOM     52  H   UNL     1       9.805   7.455  25.808  0.00  0.00    +0.119 HD
ENDBRANCH  49  50
BRANCH  49  53
ATOM     53  C   UNL     1       8.899   7.106  23.494  0.00  0.00    +0.063 C 
BRANCH  53  54
ATOM     54  C   UNL     1       7.640   6.300  23.273  0.00  0.00    -0.045 A 
ATOM     55  C   UNL     1       7.544   5.376  22.228  0.00  0.00    +0.004 A 
ATOM     56  C   UNL     1       6.383   4.613  22.064  0.00  0.00    +0.009 A 
ATOM     57  C   UNL     1       5.300   4.751  22.949  0.00  0.00    -0.018 A 
ATOM     58  C   UNL     1       5.377   5.707  23.981  0.00  0.00    -0.018 A 
ATOM     59  C   UNL     1       4.310   5.862  24.878  0.00  0.00    +0.008 A 
ATOM     60  C   UNL     1       3.188   5.041  24.788  0.00  0.00    +0.001 A 
ATOM     61  C   UNL     1       3.114   4.081  23.783  0.00  0.00    +0.001 A 
ATOM     62  C   UNL     1       4.150   3.952  22.854  0.00  0.00    +0.008 A 
ATOM     63  C   UNL     1       6.535   6.477  24.116  0.00  0.00    +0.012 A 
ENDBRANCH  53  54
ENDBRANCH  49  53
ENDBRANCH  46  49
ENDBRANCH  16  45
BRANCH   6  64
ATOM     64  C   UNL     1       9.610  -1.382  23.776  0.00  0.00    +0.012 C 
ATOM     65  C   UNL     1      11.151  -2.015  23.391  0.00  0.00    +0.009 C 
ATOM     66  C   UNL     1      10.364  -0.518  25.072  0.00  0.00    +0.009 C 
ENDBRANCH   6  64
BRANCH   1  67
ATOM     67  C   UNL     1       2.842  -4.793  28.910  0.00  0.00    +0.032 C 
BRANCH  67  68
ATOM     68  C   UNL     1       2.417  -6.267  30.079  0.00  0.00    +0.003 C 
BRANCH  68  69
ATOM     69  C   UNL     1       1.144  -7.609  29.932  0.00  0.00    +0.015 C 
BRANCH  69  70
ATOM     70  C   UNL     1       0.808  -8.825  28.708  0.00  0.00    +0.077 C 
BRANCH  70  72
ATOM     71  H   UNL     1       0.232 -10.721  29.332  0.00  0.00    +0.118 HD
ATOM     72  N   UNL     1       1.039 -10.289  28.845  0.00  0.00    -0.330 NA
ATOM     73  H   UNL     1       0.984 -10.756  27.935  0.00  0.00    +0.118 HD
ENDBRANCH  70  72
ENDBRANCH  69  70
ENDBRANCH  68  69
ENDBRANCH  67  68
ENDBRANCH   1  67
BRANCH  21  74
ATOM     74  C   UNL     1       5.525   2.633  29.158  0.00  0.00    +0.067 C 
BRANCH  74  75
ATOM     75  C   UNL     1       4.373   3.572  29.444  0.00  0.00    -0.045 A 
ATOM     76  C   UNL     1       3.157   3.077  29.929  0.00  0.00    +0.007 A 
ATOM     77  C   UNL     1       2.092   3.945  30.174  0.00  0.00    +0.045 A 
ATOM     78  C   UNL     1       2.249   5.310  29.962  0.00  0.00    +0.117 A 
ATOM     79  C   UNL     1       3.454   5.826  29.501  0.00  0.00    +0.045 A 
ATOM     80  C   UNL     1       4.514   4.955  29.239  0.00  0.00    +0.007 A 
BRANCH  78  81
ATOM     81  O   UNL     1       1.185   6.122  30.225  0.00  0.00    -0.507 OA
ATOM     82  H   UNL     1       0.826   6.432  29.378  0.00  0.00    +0.292 HD
ENDBRANCH  78  81
ENDBRANCH  74  75
ENDBRANCH  21  74
BRANCH  26  83
ATOM     83  C   UNL     1       2.866  -1.761  26.276  0.00  0.00    +0.069 C 
BRANCH  83  84
ATOM     84  C   UNL     1       2.036  -3.029  26.300  0.00  0.00    -0.020 A 
ATOM     85  C   UNL     1       1.915  -4.149  25.342  0.00  0.00    +0.003 A 
ATOM     86  C   UNL     1       0.917  -4.977  25.820  0.00  0.00    +0.047 A 
ATOM     87  C   UNL     1       0.448  -6.150  25.179  0.00  0.00    +0.026 A 
ATOM     88  C   UNL     1       1.104  -6.561  24.025  0.00  0.00    +0.002 A 
ATOM     89  C   UNL     1       2.140  -5.794  23.510  0.00  0.00    +0.001 A 
ATOM     90  N   UNL     1       0.447  -4.435  27.021  0.00  0.00    -0.360 N 
ATOM     91  H   UNL     1      -0.275  -4.844  27.572  0.00  0.00    +0.165 HD
ATOM     92  C   UNL     1       2.536  -4.580  24.130  0.00  0.00    +0.010 A 
ATOM     93  C   UNL     1       1.183  -3.325  27.294  0.00  0.00    +0.087 A 
ENDBRANCH  83  84
ENDBRANCH  26  83
TORSDOF 21
ENDMDL
MODEL 3
REMARK VINA RESULT:      -3.7      2.153      3.004
REMARK  Name = 
REMARK  24 active torsions:
REMARK  status: ('A' for Active; 'I' for Inactive)
REMARK    1  A    between atoms: N_2  and  C_4
REMARK    2  A    between atoms: C_4  and  C_5
REMARK    3  A    between atoms: C_5  and  C_6
REMARK    4  A    between atoms: C_6  and  C_7
REMARK    5  A    between atoms: C_7  and  C_8
REMARK    6  A    between atoms: C_13  and  C_14
REMARK    7  A    between atoms: C_14  and  C_15
REMARK    8  A    between atoms: C_29  and  C_30
REMARK    9  A    between atoms: C_30  and  C_31
REMARK   10  A    between atoms: C_34  and  O_35
REMARK   11  A    between atoms: C_42  and  N_73
REMARK   12  A    between atoms: C_47  and  C_60
REMARK   13  A    between atoms: C_52  and  C_57
REMARK   14  A    between atoms: C_57  and  C_58
REMARK   15  A    between atoms: C_57  and  C_59
REMARK   16  A    between atoms: N_62  and  C_64
REMARK   17  A    between atoms: C_64  and  C_65
REMARK   18  A    between atoms: C_64  and  C_68
REMARK   19  A    between atoms: C_65  and  C_66
REMARK   20  A    between atoms: C_65  and  O_67
REMARK   21  A    between atoms: C_75  and  C_77
REMARK   22  A    between atoms: C_77  and  C_78
REMARK   23  A    between atoms: C_77  and  N_89
REMARK   24  A    between atoms: C_78  and  C_79
REMARK                            x       y       z     vdW  Elec       q    Type
REMARK                         _______ _______ _______ _____ _____    ______ ____
ROOT
ATOM      1  C   UNL     1       8.059   3.889  25.049  0.00  0.00    +0.159 C 
ATOM      2  C   UNL     1       7.315   3.067  26.779  0.00  0.00    +0.234 C 
ATOM      3  O   UNL     1       8.189   2.399  27.371  0.00  0.00    -0.274 OA
ATOM      4  N   UNL     1       5.757   2.847  27.636  0.00  0.00    -0.302 N 
ATOM      5  H   UNL     1       5.516   3.845  27.603  0.00  0.00    +0.150 HD
ATOM      6  C   UNL     1       4.615   2.246  29.065  0.00  0.00    +0.161 C 
ATOM      7  C   UNL     1       2.937   2.426  29.111  0.00  0.00    +0.234 C 
ATOM      8  O   UNL     1       2.048   1.592  28.917  0.00  0.00    -0.274 OA
ATOM      9  N   UNL     1       2.334   3.555  29.510  0.00  0.00    -0.302 N 
ATOM     10  H   UNL     1       2.681   3.904  30.409  0.00  0.00    +0.150 HD
ATOM     11  C   UNL     1       2.377   4.457  28.423  0.00  0.00    +0.169 C 
ATOM     12  C   UNL     1       2.779   3.731  27.027  0.00  0.00    +0.112 C 
ATOM     13  S   UNL     1       2.245   1.830  26.253  0.00  0.00    -0.091 S 
ATOM     14  S   UNL     1       3.477   0.205  27.048  0.00  0.00    -0.091 S 
ATOM     15  C   UNL     1       2.556  -1.479  27.421  0.00  0.00    +0.112 C 
ATOM     16  C   UNL     1       3.446  -2.764  27.278  0.00  0.00    +0.169 C 
ATOM     17  C   UNL     1       4.074  -2.720  25.896  0.00  0.00    +0.235 C 
ATOM     18  O   UNL     1       3.676  -3.462  24.987  0.00  0.00    -0.274 OA
ATOM     19  N   UNL     1       5.091  -1.789  25.688  0.00  0.00    -0.302 N 
ATOM     20  H   UNL     1       5.300  -1.123  26.439  0.00  0.00    +0.150 HD
ATOM     21  C   UNL     1       5.366  -1.348  24.331  0.00  0.00    +0.163 C 
ATOM     22  C   UNL     1       5.826   0.120  24.488  0.00  0.00    +0.234 C 
ATOM     23  O   UNL     1       6.202   0.485  25.615  0.00  0.00    -0.274 OA
ATOM     24  N   UNL     1       5.698   0.938  23.400  0.00  0.00    -0.302 N 
ATOM     25  H   UNL     1       6.046   0.491  22.517  0.00  0.00    +0.150 HD
ATOM     26  C   UNL     1       6.168   2.310  23.586  0.00  0.00    +0.163 C 
ATOM     27  C   UNL     1       7.591   2.432  23.036  0.00  0.00    +0.234 C 
ATOM     28  O   UNL     1       7.948   2.030  21.910  0.00  0.00    -0.274 OA
ATOM     29  N   UNL     1       8.476   2.815  24.070  0.00  0.00    -0.302 N 
ATOM     30  H   UNL     1       9.423   2.829  23.725  0.00  0.00    +0.150 HD
ENDROOT
BRANCH  11  31
ATOM     31  C   UNL     1       3.378   5.422  29.158  0.00  0.00    +0.235 C 
ATOM     32  N   UNL     1       4.634   5.537  28.686  0.00  0.00    -0.300 N 
ATOM     33  H   UNL     1       4.856   5.230  27.746  0.00  0.00    +0.150 HD
ATOM     34  O   UNL     1       3.034   6.150  30.102  0.00  0.00    -0.274 OA
BRANCH  32  35
ATOM     35  C   UNL     1       5.584   6.438  29.361  0.00  0.00    +0.187 C 
BRANCH  35  36
ATOM     36  C   UNL     1       6.521   6.888  28.243  0.00  0.00    +0.233 C 
ATOM     37  N   UNL     1       7.836   7.042  28.550  0.00  0.00    -0.328 N 
ATOM     38  H   UNL     1       8.443   7.373  27.809  0.00  0.00    +0.145 HD
ATOM     39  H   UNL     1       8.200   7.046  29.494  0.00  0.00    +0.145 HD
ATOM     40  O   UNL     1       6.117   7.104  27.099  0.00  0.00    -0.274 OA
ENDBRANCH  35  36
BRANCH  35  41
ATOM     41  C   UNL     1       6.310   5.660  30.485  0.00  0.00    +0.141 C 
ATOM     42  C   UNL     1       6.087   4.162  30.461  0.00  0.00    +0.040 C 
BRANCH  41  43
ATOM     43  O   UNL     1       7.733   5.851  30.478  0.00  0.00    -0.390 OA
ATOM     44  H   UNL     1       8.161   5.098  30.940  0.00  0.00    +0.210 HD
ENDBRANCH  41  43
ENDBRANCH  35  41
ENDBRANCH  32  35
ENDBRANCH  11  31
BRANCH  16  45
ATOM     45  N   UNL     1       2.666  -4.026  27.287  0.00  0.00    -0.302 N 
ATOM     46  C   UNL     1       1.643  -4.321  26.422  0.00  0.00    +0.231 C 
ATOM     47  O   UNL     1       1.354  -3.561  25.496  0.00  0.00    -0.274 OA
ATOM     48  H   UNL     1       2.759  -4.569  28.141  0.00  0.00    +0.150 HD
BRANCH  46  49
ATOM     49  C   UNL     1       0.994  -5.742  26.565  0.00  0.00    +0.142 C 
BRANCH  49  50
ATOM     50  N   UNL     1       0.444  -5.924  27.930  0.00  0.00    -0.320 NA
ATOM     51  H   UNL     1       1.012  -5.431  28.614  0.00  0.00    +0.119 HD
ATOM     52  H   UNL     1       0.454  -6.919  28.163  0.00  0.00    +0.119 HD
ENDBRANCH  49  50
BRANCH  49  53
ATOM     53  C   UNL     1       1.880  -6.941  26.151  0.00  0.00    +0.063 C 
BRANCH  53  54
ATOM     54  C   UNL     1       3.283  -6.601  25.703  0.00  0.00    -0.045 A 
ATOM     55  C   UNL     1       3.609  -6.503  24.347  0.00  0.00    +0.004 A 
ATOM     56  C   UNL     1       4.904  -6.151  23.956  0.00  0.00    +0.009 A 
ATOM     57  C   UNL     1       5.897  -5.876  24.912  0.00  0.00    -0.018 A 
ATOM     58  C   UNL     1       5.584  -6.010  26.280  0.00  0.00    -0.018 A 
ATOM     59  C   UNL     1       6.557  -5.740  27.253  0.00  0.00    +0.008 A 
ATOM     60  C   UNL     1       7.822  -5.292  26.881  0.00  0.00    +0.001 A 
ATOM     61  C   UNL     1       8.132  -5.139  25.533  0.00  0.00    +0.001 A 
ATOM     62  C   UNL     1       7.186  -5.453  24.553  0.00  0.00    +0.008 A 
ATOM     63  C   UNL     1       4.291  -6.385  26.653  0.00  0.00    +0.012 A 
ENDBRANCH  53  54
ENDBRANCH  49  53
ENDBRANCH  46  49
ENDBRANCH  16  45
BRANCH   6  64
ATOM     64  C   UNL     1       4.081   0.964  30.414  0.00  0.00    +0.012 C 
ATOM     65  C   UNL     1       4.213  -0.739  30.482  0.00  0.00    +0.009 C 
ATOM     66  C   UNL     1       2.364   0.766  30.483  0.00  0.00    +0.009 C 
ENDBRANCH   6  64
BRANCH   1  67
ATOM     67  C   UNL     1       8.756   5.263  23.822  0.00  0.00    +0.032 C 
BRANCH  67  68
ATOM     68  C   UNL     1      10.327   6.343  23.535  0.00  0.00    +0.003 C 
BRANCH  68  69
ATOM     69  C   UNL     1      12.130   5.901  23.561  0.00  0.00    +0.015 C 
BRANCH  69  70
ATOM     70  C   UNL     1      13.326   5.637  22.301  0.00  0.00    +0.077 C 
BRANCH  70  72
ATOM     71  H   UNL     1      15.036   6.817  22.271  0.00  0.00    +0.118 HD
ATOM     72  N   UNL     1      14.191   6.679  21.685  0.00  0.00    -0.330 NA
ATOM     73  H   UNL     1      14.615   6.339  20.817  0.00  0.00    +0.118 HD
ENDBRANCH  70  72
ENDBRANCH  69  70
ENDBRANCH  68  69
ENDBRANCH  67  68
ENDBRANCH   1  67
BRANCH  21  74
ATOM     74  C   UNL     1       6.368  -2.265  23.623  0.00  0.00    +0.067 C 
BRANCH  74  75
ATOM     75  C   UNL     1       7.790  -1.751  23.583  0.00  0.00    -0.045 A 
ATOM     76  C   UNL     1       8.468  -1.444  24.768  0.00  0.00    +0.007 A 
ATOM     77  C   UNL     1       9.773  -0.952  24.725  0.00  0.00    +0.045 A 
ATOM     78  C   UNL     1      10.413  -0.795  23.501  0.00  0.00    +0.117 A 
ATOM     79  C   UNL     1       9.767  -1.114  22.313  0.00  0.00    +0.045 A 
ATOM     80  C   UNL     1       8.455  -1.587  22.355  0.00  0.00    +0.007 A 
BRANCH  78  81
ATOM     81  O   UNL     1      11.693  -0.322  23.508  0.00  0.00    -0.507 OA
ATOM     82  H   UNL     1      12.079  -0.484  22.632  0.00  0.00    +0.292 HD
ENDBRANCH  78  81
ENDBRANCH  74  75
ENDBRANCH  21  74
BRANCH  26  83
ATOM     83  C   UNL     1       5.150   3.496  23.756  0.00  0.00    +0.069 C 
BRANCH  83  84
ATOM     84  C   UNL     1       3.984   3.676  22.805  0.00  0.00    -0.020 A 
ATOM     85  C   UNL     1       2.862   4.640  22.788  0.00  0.00    +0.003 A 
ATOM     86  C   UNL     1       2.028   4.262  21.754  0.00  0.00    +0.047 A 
ATOM     87  C   UNL     1       0.805   4.893  21.415  0.00  0.00    +0.026 A 
ATOM     88  C   UNL     1       0.458   6.042  22.113  0.00  0.00    +0.002 A 
ATOM     89  C   UNL     1       1.271   6.498  23.142  0.00  0.00    +0.001 A 
ATOM     90  N   UNL     1       2.593   3.144  21.131  0.00  0.00    -0.360 N 
ATOM     91  H   UNL     1       2.187   2.677  20.350  0.00  0.00    +0.165 HD
ATOM     92  C   UNL     1       2.450   5.799  23.512  0.00  0.00    +0.010 A 
ATOM     93  C   UNL     1       3.777   2.879  21.745  0.00  0.00    +0.087 A 
ENDBRANCH  83  84
ENDBRANCH  26  83
TORSDOF 21
ENDMDL
MODEL 4
REMARK VINA RESULT:      -1.9      1.764      2.194
REMARK  Name = 
REMARK  24 active torsions:
REMARK  status: ('A' for Active; 'I' for Inactive)
REMARK    1  A    between atoms: N_2  and  C_4
REMARK    2  A    between atoms: C_4  and  C_5
REMARK    3  A    between atoms: C_5  and  C_6
REMARK    4  A    between atoms: C_6  and  C_7
REMARK    5  A    between atoms: C_7  and  C_8
REMARK    6  A    between atoms: C_13  and  C_14
REMARK    7  A    between atoms: C_14  and  C_15
REMARK    8  A    between atoms: C_29  and  C_30
REMARK    9  A    between atoms: C_30  and  C_31
REMARK   10  A    between atoms: C_34  and  O_35
REMARK   11  A    between atoms: C_42  and  N_73
REMARK   12  A    between atoms: C_47  and  C_60
REMARK   13  A    between atoms: C_52  and  C_57
REMARK   14  A    between atoms: C_57  and  C_58
REMARK   15  A    between atoms: C_57  and  C_59
REMARK   16  A    between atoms: N_62  and  C_64
REMARK   17  A    between atoms: C_64  and  C_65
REMARK   18  A    between atoms: C_64  and  C_68
REMARK   19  A    between atoms: C_65  and  C_66
REMARK   20  A    between atoms: C_65  and  O_67
REMARK   21  A    between atoms: C_75  and  C_77
REMARK   22  A    between atoms: C_77  and  C_78
REMARK   23  A    between atoms: C_77  and  N_89
REMARK   24  A    between atoms: C_78  and  C_79
REMARK                            x       y       z     vdW  Elec       q    Type
REMARK                         _______ _______ _______ _____ _____    ______ ____
ROOT
ATOM      1  C   UNL     1       8.597   2.219  25.042  0.00  0.00    +0.159 C 
ATOM      2  C   UNL     1       7.500   2.020  26.768  0.00  0.00    +0.234 C 
ATOM      3  O   UNL     1       8.209   1.597  27.705  0.00  0.00    -0.274 OA
ATOM      4  N   UNL     1       5.800   2.086  27.330  0.00  0.00    -0.302 N 
ATOM      5  H   UNL     1       5.626   3.013  26.922  0.00  0.00    +0.150 HD
ATOM      6  C   UNL     1       4.380   1.990  28.627  0.00  0.00    +0.161 C 
ATOM      7  C   UNL     1       2.736   2.160  28.285  0.00  0.00    +0.234 C 
ATOM      8  O   UNL     1       1.852   1.301  28.210  0.00  0.00    -0.274 OA
ATOM      9  N   UNL     1       2.134   3.352  28.162  0.00  0.00    -0.302 N 
ATOM     10  H   UNL     1       2.327   3.985  28.944  0.00  0.00    +0.150 HD
ATOM     11  C   UNL     1       2.429   3.836  26.868  0.00  0.00    +0.169 C 
ATOM     12  C   UNL     1       3.041   2.686  25.898  0.00  0.00    +0.112 C 
ATOM     13  S   UNL     1       2.553   0.631  25.710  0.00  0.00    -0.091 S 
ATOM     14  S   UNL     1       3.522  -0.621  27.222  0.00  0.00    -0.091 S 
ATOM     15  C   UNL     1       2.454  -2.090  27.946  0.00  0.00    +0.112 C 
ATOM     16  C   UNL     1       3.282  -3.339  28.412  0.00  0.00    +0.169 C 
ATOM     17  C   UNL     1       4.156  -3.757  27.244  0.00  0.00    +0.235 C 
ATOM     18  O   UNL     1       3.892  -4.766  26.573  0.00  0.00    -0.274 OA
ATOM     19  N   UNL     1       5.245  -2.941  26.939  0.00  0.00    -0.302 N 
ATOM     20  H   UNL     1       5.349  -2.059  27.452  0.00  0.00    +0.150 HD
ATOM     21  C   UNL     1       5.791  -2.979  25.594  0.00  0.00    +0.163 C 
ATOM     22  C   UNL     1       6.297  -1.540  25.341  0.00  0.00    +0.234 C 
ATOM     23  O   UNL     1       6.478  -0.814  26.334  0.00  0.00    -0.274 OA
ATOM     24  N   UNL     1       6.419  -1.137  24.041  0.00  0.00    -0.302 N 
ATOM     25  H   UNL     1       6.899  -1.851  23.441  0.00  0.00    +0.150 HD
ATOM     26  C   UNL     1       6.924   0.223  23.848  0.00  0.00    +0.163 C 
ATOM     27  C   UNL     1       8.429   0.166  23.576  0.00  0.00    +0.234 C 
ATOM     28  O   UNL     1       8.965  -0.589  22.738  0.00  0.00    -0.274 OA
ATOM     29  N   UNL     1       9.126   0.883  24.575  0.00  0.00    -0.302 N 
ATOM     30  H   UNL     1      10.121   0.788  24.435  0.00  0.00    +0.150 HD
ENDROOT
BRANCH  11  31
ATOM     31  C   UNL     1       3.329   5.001  27.421  0.00  0.00    +0.235 C 
ATOM     32  N   UNL     1       4.652   4.788  27.560  0.00  0.00    -0.300 N 
ATOM     33  H   UNL     1       5.097   4.014  27.083  0.00  0.00    +0.150 HD
ATOM     34  O   UNL     1       2.887   6.137  27.649  0.00  0.00    -0.274 OA
BRANCH  32  35
ATOM     35  C   UNL     1       5.510   5.870  28.075  0.00  0.00    +0.187 C 
BRANCH  35  36
ATOM     36  C   UNL     1       6.659   5.934  27.072  0.00  0.00    +0.233 C 
ATOM     37  N   UNL     1       7.583   4.937  27.112  0.00  0.00    -0.328 N 
ATOM     38  H   UNL     1       8.360   5.008  26.465  0.00  0.00    +0.145 HD
ATOM     39  H   UNL     1       7.654   4.262  27.862  0.00  0.00    +0.145 HD
ATOM     40  O   UNL     1       6.758   6.845  26.248  0.00  0.00    -0.274 OA
ENDBRANCH  35  36
BRANCH  35  41
ATOM     41  C   UNL     1       5.974   5.513  29.507  0.00  0.00    +0.141 C 
ATOM     42  C   UNL     1       4.856   5.128  30.456  0.00  0.00    +0.040 C 
BRANCH  41  43
ATOM     43  O   UNL     1       6.916   4.430  29.543  0.00  0.00    -0.390 OA
ATOM     44  H   UNL     1       6.863   3.986  30.418  0.00  0.00    +0.210 HD
ENDBRANCH  41  43
ENDBRANCH  35  41
ENDBRANCH  32  35
ENDBRANCH  11  31
BRANCH  16  45
ATOM     45  N   UNL     1       2.443  -4.532  28.688  0.00  0.00    -0.302 N 
ATOM     46  C   UNL     1       1.125  -4.663  28.332  0.00  0.00    +0.231 C 
ATOM     47  O   UNL     1       0.559  -3.798  27.660  0.00  0.00    -0.274 OA
ATOM     48  H   UNL     1       2.827  -5.160  29.389  0.00  0.00    +0.150 HD
BRANCH  46  49
ATOM     49  C   UNL     1       0.443  -6.036  28.663  0.00  0.00    +0.142 C 
BRANCH  49  50
ATOM     50  N   UNL     1       0.663  -6.392  30.086  0.00  0.00    -0.320 NA
ATOM     51  H   UNL     1       1.144  -5.640  30.573  0.00  0.00    +0.119 HD
ATOM     52  H   UNL     1       1.247  -7.229  30.133  0.00  0.00    +0.119 HD
ENDBRANCH  49  50
BRANCH  49  53
ATOM     53  C   UNL     1       0.796  -7.216  27.727  0.00  0.00    +0.063 C 
BRANCH  53  54
ATOM     54  C   UNL     1       0.671  -6.943  26.245  0.00  0.00    -0.045 A 
ATOM     55  C   UNL     1       0.608  -5.637  25.751  0.00  0.00    +0.004 A 
ATOM     56  C   UNL     1       0.531  -5.407  24.373  0.00  0.00    +0.009 A 
ATOM     57  C   UNL     1       0.526  -6.478  23.463  0.00  0.00    -0.018 A 
ATOM     58  C   UNL     1       0.551  -7.797  23.958  0.00  0.00    -0.018 A 
ATOM     59  C   UNL     1       0.549  -8.882  23.069  0.00  0.00    +0.008 A 
ATOM     60  C   UNL     1       0.572  -8.666  21.693  0.00  0.00    +0.001 A 
ATOM     61  C   UNL     1       0.567  -7.367  21.197  0.00  0.00    +0.001 A 
ATOM     62  C   UNL     1       0.519  -6.278  22.073  0.00  0.00    +0.008 A 
ATOM     63  C   UNL     1       0.605  -8.009  25.338  0.00  0.00    +0.012 A 
ENDBRANCH  53  54
ENDBRANCH  49  53
ENDBRANCH  46  49
ENDBRANCH  16  45
BRANCH   6  64
ATOM     64  C   UNL     1       3.533   1.231  30.195  0.00  0.00    +0.012 C 
ATOM     65  C   UNL     1       2.845  -0.307  30.485  0.00  0.00    +0.009 C 
ATOM     66  C   UNL     1       1.969   1.911  30.485  0.00  0.00    +0.009 C 
ENDBRANCH   6  64
BRANCH   1  67
ATOM     67  C   UNL     1       9.586   3.106  23.588  0.00  0.00    +0.032 C 
BRANCH  67  68
ATOM     68  C   UNL     1      10.606   4.706  23.242  0.00  0.00    +0.003 C 
BRANCH  68  69
ATOM     69  C   UNL     1      11.666   5.739  24.362  0.00  0.00    +0.015 C 
BRANCH  69  70
ATOM     70  C   UNL     1      11.313   6.794  25.723  0.00  0.00    +0.077 C 
BRANCH  70  72
ATOM     71  H   UNL     1      12.715   7.883  26.803  0.00  0.00    +0.118 HD
ATOM     72  N   UNL     1      12.180   7.001  26.915  0.00  0.00    -0.330 NA
ATOM     73  H   UNL     1      11.620   7.222  27.742  0.00  0.00    +0.118 HD
ENDBRANCH  70  72
ENDBRANCH  69  70
ENDBRANCH  68  69
ENDBRANCH  67  68
ENDBRANCH   1  67
BRANCH  21  74
ATOM     74  C   UNL     1       6.854  -4.072  25.438  0.00  0.00    +0.067 C 
BRANCH  74  75
ATOM     75  C   UNL     1       6.897  -4.736  24.079  0.00  0.00    -0.045 A 
ATOM     76  C   UNL     1       5.711  -5.034  23.398  0.00  0.00    +0.007 A 
ATOM     77  C   UNL     1       5.756  -5.663  22.153  0.00  0.00    +0.045 A 
ATOM     78  C   UNL     1       6.982  -5.969  21.575  0.00  0.00    +0.117 A 
ATOM     79  C   UNL     1       8.172  -5.663  22.224  0.00  0.00    +0.045 A 
ATOM     80  C   UNL     1       8.127  -5.051  23.478  0.00  0.00    +0.007 A 
BRANCH  78  81
ATOM     81  O   UNL     1       6.977  -6.574  20.352  0.00  0.00    -0.507 OA
ATOM     82  H   UNL     1       6.084  -6.492  19.979  0.00  0.00    +0.292 HD
ENDBRANCH  78  81
ENDBRANCH  74  75
ENDBRANCH  21  74
BRANCH  26  83
ATOM     83  C   UNL     1       5.961   1.387  23.415  0.00  0.00    +0.069 C 
BRANCH  83  84
ATOM     84  C   UNL     1       6.489   2.640  22.747  0.00  0.00    -0.020 A 
ATOM     85  C   UNL     1       6.160   4.070  22.927  0.00  0.00    +0.003 A 
ATOM     86  C   UNL     1       6.865   4.766  21.964  0.00  0.00    +0.047 A 
ATOM     87  C   UNL     1       6.802   6.166  21.754  0.00  0.00    +0.026 A 
ATOM     88  C   UNL     1       6.048   6.919  22.645  0.00  0.00    +0.002 A 
ATOM     89  C   UNL     1       5.343   6.286  23.660  0.00  0.00    +0.001 A 
ATOM     90  N   UNL     1       7.618   3.844  21.231  0.00  0.00    -0.360 N 
ATOM     91  H   UNL     1       8.219   4.090  20.475  0.00  0.00    +0.165 HD
ATOM     92  C   UNL     1       5.360   4.873  23.796  0.00  0.00    +0.010 A 
ATOM     93  C   UNL     1       7.413   2.613  21.773  0.00  0.00    +0.087 A 
ENDBRANCH  83  84
ENDBRANCH  26  83
TORSDOF 21
ENDMDL
