MODEL 1
REMARK VINA RESULT:      -8.2      0.000      0.000
REMARK  Name = 
REMARK  14 active torsions:
REMARK  status: ('A' for Active; 'I' for Inactive)
REMARK    1  A    between atoms: C_1  and  C_2
REMARK    2  A    between atoms: C_14  and  C_15
REMARK    3  A    between atoms: C_15  and  C_16
REMARK    4  A    between atoms: C_16  and  C_17
REMARK    5  A    between atoms: C_17  and  O_18
REMARK    6  A    between atoms: C_20  and  C_21
REMARK    7  A    between atoms: C_25  and  C_27
REMARK    8  A    between atoms: C_32  and  C_33
REMARK    9  A    between atoms: C_33  and  C_34
REMARK   10  A    between atoms: C_34  and  C_35
REMARK   11  A    between atoms: C_35  and  O_36
REMARK   12  A    between atoms: C_38  and  C_39
REMARK   13  A    between atoms: C_40  and  C_41
REMARK   14  A    between atoms: C_43  and  O_44
REMARK                            x       y       z     vdW  Elec       q    Type
REMARK                         _______ _______ _______ _____ _____    ______ ____
ROOT
ATOM      1  C   UNL     1       8.211   5.942  23.899  0.00  0.00    +0.000 C 
ATOM      2  C   UNL     1       8.200   4.089  23.061  0.00  0.00    +0.000 C 
ATOM      3  C   UNL     1       9.341   3.320  23.591  0.00  0.00    +0.000 C 
ATOM      4  C   UNL     1       7.916   0.598  22.753  0.00  0.00    +0.000 C 
ATOM      5  N   UNL     1       6.576   1.262  22.606  0.00  0.00    +0.000 N 
ATOM      6 FE   UNL     1       5.865  -0.265  24.168  0.00  0.00    +0.000 Fe
ATOM      7  N   UNL     1       4.506  -2.540  24.392  0.00  0.00    +0.000 N 
ATOM      8  C   UNL     1       5.132  -3.308  23.801  0.00  0.00    +0.000 A 
ATOM      9  C   UNL     1       4.359  -5.200  24.574  0.00  0.00    +0.000 A 
ATOM     10  C   UNL     1       3.910  -7.216  25.204  0.00  0.00    +0.000 C 
ATOM     11  C   UNL     1       3.961  -4.620  25.871  0.00  0.00    +0.000 A 
ATOM     12  C   UNL     1       4.181  -3.296  25.592  0.00  0.00    +0.000 A 
ATOM     13  C   UNL     1       4.841  -2.629  26.477  0.00  0.00    +0.000 C 
ATOM     14  C   UNL     1       6.251  -2.603  26.048  0.00  0.00    +0.000 A 
ATOM     15  C   UNL     1       7.223  -3.517  25.347  0.00  0.00    +0.000 A 
ATOM     16  C   UNL     1       8.274  -2.771  24.855  0.00  0.00    +0.000 A 
ATOM     17  C   UNL     1       9.370  -3.067  23.779  0.00  0.00    +0.000 C 
ATOM     18  C   UNL     1       8.017  -1.530  25.292  0.00  0.00    +0.000 A 
ATOM     19  C   UNL     1       8.748  -0.486  25.142  0.00  0.00    +0.000 C 
ATOM     20  C   UNL     1       8.259   0.858  25.653  0.00  0.00    +0.000 A 
ATOM     21  C   UNL     1       7.701   1.451  26.697  0.00  0.00    +0.000 A 
ATOM     22  C   UNL     1       7.497   2.777  26.178  0.00  0.00    +0.000 A 
ATOM     23  C   UNL     1       6.745   3.755  26.650  0.00  0.00    +0.000 C 
ATOM     24  C   UNL     1       7.111   2.456  24.921  0.00  0.00    +0.000 A 
ATOM     25  C   UNL     1       6.379   3.155  23.997  0.00  0.00    +0.000 C 
ATOM     26  C   UNL     1       6.223   0.885  26.835  0.00  0.00    +0.000 C 
ATOM     27  N   UNL     1       6.762  -1.427  25.703  0.00  0.00    +0.000 N 
ATOM     28  N   UNL     1       7.408   1.152  24.799  0.00  0.00    +0.000 N 
ATOM     29  C   UNL     1       6.832  -1.612  22.863  0.00  0.00    +0.000 C 
ATOM     30  C   UNL     1       7.057   2.870  22.896  0.00  0.00    +0.000 C 
ENDROOT
BRANCH   3  31
ATOM     31  C   UNL     1      10.626   5.918  24.296  0.00  0.00    +0.000 C 
ATOM     32  C   UNL     1      11.683   7.108  25.282  0.00  0.00    +0.000 C 
ENDBRANCH   3  31
BRANCH  23  33
ATOM     33  O   UNL     1       5.415   3.555  26.807  0.00  0.00    +0.000 OA
ATOM     34  H   UNL     1       4.850   3.968  27.467  0.00  0.00    +0.000 HD
ENDBRANCH  23  33
BRANCH  11  35
ATOM     35  C   UNL     1       3.761  -5.398  27.504  0.00  0.00    +0.000 C 
BRANCH  35  36
ATOM     36  C   UNL     1       5.082  -5.288  28.306  0.00  0.00    +0.000 C 
BRANCH  36  37
ATOM     37  C   UNL     1       6.133  -6.387  28.374  0.00  0.00    +0.000 C 
ATOM     38  O   UNL     1       5.883  -7.524  28.745  0.00  0.00    +0.000 OA
BRANCH  37  39
ATOM     39  O   UNL     1       7.387  -6.081  27.966  0.00  0.00    +0.000 OA
ATOM     40  H   UNL     1       8.113  -6.719  28.061  0.00  0.00    +0.000 HD
ENDBRANCH  37  39
ENDBRANCH  36  37
ENDBRANCH  35  36
ENDBRANCH  11  35
BRANCH  15  41
ATOM     41  C   UNL     1       7.109  -4.844  24.710  0.00  0.00    +0.000 C 
BRANCH  41  42
ATOM     42  C   UNL     1       7.959  -5.511  23.728  0.00  0.00    +0.000 C 
BRANCH  42  43
ATOM     43  C   UNL     1       7.228  -5.733  22.503  0.00  0.00    +0.000 C 
ATOM     44  O   UNL     1       7.313  -4.902  21.621  0.00  0.00    +0.000 OA
BRANCH  43  45
ATOM     45  O   UNL     1       6.500  -6.854  22.344  0.00  0.00    +0.000 OA
ATOM     46  H   UNL     1       5.542  -6.806  22.211  0.00  0.00    +0.000 HD
ENDBRANCH  43  45
ENDBRANCH  42  43
ENDBRANCH  41  42
ENDBRANCH  15  41
TORSDOF 10
ENDMDL
MODEL 2
REMARK VINA RESULT:      -8.1      2.412      3.573
REMARK  Name = 
REMARK  14 active torsions:
REMARK  status: ('A' for Active; 'I' for Inactive)
REMARK    1  A    between atoms: C_1  and  C_2
REMARK    2  A    between atoms: C_14  and  C_15
REMARK    3  A    between atoms: C_15  and  C_16
REMARK    4  A    between atoms: C_16  and  C_17
REMARK    5  A    between atoms: C_17  and  O_18
REMARK    6  A    between atoms: C_20  and  C_21
REMARK    7  A    between atoms: C_25  and  C_27
REMARK    8  A    between atoms: C_32  and  C_33
REMARK    9  A    between atoms: C_33  and  C_34
REMARK   10  A    between atoms: C_34  and  C_35
REMARK   11  A    between atoms: C_35  and  O_36
REMARK   12  A    between atoms: C_38  and  C_39
REMARK   13  A    between atoms: C_40  and  C_41
REMARK   14  A    between atoms: C_43  and  O_44
REMARK                            x       y       z     vdW  Elec       q    Type
REMARK                         _______ _______ _______ _____ _____    ______ ____
ROOT
ATOM      1  C   UNL     1      10.193   2.608  21.923  0.00  0.00    +0.000 C 
ATOM      2  C   UNL     1      10.096   0.604  22.251  0.00  0.00    +0.000 C 
ATOM      3  C   UNL     1      10.454   0.333  23.656  0.00  0.00    +0.000 C 
ATOM      4  C   UNL     1       9.000  -2.496  23.497  0.00  0.00    +0.000 C 
ATOM      5  N   UNL     1       8.243  -2.118  22.256  0.00  0.00    +0.000 N 
ATOM      6 FE   UNL     1       6.365  -2.586  23.493  0.00  0.00    +0.000 Fe
ATOM      7  N   UNL     1       4.505  -4.457  23.833  0.00  0.00    +0.000 N 
ATOM      8  C   UNL     1       5.089  -5.376  24.213  0.00  0.00    +0.000 A 
ATOM      9  C   UNL     1       3.492  -6.586  25.087  0.00  0.00    +0.000 A 
ATOM     10  C   UNL     1       2.188  -7.953  26.132  0.00  0.00    +0.000 C 
ATOM     11  C   UNL     1       2.636  -5.420  25.379  0.00  0.00    +0.000 A 
ATOM     12  C   UNL     1       3.358  -4.453  24.729  0.00  0.00    +0.000 A 
ATOM     13  C   UNL     1       3.577  -3.366  25.388  0.00  0.00    +0.000 C 
ATOM     14  C   UNL     1       4.917  -3.479  25.993  0.00  0.00    +0.000 A 
ATOM     15  C   UNL     1       5.785  -4.556  26.589  0.00  0.00    +0.000 A 
ATOM     16  C   UNL     1       7.097  -4.130  26.597  0.00  0.00    +0.000 A 
ATOM     17  C   UNL     1       8.456  -4.889  26.751  0.00  0.00    +0.000 C 
ATOM     18  C   UNL     1       7.027  -2.874  26.133  0.00  0.00    +0.000 A 
ATOM     19  C   UNL     1       7.990  -2.034  26.016  0.00  0.00    +0.000 C 
ATOM     20  C   UNL     1       7.729  -0.668  25.405  0.00  0.00    +0.000 A 
ATOM     21  C   UNL     1       6.894   0.359  25.432  0.00  0.00    +0.000 A 
ATOM     22  C   UNL     1       7.422   1.167  24.365  0.00  0.00    +0.000 A 
ATOM     23  C   UNL     1       6.871   2.187  23.735  0.00  0.00    +0.000 C 
ATOM     24  C   UNL     1       7.727   0.183  23.486  0.00  0.00    +0.000 A 
ATOM     25  C   UNL     1       7.884   0.209  22.125  0.00  0.00    +0.000 C 
ATOM     26  C   UNL     1       5.502  -0.142  24.852  0.00  0.00    +0.000 C 
ATOM     27  N   UNL     1       5.857  -2.651  25.554  0.00  0.00    +0.000 N 
ATOM     28  N   UNL     1       7.634  -0.951  24.200  0.00  0.00    +0.000 N 
ATOM     29  C   UNL     1       7.437  -4.355  23.909  0.00  0.00    +0.000 C 
ATOM     30  C   UNL     1       8.937  -0.584  21.995  0.00  0.00    +0.000 C 
ENDROOT
BRANCH   3  31
ATOM     31  C   UNL     1      11.836   2.976  23.700  0.00  0.00    +0.000 C 
ATOM     32  C   UNL     1      12.079   4.801  23.360  0.00  0.00    +0.000 C 
ENDBRANCH   3  31
BRANCH  23  33
ATOM     33  O   UNL     1       5.693   2.012  23.089  0.00  0.00    +0.000 OA
ATOM     34  H   UNL     1       5.548   1.482  22.299  0.00  0.00    +0.000 HD
ENDBRANCH  23  33
BRANCH  11  35
ATOM     35  C   UNL     1       1.338  -5.189  26.634  0.00  0.00    +0.000 C 
BRANCH  35  36
ATOM     36  C   UNL     1       1.963  -5.224  28.051  0.00  0.00    +0.000 C 
BRANCH  36  37
ATOM     37  C   UNL     1       2.535  -4.007  28.763  0.00  0.00    +0.000 C 
ATOM     38  O   UNL     1       3.515  -4.062  29.491  0.00  0.00    +0.000 OA
BRANCH  37  39
ATOM     39  O   UNL     1       1.941  -2.811  28.538  0.00  0.00    +0.000 OA
ATOM     40  H   UNL     1       2.183  -2.028  29.058  0.00  0.00    +0.000 HD
ENDBRANCH  37  39
ENDBRANCH  36  37
ENDBRANCH  35  36
ENDBRANCH  11  35
BRANCH  15  41
ATOM     41  C   UNL     1       5.653  -6.020  26.735  0.00  0.00    +0.000 C 
BRANCH  41  42
ATOM     42  C   UNL     1       5.206  -6.834  27.861  0.00  0.00    +0.000 C 
BRANCH  42  43
ATOM     43  C   UNL     1       6.064  -6.623  29.002  0.00  0.00    +0.000 C 
ATOM     44  O   UNL     1       6.819  -7.517  29.331  0.00  0.00    +0.000 OA
BRANCH  43  45
ATOM     45  O   UNL     1       6.042  -5.447  29.656  0.00  0.00    +0.000 OA
ATOM     46  H   UNL     1       5.212  -4.961  29.771  0.00  0.00    +0.000 HD
ENDBRANCH  43  45
ENDBRANCH  42  43
ENDBRANCH  41  42
ENDBRANCH  15  41
TORSDOF 10
ENDMDL
MODEL 3
REMARK VINA RESULT:      -7.6      2.924      5.462
REMARK  Name = 
REMARK  14 active torsions:
REMARK  status: ('A' for Active; 'I' for Inactive)
REMARK    1  A    between atoms: C_1  and  C_2
REMARK    2  A    between atoms: C_14  and  C_15
REMARK    3  A    between atoms: C_15  and  C_16
REMARK    4  A    between atoms: C_16  and  C_17
REMARK    5  A    between atoms: C_17  and  O_18
REMARK    6  A    between atoms: C_20  and  C_21
REMARK    7  A    between atoms: C_25  and  C_27
REMARK    8  A    between atoms: C_32  and  C_33
REMARK    9  A    between atoms: C_33  and  C_34
REMARK   10  A    between atoms: C_34  and  C_35
REMARK   11  A    between atoms: C_35  and  O_36
REMARK   12  A    between atoms: C_38  and  C_39
REMARK   13  A    between atoms: C_40  and  C_41
REMARK   14  A    between atoms: C_43  and  O_44
REMARK                            x       y       z     vdW  Elec       q    Type
REMARK                         _______ _______ _______ _____ _____    ______ ____
ROOT
ATOM      1  C   UNL     1      11.268   1.277  23.797  0.00  0.00    +0.000 C 
ATOM      2  C   UNL     1      10.100   0.397  25.210  0.00  0.00    +0.000 C 
ATOM      3  C   UNL     1       8.792   1.078  25.238  0.00  0.00    +0.000 C 
ATOM      4  C   UNL     1       7.486  -1.457  26.657  0.00  0.00    +0.000 C 
ATOM      5  N   UNL     1       8.632  -2.351  26.275  0.00  0.00    +0.000 N 
ATOM      6 FE   UNL     1       7.033  -3.631  25.237  0.00  0.00    +0.000 Fe
ATOM      7  N   UNL     1       5.631  -5.870  25.544  0.00  0.00    +0.000 N 
ATOM      8  C   UNL     1       4.991  -5.682  26.485  0.00  0.00    +0.000 A 
ATOM      9  C   UNL     1       3.441  -7.209  26.281  0.00  0.00    +0.000 A 
ATOM     10  C   UNL     1       1.716  -8.508  26.320  0.00  0.00    +0.000 C 
ATOM     11  C   UNL     1       3.546  -7.258  24.810  0.00  0.00    +0.000 A 
ATOM     12  C   UNL     1       4.654  -6.468  24.647  0.00  0.00    +0.000 A 
ATOM     13  C   UNL     1       4.570  -5.549  23.744  0.00  0.00    +0.000 C 
ATOM     14  C   UNL     1       4.196  -4.296  24.425  0.00  0.00    +0.000 A 
ATOM     15  C   UNL     1       3.342  -3.869  25.590  0.00  0.00    +0.000 A 
ATOM     16  C   UNL     1       3.727  -2.609  25.999  0.00  0.00    +0.000 A 
ATOM     17  C   UNL     1       3.480  -1.803  27.316  0.00  0.00    +0.000 C 
ATOM     18  C   UNL     1       4.667  -2.259  25.111  0.00  0.00    +0.000 A 
ATOM     19  C   UNL     1       5.286  -1.137  25.036  0.00  0.00    +0.000 C 
ATOM     20  C   UNL     1       6.374  -0.944  23.994  0.00  0.00    +0.000 A 
ATOM     21  C   UNL     1       6.659  -1.138  22.715  0.00  0.00    +0.000 A 
ATOM     22  C   UNL     1       8.038  -0.731  22.679  0.00  0.00    +0.000 A 
ATOM     23  C   UNL     1       8.949  -0.940  21.747  0.00  0.00    +0.000 C 
ATOM     24  C   UNL     1       8.446  -1.259  23.857  0.00  0.00    +0.000 A 
ATOM     25  C   UNL     1       9.691  -1.620  24.300  0.00  0.00    +0.000 C 
ATOM     26  C   UNL     1       6.738  -2.707  22.475  0.00  0.00    +0.000 C 
ATOM     27  N   UNL     1       5.092  -3.316  24.434  0.00  0.00    +0.000 N 
ATOM     28  N   UNL     1       7.308  -1.593  24.490  0.00  0.00    +0.000 N 
ATOM     29  C   UNL     1       6.073  -3.425  27.104  0.00  0.00    +0.000 C 
ATOM     30  C   UNL     1       9.634  -1.180  25.547  0.00  0.00    +0.000 C 
ENDROOT
BRANCH   3  31
ATOM     31  C   UNL     1      10.108   3.426  23.953  0.00  0.00    +0.000 C 
ATOM     32  C   UNL     1      10.582   5.222  23.717  0.00  0.00    +0.000 C 
ENDBRANCH   3  31
BRANCH  23  33
ATOM     33  O   UNL     1       9.260  -2.209  21.392  0.00  0.00    +0.000 OA
ATOM     34  H   UNL     1       8.669  -2.968  21.409  0.00  0.00    +0.000 HD
ENDBRANCH  23  33
BRANCH  11  35
ATOM     35  C   UNL     1       2.324  -7.741  23.552  0.00  0.00    +0.000 C 
BRANCH  35  36
ATOM     36  C   UNL     1       1.049  -6.871  23.693  0.00  0.00    +0.000 C 
BRANCH  36  37
ATOM     37  C   UNL     1       0.726  -5.678  22.806  0.00  0.00    +0.000 C 
ATOM     38  O   UNL     1       0.743  -4.525  23.210  0.00  0.00    +0.000 OA
BRANCH  37  39
ATOM     39  O   UNL     1       0.446  -5.922  21.504  0.00  0.00    +0.000 OA
ATOM     40  H   UNL     1       1.026  -6.484  20.965  0.00  0.00    +0.000 HD
ENDBRANCH  37  39
ENDBRANCH  36  37
ENDBRANCH  35  36
ENDBRANCH  11  35
BRANCH  15  41
ATOM     41  C   UNL     1       2.563  -4.596  26.614  0.00  0.00    +0.000 C 
BRANCH  41  42
ATOM     42  C   UNL     1       1.129  -4.618  26.888  0.00  0.00    +0.000 C 
BRANCH  42  43
ATOM     43  C   UNL     1       0.894  -4.826  28.298  0.00  0.00    +0.000 C 
ATOM     44  O   UNL     1       0.766  -3.851  29.012  0.00  0.00    +0.000 OA
BRANCH  43  45
ATOM     45  O   UNL     1       0.788  -6.074  28.788  0.00  0.00    +0.000 OA
ATOM     46  H   UNL     1       0.051  -6.647  28.528  0.00  0.00    +0.000 HD
ENDBRANCH  43  45
ENDBRANCH  42  43
ENDBRANCH  41  42
ENDBRANCH  15  41
TORSDOF 10
ENDMDL
MODEL 4
REMARK VINA RESULT:      -7.4      2.711      8.645
REMARK  Name = 
REMARK  14 active torsions:
REMARK  status: ('A' for Active; 'I' for Inactive)
REMARK    1  A    between atoms: C_1  and  C_2
REMARK    2  A    between atoms: C_14  and  C_15
REMARK    3  A    between atoms: C_15  and  C_16
REMARK    4  A    between atoms: C_16  and  C_17
REMARK    5  A    between atoms: C_17  and  O_18
REMARK    6  A    between atoms: C_20  and  C_21
REMARK    7  A    between atoms: C_25  and  C_27
REMARK    8  A    between atoms: C_32  and  C_33
REMARK    9  A    between atoms: C_33  and  C_34
REMARK   10  A    between atoms: C_34  and  C_35
REMARK   11  A    between atoms: C_35  and  O_36
REMARK   12  A    between atoms: C_38  and  C_39
REMARK   13  A    between atoms: C_40  and  C_41
REMARK   14  A    between atoms: C_43  and  O_44
REMARK                            x       y       z     vdW  Elec       q    Type
REMARK                         _______ _______ _______ _____ _____    ______ ____
ROOT
ATOM      1  C   UNL     1       2.418  -7.364  28.222  0.00  0.00    +0.000 C 
ATOM      2  C   UNL     1       4.198  -6.940  27.334  0.00  0.00    +0.000 C 
ATOM      3  C   UNL     1       3.987  -6.816  25.880  0.00  0.00    +0.000 C 
ATOM      4  C   UNL     1       6.698  -5.165  25.613  0.00  0.00    +0.000 C 
ATOM      5  N   UNL     1       6.750  -4.875  27.087  0.00  0.00    +0.000 N 
ATOM      6 FE   UNL     1       6.767  -2.667  26.454  0.00  0.00    +0.000 Fe
ATOM      7  N   UNL     1       8.405  -0.590  26.176  0.00  0.00    +0.000 N 
ATOM      8  C   UNL     1       9.149  -0.919  25.358  0.00  0.00    +0.000 A 
ATOM      9  C   UNL     1       9.988   0.998  24.725  0.00  0.00    +0.000 A 
ATOM     10  C   UNL     1      10.920   2.708  23.793  0.00  0.00    +0.000 C 
ATOM     11  C   UNL     1       8.785   1.762  25.111  0.00  0.00    +0.000 A 
ATOM     12  C   UNL     1       8.096   0.768  25.755  0.00  0.00    +0.000 A 
ATOM     13  C   UNL     1       6.852   0.639  25.436  0.00  0.00    +0.000 C 
ATOM     14  C   UNL     1       6.766  -0.427  24.421  0.00  0.00    +0.000 A 
ATOM     15  C   UNL     1       7.588  -0.941  23.268  0.00  0.00    +0.000 A 
ATOM     16  C   UNL     1       7.192  -2.227  22.964  0.00  0.00    +0.000 A 
ATOM     17  C   UNL     1       7.865  -3.375  22.144  0.00  0.00    +0.000 C 
ATOM     18  C   UNL     1       6.163  -2.447  23.793  0.00  0.00    +0.000 A 
ATOM     19  C   UNL     1       5.416  -3.490  23.845  0.00  0.00    +0.000 C 
ATOM     20  C   UNL     1       4.330  -3.589  24.902  0.00  0.00    +0.000 A 
ATOM     21  C   UNL     1       3.348  -2.910  25.474  0.00  0.00    +0.000 A 
ATOM     22  C   UNL     1       2.945  -3.830  26.504  0.00  0.00    +0.000 A 
ATOM     23  C   UNL     1       2.190  -3.620  27.566  0.00  0.00    +0.000 C 
ATOM     24  C   UNL     1       4.167  -4.275  26.880  0.00  0.00    +0.000 A 
ATOM     25  C   UNL     1       4.598  -4.844  28.049  0.00  0.00    +0.000 C 
ATOM     26  C   UNL     1       4.004  -1.715  26.291  0.00  0.00    +0.000 C 
ATOM     27  N   UNL     1       6.138  -1.546  24.763  0.00  0.00    +0.000 N 
ATOM     28  N   UNL     1       4.997  -3.837  25.918  0.00  0.00    +0.000 N 
ATOM     29  C   UNL     1       8.303  -3.348  25.178  0.00  0.00    +0.000 C 
ATOM     30  C   UNL     1       5.395  -5.787  27.572  0.00  0.00    +0.000 C 
ENDROOT
BRANCH   3  31
ATOM     31  C   UNL     1       1.489  -8.412  26.214  0.00  0.00    +0.000 C 
ATOM     32  C   UNL     1       0.443  -9.937  26.503  0.00  0.00    +0.000 C 
ENDBRANCH   3  31
BRANCH  23  33
ATOM     33  O   UNL     1       2.562  -2.686  28.473  0.00  0.00    +0.000 OA
ATOM     34  H   UNL     1       3.126  -1.924  28.310  0.00  0.00    +0.000 HD
ENDBRANCH  23  33
BRANCH  11  35
ATOM     35  C   UNL     1       8.141   3.347  24.490  0.00  0.00    +0.000 C 
BRANCH  35  36
ATOM     36  C   UNL     1       8.219   4.420  25.605  0.00  0.00    +0.000 C 
BRANCH  36  37
ATOM     37  C   UNL     1       7.116   4.678  26.621  0.00  0.00    +0.000 C 
ATOM     38  O   UNL     1       6.226   5.496  26.443  0.00  0.00    +0.000 OA
BRANCH  37  39
ATOM     39  O   UNL     1       7.116   3.931  27.750  0.00  0.00    +0.000 OA
ATOM     40  H   UNL     1       6.338   3.409  28.004  0.00  0.00    +0.000 HD
ENDBRANCH  37  39
ENDBRANCH  36  37
ENDBRANCH  35  36
ENDBRANCH  11  35
BRANCH  15  41
ATOM     41  C   UNL     1       8.919  -0.603  22.724  0.00  0.00    +0.000 C 
BRANCH  41  42
ATOM     42  C   UNL     1       9.318  -0.101  21.412  0.00  0.00    +0.000 C 
BRANCH  42  43
ATOM     43  C   UNL     1       8.934   1.283  21.269  0.00  0.00    +0.000 C 
ATOM     44  O   UNL     1       7.765   1.540  21.058  0.00  0.00    +0.000 OA
BRANCH  43  45
ATOM     45  O   UNL     1       9.853   2.257  21.401  0.00  0.00    +0.000 OA
ATOM     46  H   UNL     1      10.556   2.186  22.064  0.00  0.00    +0.000 HD
ENDBRANCH  43  45
ENDBRANCH  42  43
ENDBRANCH  41  42
ENDBRANCH  15  41
TORSDOF 10
ENDMDL
MODEL 5
REMARK VINA RESULT:      -6.9      2.586      3.888
REMARK  Name = 
REMARK  14 active torsions:
REMARK  status: ('A' for Active; 'I' for Inactive)
REMARK    1  A    between atoms: C_1  and  C_2
REMARK    2  A    between atoms: C_14  and  C_15
REMARK    3  A    between atoms: C_15  and  C_16
REMARK    4  A    between atoms: C_16  and  C_17
REMARK    5  A    between atoms: C_17  and  O_18
REMARK    6  A    between atoms: C_20  and  C_21
REMARK    7  A    between atoms: C_25  and  C_27
REMARK    8  A    between atoms: C_32  and  C_33
REMARK    9  A    between atoms: C_33  and  C_34
REMARK   10  A    between atoms: C_34  and  C_35
REMARK   11  A    between atoms: C_35  and  O_36
REMARK   12  A    between atoms: C_38  and  C_39
REMARK   13  A    between atoms: C_40  and  C_41
REMARK   14  A    between atoms: C_43  and  O_44
REMARK                            x       y       z     vdW  Elec       q    Type
REMARK                         _______ _______ _______ _____ _____    ______ ____
ROOT
ATOM      1  C   UNL     1       3.407   5.940  26.853  0.00  0.00    +0.000 C 
ATOM      2  C   UNL     1       4.876   4.933  25.872  0.00  0.00    +0.000 C 
ATOM      3  C   UNL     1       5.819   4.384  26.863  0.00  0.00    +0.000 C 
ATOM      4  C   UNL     1       6.861   2.269  24.721  0.00  0.00    +0.000 C 
ATOM      5  N   UNL     1       5.664   2.469  23.835  0.00  0.00    +0.000 N 
ATOM      6 FE   UNL     1       5.333   0.212  24.101  0.00  0.00    +0.000 Fe
ATOM      7  N   UNL     1       5.651  -2.105  22.835  0.00  0.00    +0.000 N 
ATOM      8  C   UNL     1       6.792  -2.202  22.695  0.00  0.00    +0.000 A 
ATOM      9  C   UNL     1       7.010  -4.339  22.293  0.00  0.00    +0.000 A 
ATOM     10  C   UNL     1       7.581  -6.400  21.991  0.00  0.00    +0.000 C 
ATOM     11  C   UNL     1       5.789  -4.703  23.040  0.00  0.00    +0.000 A 
ATOM     12  C   UNL     1       5.300  -3.446  23.279  0.00  0.00    +0.000 A 
ATOM     13  C   UNL     1       4.924  -3.202  24.489  0.00  0.00    +0.000 C 
ATOM     14  C   UNL     1       6.043  -2.526  25.171  0.00  0.00    +0.000 A 
ATOM     15  C   UNL     1       7.549  -2.575  25.163  0.00  0.00    +0.000 A 
ATOM     16  C   UNL     1       8.045  -1.408  25.707  0.00  0.00    +0.000 A 
ATOM     17  C   UNL     1       9.454  -0.732  25.656  0.00  0.00    +0.000 C 
ATOM     18  C   UNL     1       6.946  -0.746  26.095  0.00  0.00    +0.000 A 
ATOM     19  C   UNL     1       6.894   0.375  26.718  0.00  0.00    +0.000 C 
ATOM     20  C   UNL     1       5.547   1.009  27.019  0.00  0.00    +0.000 A 
ATOM     21  C   UNL     1       4.335   0.745  27.482  0.00  0.00    +0.000 A 
ATOM     22  C   UNL     1       3.680   2.006  27.264  0.00  0.00    +0.000 A 
ATOM     23  C   UNL     1       2.392   2.295  27.280  0.00  0.00    +0.000 C 
ATOM     24  C   UNL     1       4.214   2.318  26.060  0.00  0.00    +0.000 A 
ATOM     25  C   UNL     1       3.770   3.147  25.065  0.00  0.00    +0.000 C 
ATOM     26  C   UNL     1       3.624  -0.218  26.437  0.00  0.00    +0.000 C 
ATOM     27  N   UNL     1       5.863  -1.262  25.535  0.00  0.00    +0.000 N 
ATOM     28  N   UNL     1       5.226   1.447  25.904  0.00  0.00    +0.000 N 
ATOM     29  C   UNL     1       7.377   0.148  23.580  0.00  0.00    +0.000 C 
ATOM     30  C   UNL     1       4.909   3.722  24.710  0.00  0.00    +0.000 C 
ENDROOT
BRANCH   3  31
ATOM     31  C   UNL     1       4.820   6.430  28.790  0.00  0.00    +0.000 C 
ATOM     32  C   UNL     1       4.123   7.090  30.396  0.00  0.00    +0.000 C 
ENDBRANCH   3  31
BRANCH  23  33
ATOM     33  O   UNL     1       1.556   1.655  26.427  0.00  0.00    +0.000 OA
ATOM     34  H   UNL     1       1.439   1.846  25.492  0.00  0.00    +0.000 HD
ENDBRANCH  23  33
BRANCH  11  35
ATOM     35  C   UNL     1       5.326  -6.257  23.866  0.00  0.00    +0.000 C 
BRANCH  35  36
ATOM     36  C   UNL     1       3.796  -6.476  23.759  0.00  0.00    +0.000 C 
BRANCH  36  37
ATOM     37  C   UNL     1       3.058  -7.661  24.365  0.00  0.00    +0.000 C 
ATOM     38  O   UNL     1       2.174  -8.265  23.776  0.00  0.00    +0.000 OA
BRANCH  37  39
ATOM     39  O   UNL     1       3.438  -8.073  25.597  0.00  0.00    +0.000 OA
ATOM     40  H   UNL     1       4.116  -7.592  26.098  0.00  0.00    +0.000 HD
ENDBRANCH  37  39
ENDBRANCH  36  37
ENDBRANCH  35  36
ENDBRANCH  11  35
BRANCH  15  41
ATOM     41  C   UNL     1       8.549  -3.309  24.361  0.00  0.00    +0.000 C 
BRANCH  41  42
ATOM     42  C   UNL     1       9.425  -4.424  24.710  0.00  0.00    +0.000 C 
BRANCH  42  43
ATOM     43  C   UNL     1       8.941  -5.086  25.898  0.00  0.00    +0.000 C 
ATOM     44  O   UNL     1       8.097  -5.952  25.774  0.00  0.00    +0.000 OA
BRANCH  43  45
ATOM     45  O   UNL     1       9.445  -4.765  27.104  0.00  0.00    +0.000 OA
ATOM     46  H   UNL     1       9.385  -5.386  27.846  0.00  0.00    +0.000 HD
ENDBRANCH  43  45
ENDBRANCH  42  43
ENDBRANCH  41  42
ENDBRANCH  15  41
TORSDOF 10
ENDMDL
MODEL 6
REMARK VINA RESULT:      -6.8      2.508      9.235
REMARK  Name = 
REMARK  14 active torsions:
REMARK  status: ('A' for Active; 'I' for Inactive)
REMARK    1  A    between atoms: C_1  and  C_2
REMARK    2  A    between atoms: C_14  and  C_15
REMARK    3  A    between atoms: C_15  and  C_16
REMARK    4  A    between atoms: C_16  and  C_17
REMARK    5  A    between atoms: C_17  and  O_18
REMARK    6  A    between atoms: C_20  and  C_21
REMARK    7  A    between atoms: C_25  and  C_27
REMARK    8  A    between atoms: C_32  and  C_33
REMARK    9  A    between atoms: C_33  and  C_34
REMARK   10  A    between atoms: C_34  and  C_35
REMARK   11  A    between atoms: C_35  and  O_36
REMARK   12  A    between atoms: C_38  and  C_39
REMARK   13  A    between atoms: C_40  and  C_41
REMARK   14  A    between atoms: C_43  and  O_44
REMARK                            x       y       z     vdW  Elec       q    Type
REMARK                         _______ _______ _______ _____ _____    ______ ____
ROOT
ATOM      1  C   UNL     1       0.521  -8.226  25.974  0.00  0.00    +0.000 C 
ATOM      2  C   UNL     1       0.686  -6.233  26.339  0.00  0.00    +0.000 C 
ATOM      3  C   UNL     1       1.307  -6.041  27.663  0.00  0.00    +0.000 C 
ATOM      4  C   UNL     1       2.139  -3.073  26.860  0.00  0.00    +0.000 C 
ATOM      5  N   UNL     1       1.935  -3.336  25.395  0.00  0.00    +0.000 N 
ATOM      6 FE   UNL     1       4.134  -2.713  25.174  0.00  0.00    +0.000 Fe
ATOM      7  N   UNL     1       5.656  -0.671  24.406  0.00  0.00    +0.000 N 
ATOM      8  C   UNL     1       5.403   0.173  25.151  0.00  0.00    +0.000 A 
ATOM      9  C   UNL     1       7.109   1.514  24.899  0.00  0.00    +0.000 A 
ATOM     10  C   UNL     1       8.694   2.978  24.981  0.00  0.00    +0.000 C 
ATOM     11  C   UNL     1       8.019   0.435  24.469  0.00  0.00    +0.000 A 
ATOM     12  C   UNL     1       7.107  -0.582  24.352  0.00  0.00    +0.000 A 
ATOM     13  C   UNL     1       7.433  -1.705  24.899  0.00  0.00    +0.000 C 
ATOM     14  C   UNL     1       6.799  -1.747  26.230  0.00  0.00    +0.000 A 
ATOM     15  C   UNL     1       6.460  -0.783  27.336  0.00  0.00    +0.000 A 
ATOM     16  C   UNL     1       5.493  -1.342  28.146  0.00  0.00    +0.000 A 
ATOM     17  C   UNL     1       4.514  -0.732  29.202  0.00  0.00    +0.000 C 
ATOM     18  C   UNL     1       5.322  -2.570  27.636  0.00  0.00    +0.000 A 
ATOM     19  C   UNL     1       4.564  -3.501  28.090  0.00  0.00    +0.000 C 
ATOM     20  C   UNL     1       4.449  -4.815  27.337  0.00  0.00    +0.000 A 
ATOM     21  C   UNL     1       5.163  -5.751  26.730  0.00  0.00    +0.000 A 
ATOM     22  C   UNL     1       4.120  -6.578  26.185  0.00  0.00    +0.000 A 
ATOM     23  C   UNL     1       4.193  -7.517  25.260  0.00  0.00    +0.000 C 
ATOM     24  C   UNL     1       3.261  -5.606  25.797  0.00  0.00    +0.000 A 
ATOM     25  C   UNL     1       2.263  -5.608  24.859  0.00  0.00    +0.000 C 
ATOM     26  C   UNL     1       5.816  -5.093  25.440  0.00  0.00    +0.000 C 
ATOM     27  N   UNL     1       5.850  -2.654  26.425  0.00  0.00    +0.000 N 
ATOM     28  N   UNL     1       3.725  -4.490  26.383  0.00  0.00    +0.000 N 
ATOM     29  C   UNL     1       3.482  -1.076  26.335  0.00  0.00    +0.000 C 
ATOM     30  C   UNL     1       1.330  -4.925  25.505  0.00  0.00    +0.000 C 
ENDROOT
BRANCH   3  31
ATOM     31  C   UNL     1       0.443  -8.813  28.349  0.00  0.00    +0.000 C 
ATOM     32  C   UNL     1       0.631 -10.586  28.917  0.00  0.00    +0.000 C 
ENDBRANCH   3  31
BRANCH  23  33
ATOM     33  O   UNL     1       4.660  -7.204  24.028  0.00  0.00    +0.000 OA
ATOM     34  H   UNL     1       5.144  -7.787  23.436  0.00  0.00    +0.000 HD
ENDBRANCH  23  33
BRANCH  11  35
ATOM     35  C   UNL     1       9.831   0.303  24.573  0.00  0.00    +0.000 C 
BRANCH  35  36
ATOM     36  C   UNL     1      10.427   0.103  23.157  0.00  0.00    +0.000 C 
BRANCH  36  37
ATOM     37  C   UNL     1      10.241  -1.156  22.322  0.00  0.00    +0.000 C 
ATOM     38  O   UNL     1      10.568  -2.267  22.712  0.00  0.00    +0.000 OA
BRANCH  37  39
ATOM     39  O   UNL     1       9.652  -1.024  21.110  0.00  0.00    +0.000 OA
ATOM     40  H   UNL     1      10.036  -0.450  20.428  0.00  0.00    +0.000 HD
ENDBRANCH  37  39
ENDBRANCH  36  37
ENDBRANCH  35  36
ENDBRANCH  11  35
BRANCH  15  41
ATOM     41  C   UNL     1       6.566   0.682  27.492  0.00  0.00    +0.000 C 
BRANCH  41  42
ATOM     42  C   UNL     1       7.193   1.492  28.532  0.00  0.00    +0.000 C 
BRANCH  42  43
ATOM     43  C   UNL     1       6.768   2.867  28.420  0.00  0.00    +0.000 C 
ATOM     44  O   UNL     1       7.431   3.724  28.969  0.00  0.00    +0.000 OA
BRANCH  43  45
ATOM     45  O   UNL     1       5.680   3.180  27.693  0.00  0.00    +0.000 OA
ATOM     46  H   UNL     1       5.750   3.769  26.927  0.00  0.00    +0.000 HD
ENDBRANCH  43  45
ENDBRANCH  42  43
ENDBRANCH  41  42
ENDBRANCH  15  41
TORSDOF 10
ENDMDL
MODEL 7
REMARK VINA RESULT:      -6.0      2.777      9.019
REMARK  Name = 
REMARK  14 active torsions:
REMARK  status: ('A' for Active; 'I' for Inactive)
REMARK    1  A    between atoms: C_1  and  C_2
REMARK    2  A    between atoms: C_14  and  C_15
REMARK    3  A    between atoms: C_15  and  C_16
REMARK    4  A    between atoms: C_16  and  C_17
REMARK    5  A    between atoms: C_17  and  O_18
REMARK    6  A    between atoms: C_20  and  C_21
REMARK    7  A    between atoms: C_25  and  C_27
REMARK    8  A    between atoms: C_32  and  C_33
REMARK    9  A    between atoms: C_33  and  C_34
REMARK   10  A    between atoms: C_34  and  C_35
REMARK   11  A    between atoms: C_35  and  O_36
REMARK   12  A    between atoms: C_38  and  C_39
REMARK   13  A    between atoms: C_40  and  C_41
REMARK   14  A    between atoms: C_43  and  O_44
REMARK                            x       y       z     vdW  Elec       q    Type
REMARK                         _______ _______ _______ _____ _____    ______ ____
ROOT
ATOM      1  C   UNL     1       1.575  -7.383  29.432  0.00  0.00    +0.000 C 
ATOM      2  C   UNL     1       3.417  -6.804  28.794  0.00  0.00    +0.000 C 
ATOM      3  C   UNL     1       3.502  -7.008  27.337  0.00  0.00    +0.000 C 
ATOM      4  C   UNL     1       5.925  -4.947  27.174  0.00  0.00    +0.000 C 
ATOM      5  N   UNL     1       5.620  -4.371  28.527  0.00  0.00    +0.000 N 
ATOM      6 FE   UNL     1       5.435  -2.368  27.418  0.00  0.00    +0.000 Fe
ATOM      7  N   UNL     1       6.760  -0.108  26.960  0.00  0.00    +0.000 N 
ATOM      8  C   UNL     1       7.701  -0.439  26.382  0.00  0.00    +0.000 A 
ATOM      9  C   UNL     1       8.354   1.443  25.482  0.00  0.00    +0.000 A 
ATOM     10  C   UNL     1       9.192   3.086  24.359  0.00  0.00    +0.000 C 
ATOM     11  C   UNL     1       6.996   2.019  25.467  0.00  0.00    +0.000 A 
ATOM     12  C   UNL     1       6.344   1.056  26.192  0.00  0.00    +0.000 A 
ATOM     13  C   UNL     1       5.231   0.628  25.700  0.00  0.00    +0.000 C 
ATOM     14  C   UNL     1       5.524  -0.611  24.958  0.00  0.00    +0.000 A 
ATOM     15  C   UNL     1       6.640  -1.170  24.114  0.00  0.00    +0.000 A 
ATOM     16  C   UNL     1       6.517  -2.543  24.049  0.00  0.00    +0.000 A 
ATOM     17  C   UNL     1       7.514  -3.677  23.643  0.00  0.00    +0.000 C 
ATOM     18  C   UNL     1       5.381  -2.793  24.714  0.00  0.00    +0.000 A 
ATOM     19  C   UNL     1       4.808  -3.930  24.873  0.00  0.00    +0.000 C 
ATOM     20  C   UNL     1       3.550  -4.030  25.720  0.00  0.00    +0.000 A 
ATOM     21  C   UNL     1       2.378  -3.456  25.941  0.00  0.00    +0.000 A 
ATOM     22  C   UNL     1       1.911  -4.217  27.069  0.00  0.00    +0.000 A 
ATOM     23  C   UNL     1       0.925  -3.955  27.907  0.00  0.00    +0.000 C 
ATOM     24  C   UNL     1       3.079  -4.335  27.743  0.00  0.00    +0.000 A 
ATOM     25  C   UNL     1       3.334  -4.571  29.068  0.00  0.00    +0.000 C 
ATOM     26  C   UNL     1       2.657  -2.021  26.564  0.00  0.00    +0.000 C 
ATOM     27  N   UNL     1       5.015  -1.742  25.433  0.00  0.00    +0.000 N 
ATOM     28  N   UNL     1       4.017  -3.940  26.866  0.00  0.00    +0.000 N 
ATOM     29  C   UNL     1       7.291  -2.974  26.619  0.00  0.00    +0.000 C 
ATOM     30  C   UNL     1       4.348  -5.417  28.966  0.00  0.00    +0.000 C 
ENDROOT
BRANCH   3  31
ATOM     31  C   UNL     1       1.262  -8.962  27.588  0.00  0.00    +0.000 C 
ATOM     32  C   UNL     1       0.443 -10.614  27.908  0.00  0.00    +0.000 C 
ENDBRANCH   3  31
BRANCH  23  33
ATOM     33  O   UNL     1       0.951  -2.808  28.626  0.00  0.00    +0.000 OA
ATOM     34  H   UNL     1       1.684  -2.484  29.159  0.00  0.00    +0.000 HD
ENDBRANCH  23  33
BRANCH  11  35
ATOM     35  C   UNL     1       6.264   3.297  24.398  0.00  0.00    +0.000 C 
BRANCH  35  36
ATOM     36  C   UNL     1       6.226   4.653  25.146  0.00  0.00    +0.000 C 
BRANCH  36  37
ATOM     37  C   UNL     1       5.949   5.991  24.476  0.00  0.00    +0.000 C 
ATOM     38  O   UNL     1       5.682   7.006  25.103  0.00  0.00    +0.000 OA
BRANCH  37  39
ATOM     39  O   UNL     1       6.043   6.049  23.127  0.00  0.00    +0.000 OA
ATOM     40  H   UNL     1       6.584   5.409  22.636  0.00  0.00    +0.000 HD
ENDBRANCH  37  39
ENDBRANCH  36  37
ENDBRANCH  35  36
ENDBRANCH  11  35
BRANCH  15  41
ATOM     41  C   UNL     1       7.989  -0.693  23.746  0.00  0.00    +0.000 C 
BRANCH  41  42
ATOM     42  C   UNL     1       8.700  -0.721  22.472  0.00  0.00    +0.000 C 
BRANCH  42  43
ATOM     43  C   UNL     1      10.121  -0.845  22.695  0.00  0.00    +0.000 C 
ATOM     44  O   UNL     1      10.688  -1.833  22.271  0.00  0.00    +0.000 OA
BRANCH  43  45
ATOM     45  O   UNL     1      10.793   0.132  23.331  0.00  0.00    +0.000 OA
ATOM     46  H   UNL     1      10.853   1.020  22.948  0.00  0.00    +0.000 HD
ENDBRANCH  43  45
ENDBRANCH  42  43
ENDBRANCH  41  42
ENDBRANCH  15  41
TORSDOF 10
ENDMDL
MODEL 8
REMARK VINA RESULT:      -5.8      2.676      5.406
REMARK  Name = 
REMARK  14 active torsions:
REMARK  status: ('A' for Active; 'I' for Inactive)
REMARK    1  A    between atoms: C_1  and  C_2
REMARK    2  A    between atoms: C_14  and  C_15
REMARK    3  A    between atoms: C_15  and  C_16
REMARK    4  A    between atoms: C_16  and  C_17
REMARK    5  A    between atoms: C_17  and  O_18
REMARK    6  A    between atoms: C_20  and  C_21
REMARK    7  A    between atoms: C_25  and  C_27
REMARK    8  A    between atoms: C_32  and  C_33
REMARK    9  A    between atoms: C_33  and  C_34
REMARK   10  A    between atoms: C_34  and  C_35
REMARK   11  A    between atoms: C_35  and  O_36
REMARK   12  A    between atoms: C_38  and  C_39
REMARK   13  A    between atoms: C_40  and  C_41
REMARK   14  A    between atoms: C_43  and  O_44
REMARK                            x       y       z     vdW  Elec       q    Type
REMARK                         _______ _______ _______ _____ _____    ______ ____
ROOT
ATOM      1  C   UNL     1       4.282   6.578  29.019  0.00  0.00    +0.000 C 
ATOM      2  C   UNL     1       4.967   4.711  29.443  0.00  0.00    +0.000 C 
ATOM      3  C   UNL     1       3.820   3.786  29.506  0.00  0.00    +0.000 C 
ATOM      4  C   UNL     1       5.770   1.311  29.045  0.00  0.00    +0.000 C 
ATOM      5  N   UNL     1       6.882   2.188  28.542  0.00  0.00    +0.000 N 
ATOM      6 FE   UNL     1       6.777   0.901  26.643  0.00  0.00    +0.000 Fe
ATOM      7  N   UNL     1       8.034  -1.087  25.400  0.00  0.00    +0.000 N 
ATOM      8  C   UNL     1       7.933  -1.984  26.118  0.00  0.00    +0.000 A 
ATOM      9  C   UNL     1       8.359  -3.666  24.788  0.00  0.00    +0.000 A 
ATOM     10  C   UNL     1       8.610  -5.533  23.733  0.00  0.00    +0.000 C 
ATOM     11  C   UNL     1       7.902  -2.952  23.579  0.00  0.00    +0.000 A 
ATOM     12  C   UNL     1       7.725  -1.705  24.120  0.00  0.00    +0.000 A 
ATOM     13  C   UNL     1       6.614  -1.114  23.835  0.00  0.00    +0.000 C 
ATOM     14  C   UNL     1       5.685  -1.358  24.954  0.00  0.00    +0.000 A 
ATOM     15  C   UNL     1       5.376  -2.465  25.927  0.00  0.00    +0.000 A 
ATOM     16  C   UNL     1       4.696  -1.943  27.008  0.00  0.00    +0.000 A 
ATOM     17  C   UNL     1       4.421  -2.487  28.448  0.00  0.00    +0.000 C 
ATOM     18  C   UNL     1       4.525  -0.654  26.685  0.00  0.00    +0.000 A 
ATOM     19  C   UNL     1       3.885   0.236  27.352  0.00  0.00    +0.000 C 
ATOM     20  C   UNL     1       3.853   1.672  26.857  0.00  0.00    +0.000 A 
ATOM     21  C   UNL     1       3.667   2.412  25.775  0.00  0.00    +0.000 A 
ATOM     22  C   UNL     1       3.971   3.722  26.286  0.00  0.00    +0.000 A 
ATOM     23  C   UNL     1       4.219   4.840  25.631  0.00  0.00    +0.000 C 
ATOM     24  C   UNL     1       5.022   3.401  27.078  0.00  0.00    +0.000 A 
ATOM     25  C   UNL     1       6.057   4.163  27.552  0.00  0.00    +0.000 C 
ATOM     26  C   UNL     1       4.875   2.121  24.784  0.00  0.00    +0.000 C 
ATOM     27  N   UNL     1       5.320  -0.310  25.683  0.00  0.00    +0.000 N 
ATOM     28  N   UNL     1       4.993   2.060  27.152  0.00  0.00    +0.000 N 
ATOM     29  C   UNL     1       6.856  -0.666  28.054  0.00  0.00    +0.000 C 
ATOM     30  C   UNL     1       6.140   3.702  28.791  0.00  0.00    +0.000 C 
ENDROOT
BRANCH   3  31
ATOM     31  C   UNL     1       2.073   6.157  29.983  0.00  0.00    +0.000 C 
ATOM     32  C   UNL     1       0.473   7.103  30.208  0.00  0.00    +0.000 C 
ENDBRANCH   3  31
BRANCH  23  33
ATOM     33  O   UNL     1       5.252   4.885  24.757  0.00  0.00    +0.000 OA
ATOM     34  H   UNL     1       5.809   5.647  24.570  0.00  0.00    +0.000 HD
ENDBRANCH  23  33
BRANCH  11  35
ATOM     35  C   UNL     1       7.253  -3.588  22.003  0.00  0.00    +0.000 C 
BRANCH  35  36
ATOM     36  C   UNL     1       5.752  -3.944  22.156  0.00  0.00    +0.000 C 
BRANCH  36  37
ATOM     37  C   UNL     1       5.215  -5.366  22.231  0.00  0.00    +0.000 C 
ATOM     38  O   UNL     1       4.138  -5.643  22.739  0.00  0.00    +0.000 OA
BRANCH  37  39
ATOM     39  O   UNL     1       5.959  -6.348  21.671  0.00  0.00    +0.000 OA
ATOM     40  H   UNL     1       5.683  -6.772  20.842  0.00  0.00    +0.000 HD
ENDBRANCH  37  39
ENDBRANCH  36  37
ENDBRANCH  35  36
ENDBRANCH  11  35
BRANCH  15  41
ATOM     41  C   UNL     1       5.974  -3.787  26.204  0.00  0.00    +0.000 C 
BRANCH  41  42
ATOM     42  C   UNL     1       5.410  -5.131  26.118  0.00  0.00    +0.000 C 
BRANCH  42  43
ATOM     43  C   UNL     1       5.829  -5.922  27.250  0.00  0.00    +0.000 C 
ATOM     44  O   UNL     1       5.333  -7.021  27.402  0.00  0.00    +0.000 OA
BRANCH  43  45
ATOM     45  O   UNL     1       6.772  -5.455  28.089  0.00  0.00    +0.000 OA
ATOM     46  H   UNL     1       6.638  -4.625  28.571  0.00  0.00    +0.000 HD
ENDBRANCH  43  45
ENDBRANCH  42  43
ENDBRANCH  41  42
ENDBRANCH  15  41
TORSDOF 10
ENDMDL
