MODEL 1
REMARK VINA RESULT:      -7.9      0.000      0.000
REMARK  Name = 
REMARK  9 active torsions:
REMARK  status: ('A' for Active; 'I' for Inactive)
REMARK    1  A    between atoms: C_1  and  O_2
REMARK    2  A    between atoms: O_2  and  C_3
REMARK    3  A    between atoms: C_3  and  C_5
REMARK    4  A    between atoms: C_11  and  C_13
REMARK    5  A    between atoms: C_16  and  N_19
REMARK    6  A    between atoms: N_19  and  C_20
REMARK    7  A    between atoms: N_19  and  C_21
REMARK    8  A    between atoms: C_21  and  C_22
REMARK    9  A    between atoms: C_25  and  N_26
REMARK                            x       y       z     vdW  Elec       q    Type
REMARK                         _______ _______ _______ _____ _____    ______ ____
ROOT
ATOM      1  N   UNL     1      10.435   3.745  23.514  0.00  0.00    -0.327 N 
ATOM      2  C   UNL     1      11.756   4.349  23.331  0.00  0.00    +0.129 C 
ENDROOT
BRANCH   1   6
ATOM      3  C   UNL     1       9.784  -0.439  23.177  0.00  0.00    +0.037 A 
ATOM      4  C   UNL     1       9.972   0.161  24.423  0.00  0.00    +0.015 A 
ATOM      5  C   UNL     1      10.190   1.544  24.519  0.00  0.00    +0.024 A 
ATOM      6  C   UNL     1      10.242   2.372  23.384  0.00  0.00    +0.030 A 
ATOM      7  C   UNL     1      10.023   1.746  22.149  0.00  0.00    +0.024 A 
ATOM      8  C   UNL     1       9.753   0.374  22.047  0.00  0.00    +0.015 A 
BRANCH   3  13
ATOM      9  C   UNL     1       5.682  -3.593  23.970  0.00  0.00    +0.101 C 
ATOM     10  C   UNL     1       5.924  -2.074  23.950  0.00  0.00    +0.033 C 
ATOM     11  C   UNL     1       6.991  -1.689  22.922  0.00  0.00    +0.109 C 
ATOM     12  N   UNL     1       8.228  -2.421  23.190  0.00  0.00    -0.297 N 
ATOM     13  C   UNL     1       9.529  -1.906  23.128  0.00  0.00    +0.247 C 
ATOM     14  O   UNL     1      10.518  -2.636  23.041  0.00  0.00    -0.270 OA
ATOM     15  C   UNL     1       8.075  -3.877  23.158  0.00  0.00    +0.109 C 
ATOM     16  C   UNL     1       7.012  -4.337  24.156  0.00  0.00    +0.033 C 
BRANCH   9  17
ATOM     17  C   UNL     1       4.950  -4.036  22.712  0.00  0.00    +0.310 C 
ATOM     18  O   UNL     1       5.399  -3.948  21.577  0.00  0.00    -0.251 OA
BRANCH  17  20
ATOM     19  C   UNL     1       3.669  -5.931  23.196  0.00  0.00    +0.280 C 
ATOM     20  O   UNL     1       3.712  -4.513  23.016  0.00  0.00    -0.468 OA
ENDBRANCH  17  20
ENDBRANCH   9  17
ENDBRANCH   3  13
ENDBRANCH   1   6
BRANCH   1  21
ATOM     21  C   UNL     1       9.512   4.490  24.393  0.00  0.00    +0.161 C 
BRANCH  21  22
ATOM     22  C   UNL     1       8.072   4.452  23.929  0.00  0.00    +0.077 A 
ATOM     23  C   UNL     1       7.642   5.112  22.793  0.00  0.00    +0.138 A 
ATOM     24  N   UNL     1       6.372   5.025  22.323  0.00  0.00    -0.232 NA
ATOM     25  C   UNL     1       5.516   4.224  22.967  0.00  0.00    +0.185 A 
ATOM     26  C   UNL     1       5.948   3.538  24.107  0.00  0.00    +0.148 A 
ATOM     27  C   UNL     1       4.972   2.726  24.674  0.00  0.00    +0.149 A 
ATOM     28  N   UNL     1       3.730   2.591  24.184  0.00  0.00    -0.198 NA
ATOM     29  C   UNL     1       3.451   3.278  23.080  0.00  0.00    +0.216 A 
ATOM     30  N   UNL     1       2.197   3.124  22.533  0.00  0.00    -0.327 N 
ATOM     31  H   UNL     1       1.950   3.915  21.956  0.00  0.00    +0.145 HD
ATOM     32  H   UNL     1       1.530   2.804  23.219  0.00  0.00    +0.145 HD
ATOM     33  N   UNL     1       4.287   4.111  22.471  0.00  0.00    -0.193 NA
ATOM     34  N   UNL     1       7.215   3.659  24.614  0.00  0.00    -0.242 NA
BRANCH  27  35
ATOM     35  N   UNL     1       5.284   1.901  25.767  0.00  0.00    -0.341 N 
ATOM     36  H   UNL     1       5.545   2.468  26.565  0.00  0.00    +0.144 HD
ATOM     37  H   UNL     1       5.943   1.171  25.517  0.00  0.00    +0.144 HD
ENDBRANCH  27  35
ENDBRANCH  21  22
ENDBRANCH   1  21
TORSDOF 7
ENDMDL
MODEL 2
REMARK VINA RESULT:      -7.7      2.490      4.598
REMARK  Name = 
REMARK  9 active torsions:
REMARK  status: ('A' for Active; 'I' for Inactive)
REMARK    1  A    between atoms: C_1  and  O_2
REMARK    2  A    between atoms: O_2  and  C_3
REMARK    3  A    between atoms: C_3  and  C_5
REMARK    4  A    between atoms: C_11  and  C_13
REMARK    5  A    between atoms: C_16  and  N_19
REMARK    6  A    between atoms: N_19  and  C_20
REMARK    7  A    between atoms: N_19  and  C_21
REMARK    8  A    between atoms: C_21  and  C_22
REMARK    9  A    between atoms: C_25  and  N_26
REMARK                            x       y       z     vdW  Elec       q    Type
REMARK                         _______ _______ _______ _____ _____    ______ ____
ROOT
ATOM      1  N   UNL     1       9.693  -1.304  23.844  0.00  0.00    -0.327 N 
ATOM      2  C   UNL     1      10.468  -1.523  22.622  0.00  0.00    +0.129 C 
ENDROOT
BRANCH   1   6
ATOM      3  C   UNL     1       7.495  -4.444  25.678  0.00  0.00    +0.037 A 
ATOM      4  C   UNL     1       7.149  -3.107  25.884  0.00  0.00    +0.015 A 
ATOM      5  C   UNL     1       7.886  -2.080  25.276  0.00  0.00    +0.024 A 
ATOM      6  C   UNL     1       8.996  -2.344  24.455  0.00  0.00    +0.030 A 
ATOM      7  C   UNL     1       9.304  -3.695  24.244  0.00  0.00    +0.024 A 
ATOM      8  C   UNL     1       8.542  -4.729  24.806  0.00  0.00    +0.015 A 
BRANCH   3  13
ATOM      9  C   UNL     1       2.623  -6.281  25.140  0.00  0.00    +0.101 C 
ATOM     10  C   UNL     1       3.500  -5.241  24.422  0.00  0.00    +0.033 C 
ATOM     11  C   UNL     1       4.974  -5.658  24.415  0.00  0.00    +0.109 C 
ATOM     12  N   UNL     1       5.433  -5.887  25.785  0.00  0.00    -0.297 N 
ATOM     13  C   UNL     1       6.665  -5.499  26.324  0.00  0.00    +0.247 C 
ATOM     14  O   UNL     1       7.114  -6.000  27.356  0.00  0.00    -0.270 OA
ATOM     15  C   UNL     1       4.676  -6.917  26.500  0.00  0.00    +0.109 C 
ATOM     16  C   UNL     1       3.187  -6.573  26.538  0.00  0.00    +0.033 C 
BRANCH   9  17
ATOM     17  C   UNL     1       2.494  -7.545  24.301  0.00  0.00    +0.310 C 
ATOM     18  O   UNL     1       2.764  -8.672  24.693  0.00  0.00    -0.251 OA
BRANCH  17  20
ATOM     19  C   UNL     1       1.219  -8.244  22.470  0.00  0.00    +0.280 C 
ATOM     20  O   UNL     1       2.070  -7.247  23.042  0.00  0.00    -0.468 OA
ENDBRANCH  17  20
ENDBRANCH   9  17
ENDBRANCH   3  13
ENDBRANCH   1   6
BRANCH   1  21
ATOM     21  C   UNL     1      10.150  -0.188  24.696  0.00  0.00    +0.161 C 
BRANCH  21  22
ATOM     22  C   UNL     1       9.630   1.162  24.253  0.00  0.00    +0.077 A 
ATOM     23  C   UNL     1      10.464   2.247  24.052  0.00  0.00    +0.138 A 
ATOM     24  N   UNL     1      10.023   3.441  23.582  0.00  0.00    -0.232 NA
ATOM     25  C   UNL     1       8.731   3.552  23.256  0.00  0.00    +0.185 A 
ATOM     26  C   UNL     1       7.884   2.453  23.439  0.00  0.00    +0.148 A 
ATOM     27  C   UNL     1       6.571   2.689  23.046  0.00  0.00    +0.149 A 
ATOM     28  N   UNL     1       6.138   3.848  22.529  0.00  0.00    -0.198 NA
ATOM     29  C   UNL     1       7.048   4.807  22.383  0.00  0.00    +0.216 A 
ATOM     30  N   UNL     1       6.639   5.992  21.815  0.00  0.00    -0.327 N 
ATOM     31  H   UNL     1       7.253   6.753  22.071  0.00  0.00    +0.145 HD
ATOM     32  H   UNL     1       5.644   6.126  21.913  0.00  0.00    +0.145 HD
ATOM     33  N   UNL     1       8.320   4.712  22.754  0.00  0.00    -0.193 NA
ATOM     34  N   UNL     1       8.313   1.260  23.957  0.00  0.00    -0.242 NA
BRANCH  27  35
ATOM     35  N   UNL     1       5.625   1.651  23.080  0.00  0.00    -0.341 N 
ATOM     36  H   UNL     1       5.824   0.978  22.349  0.00  0.00    +0.144 HD
ATOM     37  H   UNL     1       4.673   2.004  23.099  0.00  0.00    +0.144 HD
ENDBRANCH  27  35
ENDBRANCH  21  22
ENDBRANCH   1  21
TORSDOF 7
ENDMDL
MODEL 3
REMARK VINA RESULT:      -7.5      2.295      3.809
REMARK  Name = 
REMARK  9 active torsions:
REMARK  status: ('A' for Active; 'I' for Inactive)
REMARK    1  A    between atoms: C_1  and  O_2
REMARK    2  A    between atoms: O_2  and  C_3
REMARK    3  A    between atoms: C_3  and  C_5
REMARK    4  A    between atoms: C_11  and  C_13
REMARK    5  A    between atoms: C_16  and  N_19
REMARK    6  A    between atoms: N_19  and  C_20
REMARK    7  A    between atoms: N_19  and  C_21
REMARK    8  A    between atoms: C_21  and  C_22
REMARK    9  A    between atoms: C_25  and  N_26
REMARK                            x       y       z     vdW  Elec       q    Type
REMARK                         _______ _______ _______ _____ _____    ______ ____
ROOT
ATOM      1  N   UNL     1      10.445  -0.068  23.711  0.00  0.00    -0.327 N 
ATOM      2  C   UNL     1      11.156   0.929  24.513  0.00  0.00    +0.129 C 
ENDROOT
BRANCH   1   6
ATOM      3  C   UNL     1       8.345  -3.275  25.543  0.00  0.00    +0.037 A 
ATOM      4  C   UNL     1       9.164  -3.492  24.433  0.00  0.00    +0.015 A 
ATOM      5  C   UNL     1       9.848  -2.423  23.835  0.00  0.00    +0.024 A 
ATOM      6  C   UNL     1       9.733  -1.105  24.310  0.00  0.00    +0.030 A 
ATOM      7  C   UNL     1       8.927  -0.921  25.442  0.00  0.00    +0.024 A 
ATOM      8  C   UNL     1       8.280  -1.990  26.077  0.00  0.00    +0.015 A 
BRANCH   3  13
ATOM      9  C   UNL     1       3.614  -5.491  25.223  0.00  0.00    +0.101 C 
ATOM     10  C   UNL     1       4.340  -4.325  24.530  0.00  0.00    +0.033 C 
ATOM     11  C   UNL     1       5.837  -4.608  24.377  0.00  0.00    +0.109 C 
ATOM     12  N   UNL     1       6.425  -4.899  25.684  0.00  0.00    -0.297 N 
ATOM     13  C   UNL     1       7.661  -4.446  26.159  0.00  0.00    +0.247 C 
ATOM     14  O   UNL     1       8.234  -4.983  27.110  0.00  0.00    -0.270 OA
ATOM     15  C   UNL     1       5.816  -6.044  26.366  0.00  0.00    +0.109 C 
ATOM     16  C   UNL     1       4.312  -5.838  26.545  0.00  0.00    +0.033 C 
BRANCH   9  17
ATOM     17  C   UNL     1       3.520  -6.692  24.293  0.00  0.00    +0.310 C 
ATOM     18  O   UNL     1       3.809  -7.840  24.607  0.00  0.00    -0.251 OA
BRANCH  17  20
ATOM     19  C   UNL     1       1.778  -6.743  22.735  0.00  0.00    +0.280 C 
ATOM     20  O   UNL     1       3.105  -6.313  23.054  0.00  0.00    -0.468 OA
ENDBRANCH  17  20
ENDBRANCH   9  17
ENDBRANCH   3  13
ENDBRANCH   1   6
BRANCH   1  21
ATOM     21  C   UNL     1      10.009   0.385  22.375  0.00  0.00    +0.161 C 
BRANCH  21  22
ATOM     22  C   UNL     1       8.787   1.275  22.407  0.00  0.00    +0.077 A 
ATOM     23  C   UNL     1       7.500   0.768  22.407  0.00  0.00    +0.138 A 
ATOM     24  N   UNL     1       6.396   1.551  22.512  0.00  0.00    -0.232 NA
ATOM     25  C   UNL     1       6.571   2.868  22.670  0.00  0.00    +0.185 A 
ATOM     26  C   UNL     1       7.870   3.386  22.689  0.00  0.00    +0.148 A 
ATOM     27  C   UNL     1       7.918   4.764  22.877  0.00  0.00    +0.149 A 
ATOM     28  N   UNL     1       6.834   5.538  23.038  0.00  0.00    -0.198 NA
ATOM     29  C   UNL     1       5.657   4.919  23.024  0.00  0.00    +0.216 A 
ATOM     30  N   UNL     1       4.532   5.685  23.228  0.00  0.00    -0.327 N 
ATOM     31  H   UNL     1       3.710   5.237  22.849  0.00  0.00    +0.145 HD
ATOM     32  H   UNL     1       4.697   6.654  23.002  0.00  0.00    +0.145 HD
ATOM     33  N   UNL     1       5.484   3.619  22.817  0.00  0.00    -0.193 NA
ATOM     34  N   UNL     1       8.986   2.608  22.536  0.00  0.00    -0.242 NA
BRANCH  27  35
ATOM     35  N   UNL     1       9.154   5.417  23.016  0.00  0.00    -0.341 N 
ATOM     36  H   UNL     1       9.233   6.156  22.326  0.00  0.00    +0.144 HD
ATOM     37  H   UNL     1       9.929   4.763  23.045  0.00  0.00    +0.144 HD
ENDBRANCH  27  35
ENDBRANCH  21  22
ENDBRANCH   1  21
TORSDOF 7
ENDMDL
MODEL 4
REMARK VINA RESULT:      -7.3      1.705      2.072
REMARK  Name = 
REMARK  9 active torsions:
REMARK  status: ('A' for Active; 'I' for Inactive)
REMARK    1  A    between atoms: C_1  and  O_2
REMARK    2  A    between atoms: O_2  and  C_3
REMARK    3  A    between atoms: C_3  and  C_5
REMARK    4  A    between atoms: C_11  and  C_13
REMARK    5  A    between atoms: C_16  and  N_19
REMARK    6  A    between atoms: N_19  and  C_20
REMARK    7  A    between atoms: N_19  and  C_21
REMARK    8  A    between atoms: C_21  and  C_22
REMARK    9  A    between atoms: C_25  and  N_26
REMARK                            x       y       z     vdW  Elec       q    Type
REMARK                         _______ _______ _______ _____ _____    ______ ____
ROOT
ATOM      1  N   UNL     1      10.726   3.971  23.360  0.00  0.00    -0.327 N 
ATOM      2  C   UNL     1      12.068   4.510  23.137  0.00  0.00    +0.129 C 
ENDROOT
BRANCH   1   6
ATOM      3  C   UNL     1      10.049  -0.223  23.297  0.00  0.00    +0.037 A 
ATOM      4  C   UNL     1       9.819   0.560  22.164  0.00  0.00    +0.015 A 
ATOM      5  C   UNL     1      10.042   1.945  22.200  0.00  0.00    +0.024 A 
ATOM      6  C   UNL     1      10.488   2.598  23.362  0.00  0.00    +0.030 A 
ATOM      7  C   UNL     1      10.738   1.783  24.475  0.00  0.00    +0.024 A 
ATOM      8  C   UNL     1      10.567   0.393  24.434  0.00  0.00    +0.015 A 
BRANCH   3  13
ATOM      9  C   UNL     1       8.154  -3.970  26.422  0.00  0.00    +0.101 C 
ATOM     10  C   UNL     1       8.318  -2.443  26.498  0.00  0.00    +0.033 C 
ATOM     11  C   UNL     1       8.143  -1.791  25.123  0.00  0.00    +0.109 C 
ATOM     12  N   UNL     1       9.083  -2.380  24.170  0.00  0.00    -0.297 N 
ATOM     13  C   UNL     1       9.824  -1.693  23.201  0.00  0.00    +0.247 C 
ATOM     14  O   UNL     1      10.330  -2.267  22.236  0.00  0.00    -0.270 OA
ATOM     15  C   UNL     1       8.931  -3.827  24.005  0.00  0.00    +0.109 C 
ATOM     16  C   UNL     1       9.082  -4.548  25.344  0.00  0.00    +0.033 C 
BRANCH   9  17
ATOM     17  C   UNL     1       6.698  -4.343  26.181  0.00  0.00    +0.310 C 
ATOM     18  O   UNL     1       6.316  -5.167  25.361  0.00  0.00    -0.251 OA
BRANCH  17  20
ATOM     19  C   UNL     1       4.762  -4.349  27.491  0.00  0.00    +0.280 C 
ATOM     20  O   UNL     1       5.874  -3.610  26.979  0.00  0.00    -0.468 OA
ENDBRANCH  17  20
ENDBRANCH   9  17
ENDBRANCH   3  13
ENDBRANCH   1   6
BRANCH   1  21
ATOM     21  C   UNL     1       9.819   4.828  24.150  0.00  0.00    +0.161 C 
BRANCH  21  22
ATOM     22  C   UNL     1       8.366   4.705  23.746  0.00  0.00    +0.077 A 
ATOM     23  C   UNL     1       7.842   5.374  22.655  0.00  0.00    +0.138 A 
ATOM     24  N   UNL     1       6.561   5.214  22.236  0.00  0.00    -0.232 NA
ATOM     25  C   UNL     1       5.791   4.333  22.884  0.00  0.00    +0.185 A 
ATOM     26  C   UNL     1       6.320   3.639  23.978  0.00  0.00    +0.148 A 
ATOM     27  C   UNL     1       5.427   2.741  24.553  0.00  0.00    +0.149 A 
ATOM     28  N   UNL     1       4.178   2.537  24.111  0.00  0.00    -0.198 NA
ATOM     29  C   UNL     1       3.803   3.242  23.047  0.00  0.00    +0.216 A 
ATOM     30  N   UNL     1       2.540   3.019  22.548  0.00  0.00    -0.327 N 
ATOM     31  H   UNL     1       2.213   3.811  22.012  0.00  0.00    +0.145 HD
ATOM     32  H   UNL     1       1.927   2.629  23.249  0.00  0.00    +0.145 HD
ATOM     33  N   UNL     1       4.553   4.152  22.437  0.00  0.00    -0.193 NA
ATOM     34  N   UNL     1       7.597   3.830  24.435  0.00  0.00    -0.242 NA
BRANCH  27  35
ATOM     35  N   UNL     1       5.843   1.901  25.600  0.00  0.00    -0.341 N 
ATOM     36  H   UNL     1       5.388   1.000  25.521  0.00  0.00    +0.144 HD
ATOM     37  H   UNL     1       5.763   2.353  26.505  0.00  0.00    +0.144 HD
ENDBRANCH  27  35
ENDBRANCH  21  22
ENDBRANCH   1  21
TORSDOF 7
ENDMDL
MODEL 5
REMARK VINA RESULT:      -7.2      3.982      8.705
REMARK  Name = 
REMARK  9 active torsions:
REMARK  status: ('A' for Active; 'I' for Inactive)
REMARK    1  A    between atoms: C_1  and  O_2
REMARK    2  A    between atoms: O_2  and  C_3
REMARK    3  A    between atoms: C_3  and  C_5
REMARK    4  A    between atoms: C_11  and  C_13
REMARK    5  A    between atoms: C_16  and  N_19
REMARK    6  A    between atoms: N_19  and  C_20
REMARK    7  A    between atoms: N_19  and  C_21
REMARK    8  A    between atoms: C_21  and  C_22
REMARK    9  A    between atoms: C_25  and  N_26
REMARK                            x       y       z     vdW  Elec       q    Type
REMARK                         _______ _______ _______ _____ _____    ______ ____
ROOT
ATOM      1  N   UNL     1       7.183  -2.706  22.343  0.00  0.00    -0.327 N 
ATOM      2  C   UNL     1       5.726  -2.833  22.386  0.00  0.00    +0.129 C 
ENDROOT
BRANCH   1   6
ATOM      3  C   UNL     1       9.123   0.949  23.307  0.00  0.00    +0.037 A 
ATOM      4  C   UNL     1       8.131   0.421  24.135  0.00  0.00    +0.015 A 
ATOM      5  C   UNL     1       7.495  -0.785  23.803  0.00  0.00    +0.024 A 
ATOM      6  C   UNL     1       7.813  -1.498  22.634  0.00  0.00    +0.030 A 
ATOM      7  C   UNL     1       8.832  -0.959  21.836  0.00  0.00    +0.024 A 
ATOM      8  C   UNL     1       9.508   0.218  22.186  0.00  0.00    +0.015 A 
BRANCH   3  13
ATOM      9  C   UNL     1       8.057   6.062  22.955  0.00  0.00    +0.101 C 
ATOM     10  C   UNL     1       7.334   4.753  22.597  0.00  0.00    +0.033 C 
ATOM     11  C   UNL     1       7.666   3.637  23.591  0.00  0.00    +0.109 C 
ATOM     12  N   UNL     1       9.114   3.444  23.658  0.00  0.00    -0.297 N 
ATOM     13  C   UNL     1       9.787   2.218  23.717  0.00  0.00    +0.247 C 
ATOM     14  O   UNL     1      10.956   2.131  24.097  0.00  0.00    -0.270 OA
ATOM     15  C   UNL     1       9.854   4.642  24.059  0.00  0.00    +0.109 C 
ATOM     16  C   UNL     1       9.562   5.807  23.114  0.00  0.00    +0.033 C 
BRANCH   9  17
ATOM     17  C   UNL     1       7.448   6.686  24.203  0.00  0.00    +0.310 C 
ATOM     18  O   UNL     1       8.090   7.108  25.155  0.00  0.00    -0.251 OA
BRANCH  17  20
ATOM     19  C   UNL     1       5.449   6.347  25.366  0.00  0.00    +0.280 C 
ATOM     20  O   UNL     1       6.089   6.681  24.131  0.00  0.00    -0.468 OA
ENDBRANCH  17  20
ENDBRANCH   9  17
ENDBRANCH   3  13
ENDBRANCH   1   6
BRANCH   1  21
ATOM     21  C   UNL     1       7.937  -3.952  22.586  0.00  0.00    +0.161 C 
BRANCH  21  22
ATOM     22  C   UNL     1       7.795  -4.480  23.996  0.00  0.00    +0.077 A 
ATOM     23  C   UNL     1       8.657  -4.117  25.014  0.00  0.00    +0.138 A 
ATOM     24  N   UNL     1       8.497  -4.522  26.300  0.00  0.00    -0.232 NA
ATOM     25  C   UNL     1       7.427  -5.268  26.596  0.00  0.00    +0.185 A 
ATOM     26  C   UNL     1       6.540  -5.625  25.575  0.00  0.00    +0.148 A 
ATOM     27  C   UNL     1       5.460  -6.384  26.014  0.00  0.00    +0.149 A 
ATOM     28  N   UNL     1       5.264  -6.743  27.291  0.00  0.00    -0.198 NA
ATOM     29  C   UNL     1       6.168  -6.319  28.170  0.00  0.00    +0.216 A 
ATOM     30  N   UNL     1       5.967  -6.638  29.494  0.00  0.00    -0.327 N 
ATOM     31  H   UNL     1       6.833  -6.611  30.013  0.00  0.00    +0.145 HD
ATOM     32  H   UNL     1       5.373  -7.447  29.595  0.00  0.00    +0.145 HD
ATOM     33  N   UNL     1       7.256  -5.621  27.866  0.00  0.00    -0.193 NA
ATOM     34  N   UNL     1       6.721  -5.259  24.267  0.00  0.00    -0.242 NA
BRANCH  27  35
ATOM     35  N   UNL     1       4.433  -6.738  25.122  0.00  0.00    -0.341 N 
ATOM     36  H   UNL     1       4.829  -7.148  24.284  0.00  0.00    +0.144 HD
ATOM     37  H   UNL     1       3.784  -5.974  24.968  0.00  0.00    +0.144 HD
ENDBRANCH  27  35
ENDBRANCH  21  22
ENDBRANCH   1  21
TORSDOF 7
ENDMDL
MODEL 6
REMARK VINA RESULT:      -7.1      4.521      8.899
REMARK  Name = 
REMARK  9 active torsions:
REMARK  status: ('A' for Active; 'I' for Inactive)
REMARK    1  A    between atoms: C_1  and  O_2
REMARK    2  A    between atoms: O_2  and  C_3
REMARK    3  A    between atoms: C_3  and  C_5
REMARK    4  A    between atoms: C_11  and  C_13
REMARK    5  A    between atoms: C_16  and  N_19
REMARK    6  A    between atoms: N_19  and  C_20
REMARK    7  A    between atoms: N_19  and  C_21
REMARK    8  A    between atoms: C_21  and  C_22
REMARK    9  A    between atoms: C_25  and  N_26
REMARK                            x       y       z     vdW  Elec       q    Type
REMARK                         _______ _______ _______ _____ _____    ______ ____
ROOT
ATOM      1  N   UNL     1       8.319  -4.466  24.813  0.00  0.00    -0.327 N 
ATOM      2  C   UNL     1       9.444  -5.107  25.495  0.00  0.00    +0.129 C 
ENDROOT
BRANCH   1   6
ATOM      3  C   UNL     1       8.696  -0.671  22.941  0.00  0.00    +0.037 A 
ATOM      4  C   UNL     1       7.450  -1.287  23.074  0.00  0.00    +0.015 A 
ATOM      5  C   UNL     1       7.340  -2.543  23.690  0.00  0.00    +0.024 A 
ATOM      6  C   UNL     1       8.462  -3.232  24.182  0.00  0.00    +0.030 A 
ATOM      7  C   UNL     1       9.696  -2.578  24.060  0.00  0.00    +0.024 A 
ATOM      8  C   UNL     1       9.808  -1.301  23.492  0.00  0.00    +0.015 A 
BRANCH   3  13
ATOM      9  C   UNL     1       7.249   4.193  24.226  0.00  0.00    +0.101 C 
ATOM     10  C   UNL     1       7.250   2.819  24.917  0.00  0.00    +0.033 C 
ATOM     11  C   UNL     1       8.451   1.973  24.483  0.00  0.00    +0.109 C 
ATOM     12  N   UNL     1       8.463   1.836  23.027  0.00  0.00    -0.297 N 
ATOM     13  C   UNL     1       8.757   0.674  22.303  0.00  0.00    +0.247 C 
ATOM     14  O   UNL     1       9.068   0.706  21.111  0.00  0.00    -0.270 OA
ATOM     15  C   UNL     1       8.528   3.113  22.312  0.00  0.00    +0.109 C 
ATOM     16  C   UNL     1       7.361   4.019  22.705  0.00  0.00    +0.033 C 
BRANCH   9  17
ATOM     17  C   UNL     1       8.357   5.075  24.784  0.00  0.00    +0.310 C 
ATOM     18  O   UNL     1       8.693   5.111  25.960  0.00  0.00    -0.251 OA
BRANCH  17  20
ATOM     19  C   UNL     1      10.322   5.981  23.899  0.00  0.00    +0.280 C 
ATOM     20  O   UNL     1       8.902   5.845  23.803  0.00  0.00    -0.468 OA
ENDBRANCH  17  20
ENDBRANCH   9  17
ENDBRANCH   3  13
ENDBRANCH   1   6
BRANCH   1  21
ATOM     21  C   UNL     1       7.277  -5.382  24.305  0.00  0.00    +0.161 C 
BRANCH  21  22
ATOM     22  C   UNL     1       6.104  -5.544  25.245  0.00  0.00    +0.077 A 
ATOM     23  C   UNL     1       4.799  -5.321  24.846  0.00  0.00    +0.138 A 
ATOM     24  N   UNL     1       3.731  -5.537  25.656  0.00  0.00    -0.232 NA
ATOM     25  C   UNL     1       3.957  -6.032  26.878  0.00  0.00    +0.185 A 
ATOM     26  C   UNL     1       5.274  -6.277  27.282  0.00  0.00    +0.148 A 
ATOM     27  C   UNL     1       5.374  -6.807  28.564  0.00  0.00    +0.149 A 
ATOM     28  N   UNL     1       4.321  -7.075  29.351  0.00  0.00    -0.198 NA
ATOM     29  C   UNL     1       3.120  -6.819  28.840  0.00  0.00    +0.216 A 
ATOM     30  N   UNL     1       2.021  -7.124  29.611  0.00  0.00    -0.327 N 
ATOM     31  H   UNL     1       1.214  -6.585  29.329  0.00  0.00    +0.145 HD
ATOM     32  H   UNL     1       2.255  -7.161  30.592  0.00  0.00    +0.145 HD
ATOM     33  N   UNL     1       2.901  -6.281  27.646  0.00  0.00    -0.193 NA
ATOM     34  N   UNL     1       6.358  -6.017  26.487  0.00  0.00    -0.242 NA
BRANCH  27  35
ATOM     35  N   UNL     1       6.624  -7.196  29.075  0.00  0.00    -0.341 N 
ATOM     36  H   UNL     1       7.355  -6.620  28.674  0.00  0.00    +0.144 HD
ATOM     37  H   UNL     1       6.769  -8.198  29.002  0.00  0.00    +0.144 HD
ENDBRANCH  27  35
ENDBRANCH  21  22
ENDBRANCH   1  21
TORSDOF 7
ENDMDL
MODEL 7
REMARK VINA RESULT:      -7.1      4.048      8.644
REMARK  Name = 
REMARK  9 active torsions:
REMARK  status: ('A' for Active; 'I' for Inactive)
REMARK    1  A    between atoms: C_1  and  O_2
REMARK    2  A    between atoms: O_2  and  C_3
REMARK    3  A    between atoms: C_3  and  C_5
REMARK    4  A    between atoms: C_11  and  C_13
REMARK    5  A    between atoms: C_16  and  N_19
REMARK    6  A    between atoms: N_19  and  C_20
REMARK    7  A    between atoms: N_19  and  C_21
REMARK    8  A    between atoms: C_21  and  C_22
REMARK    9  A    between atoms: C_25  and  N_26
REMARK                            x       y       z     vdW  Elec       q    Type
REMARK                         _______ _______ _______ _____ _____    ______ ____
ROOT
ATOM      1  N   UNL     1       9.286  -2.101  22.931  0.00  0.00    -0.327 N 
ATOM      2  C   UNL     1       8.056  -2.560  22.284  0.00  0.00    +0.129 C 
ENDROOT
BRANCH   1   6
ATOM      3  C   UNL     1      10.242   2.017  23.350  0.00  0.00    +0.037 A 
ATOM      4  C   UNL     1      10.435   1.123  24.404  0.00  0.00    +0.015 A 
ATOM      5  C   UNL     1      10.111  -0.234  24.254  0.00  0.00    +0.024 A 
ATOM      6  C   UNL     1       9.574  -0.744  23.059  0.00  0.00    +0.030 A 
ATOM      7  C   UNL     1       9.416   0.170  22.009  0.00  0.00    +0.024 A 
ATOM      8  C   UNL     1       9.785   1.517  22.132  0.00  0.00    +0.015 A 
BRANCH   3  13
ATOM      9  C   UNL     1       7.740   6.507  24.342  0.00  0.00    +0.101 C 
ATOM     10  C   UNL     1       7.347   5.026  24.210  0.00  0.00    +0.033 C 
ATOM     11  C   UNL     1       8.455   4.102  24.723  0.00  0.00    +0.109 C 
ATOM     12  N   UNL     1       9.705   4.386  24.019  0.00  0.00    -0.297 N 
ATOM     13  C   UNL     1      10.626   3.443  23.549  0.00  0.00    +0.247 C 
ATOM     14  O   UNL     1      11.787   3.746  23.268  0.00  0.00    -0.270 OA
ATOM     15  C   UNL     1      10.166   5.769  24.163  0.00  0.00    +0.109 C 
ATOM     16  C   UNL     1       9.102   6.753  23.678  0.00  0.00    +0.033 C 
BRANCH   9  17
ATOM     17  C   UNL     1       7.729   6.936  25.802  0.00  0.00    +0.310 C 
ATOM     18  O   UNL     1       8.730   7.108  26.485  0.00  0.00    -0.251 OA
BRANCH  17  20
ATOM     19  C   UNL     1       6.303   6.765  27.646  0.00  0.00    +0.280 C 
ATOM     20  O   UNL     1       6.454   7.070  26.257  0.00  0.00    -0.468 OA
ENDBRANCH  17  20
ENDBRANCH   9  17
ENDBRANCH   3  13
ENDBRANCH   1   6
BRANCH   1  21
ATOM     21  C   UNL     1       9.861  -3.024  23.930  0.00  0.00    +0.161 C 
BRANCH  21  22
ATOM     22  C   UNL     1       8.827  -3.875  24.633  0.00  0.00    +0.077 A 
ATOM     23  C   UNL     1       8.699  -3.899  26.010  0.00  0.00    +0.138 A 
ATOM     24  N   UNL     1       7.727  -4.598  26.650  0.00  0.00    -0.232 NA
ATOM     25  C   UNL     1       6.829  -5.253  25.907  0.00  0.00    +0.185 A 
ATOM     26  C   UNL     1       6.941  -5.219  24.513  0.00  0.00    +0.148 A 
ATOM     27  C   UNL     1       5.938  -5.923  23.855  0.00  0.00    +0.149 A 
ATOM     28  N   UNL     1       4.942  -6.571  24.479  0.00  0.00    -0.198 NA
ATOM     29  C   UNL     1       4.934  -6.506  25.807  0.00  0.00    +0.216 A 
ATOM     30  N   UNL     1       3.899  -7.127  26.469  0.00  0.00    -0.327 N 
ATOM     31  H   UNL     1       4.153  -7.344  27.422  0.00  0.00    +0.145 HD
ATOM     32  H   UNL     1       3.482  -7.853  25.906  0.00  0.00    +0.145 HD
ATOM     33  N   UNL     1       5.856  -5.897  26.544  0.00  0.00    -0.193 NA
ATOM     34  N   UNL     1       7.947  -4.555  23.862  0.00  0.00    -0.242 NA
BRANCH  27  35
ATOM     35  N   UNL     1       5.861  -5.902  22.452  0.00  0.00    -0.341 N 
ATOM     36  H   UNL     1       5.241  -6.636  22.129  0.00  0.00    +0.144 HD
ATOM     37  H   UNL     1       6.779  -5.885  22.021  0.00  0.00    +0.144 HD
ENDBRANCH  27  35
ENDBRANCH  21  22
ENDBRANCH   1  21
TORSDOF 7
ENDMDL
MODEL 8
REMARK VINA RESULT:      -7.0      3.887      8.013
REMARK  Name = 
REMARK  9 active torsions:
REMARK  status: ('A' for Active; 'I' for Inactive)
REMARK    1  A    between atoms: C_1  and  O_2
REMARK    2  A    between atoms: O_2  and  C_3
REMARK    3  A    between atoms: C_3  and  C_5
REMARK    4  A    between atoms: C_11  and  C_13
REMARK    5  A    between atoms: C_16  and  N_19
REMARK    6  A    between atoms: N_19  and  C_20
REMARK    7  A    between atoms: N_19  and  C_21
REMARK    8  A    between atoms: C_21  and  C_22
REMARK    9  A    between atoms: C_25  and  N_26
REMARK                            x       y       z     vdW  Elec       q    Type
REMARK                         _______ _______ _______ _____ _____    ______ ____
ROOT
ATOM      1  N   UNL     1       8.813  -4.474  24.968  0.00  0.00    -0.327 N 
ATOM      2  C   UNL     1       9.601  -5.254  25.923  0.00  0.00    +0.129 C 
ENDROOT
BRANCH   1   6
ATOM      3  C   UNL     1       9.294  -0.279  24.504  0.00  0.00    +0.037 A 
ATOM      4  C   UNL     1       9.584  -1.156  23.458  0.00  0.00    +0.015 A 
ATOM      5  C   UNL     1       9.425  -2.540  23.627  0.00  0.00    +0.024 A 
ATOM      6  C   UNL     1       8.986  -3.098  24.840  0.00  0.00    +0.030 A 
ATOM      7  C   UNL     1       8.675  -2.192  25.863  0.00  0.00    +0.024 A 
ATOM      8  C   UNL     1       8.781  -0.805  25.688  0.00  0.00    +0.015 A 
BRANCH   3  13
ATOM      9  C   UNL     1       6.474   3.518  22.261  0.00  0.00    +0.101 C 
ATOM     10  C   UNL     1       6.274   2.025  22.568  0.00  0.00    +0.033 C 
ATOM     11  C   UNL     1       6.966   1.622  23.873  0.00  0.00    +0.109 C 
ATOM     12  N   UNL     1       8.386   1.967  23.811  0.00  0.00    -0.297 N 
ATOM     13  C   UNL     1       9.452   1.184  24.268  0.00  0.00    +0.247 C 
ATOM     14  O   UNL     1      10.568   1.660  24.485  0.00  0.00    -0.270 OA
ATOM     15  C   UNL     1       8.641   3.391  23.586  0.00  0.00    +0.109 C 
ATOM     16  C   UNL     1       7.968   3.870  22.300  0.00  0.00    +0.033 C 
BRANCH   9  17
ATOM     17  C   UNL     1       5.660   4.377  23.219  0.00  0.00    +0.310 C 
ATOM     18  O   UNL     1       4.701   3.978  23.868  0.00  0.00    -0.251 OA
BRANCH  17  20
ATOM     19  C   UNL     1       5.179   6.612  22.735  0.00  0.00    +0.280 C 
ATOM     20  O   UNL     1       6.120   5.657  23.231  0.00  0.00    -0.468 OA
ENDBRANCH  17  20
ENDBRANCH   9  17
ENDBRANCH   3  13
ENDBRANCH   1   6
BRANCH   1  21
ATOM     21  C   UNL     1       8.320  -5.219  23.793  0.00  0.00    +0.161 C 
BRANCH  21  22
ATOM     22  C   UNL     1       6.818  -5.159  23.624  0.00  0.00    +0.077 A 
ATOM     23  C   UNL     1       6.219  -4.603  22.509  0.00  0.00    +0.138 A 
ATOM     24  N   UNL     1       4.877  -4.611  22.309  0.00  0.00    -0.232 NA
ATOM     25  C   UNL     1       4.108  -5.227  23.214  0.00  0.00    +0.185 A 
ATOM     26  C   UNL     1       4.708  -5.807  24.337  0.00  0.00    +0.148 A 
ATOM     27  C   UNL     1       3.806  -6.431  25.191  0.00  0.00    +0.149 A 
ATOM     28  N   UNL     1       2.484  -6.491  24.974  0.00  0.00    -0.198 NA
ATOM     29  C   UNL     1       2.041  -5.921  23.857  0.00  0.00    +0.216 A 
ATOM     30  N   UNL     1       0.694  -6.006  23.589  0.00  0.00    -0.327 N 
ATOM     31  H   UNL     1       0.398  -5.271  22.961  0.00  0.00    +0.145 HD
ATOM     32  H   UNL     1       0.158  -6.163  24.429  0.00  0.00    +0.145 HD
ATOM     33  N   UNL     1       2.800  -5.267  22.985  0.00  0.00    -0.193 NA
ATOM     34  N   UNL     1       6.058  -5.762  24.568  0.00  0.00    -0.242 NA
BRANCH  27  35
ATOM     35  N   UNL     1       4.267  -7.142  26.312  0.00  0.00    -0.341 N 
ATOM     36  H   UNL     1       3.501  -7.314  26.952  0.00  0.00    +0.144 HD
ATOM     37  H   UNL     1       5.089  -6.713  26.723  0.00  0.00    +0.144 HD
ENDBRANCH  27  35
ENDBRANCH  21  22
ENDBRANCH   1  21
TORSDOF 7
ENDMDL
MODEL 9
REMARK VINA RESULT:      -7.0      4.006      8.349
REMARK  Name = 
REMARK  9 active torsions:
REMARK  status: ('A' for Active; 'I' for Inactive)
REMARK    1  A    between atoms: C_1  and  O_2
REMARK    2  A    between atoms: O_2  and  C_3
REMARK    3  A    between atoms: C_3  and  C_5
REMARK    4  A    between atoms: C_11  and  C_13
REMARK    5  A    between atoms: C_16  and  N_19
REMARK    6  A    between atoms: N_19  and  C_20
REMARK    7  A    between atoms: N_19  and  C_21
REMARK    8  A    between atoms: C_21  and  C_22
REMARK    9  A    between atoms: C_25  and  N_26
REMARK                            x       y       z     vdW  Elec       q    Type
REMARK                         _______ _______ _______ _____ _____    ______ ____
ROOT
ATOM      1  N   UNL     1       9.436  -2.185  23.120  0.00  0.00    -0.327 N 
ATOM      2  C   UNL     1       8.211  -2.651  22.467  0.00  0.00    +0.129 C 
ENDROOT
BRANCH   1   6
ATOM      3  C   UNL     1      10.239   1.975  23.433  0.00  0.00    +0.037 A 
ATOM      4  C   UNL     1       9.813   1.413  22.228  0.00  0.00    +0.015 A 
ATOM      5  C   UNL     1       9.556   0.037  22.138  0.00  0.00    +0.024 A 
ATOM      6  C   UNL     1       9.724  -0.827  23.234  0.00  0.00    +0.030 A 
ATOM      7  C   UNL     1      10.126  -0.232  24.438  0.00  0.00    +0.024 A 
ATOM      8  C   UNL     1      10.336   1.150  24.551  0.00  0.00    +0.015 A 
BRANCH   3  13
ATOM      9  C   UNL     1       7.261   6.276  23.618  0.00  0.00    +0.101 C 
ATOM     10  C   UNL     1       7.016   4.758  23.637  0.00  0.00    +0.033 C 
ATOM     11  C   UNL     1       8.142   4.016  24.363  0.00  0.00    +0.109 C 
ATOM     12  N   UNL     1       9.429   4.339  23.748  0.00  0.00    -0.297 N 
ATOM     13  C   UNL     1      10.474   3.445  23.487  0.00  0.00    +0.247 C 
ATOM     14  O   UNL     1      11.627   3.828  23.279  0.00  0.00    -0.270 OA
ATOM     15  C   UNL     1       9.749   5.769  23.759  0.00  0.00    +0.109 C 
ATOM     16  C   UNL     1       8.658   6.578  23.058  0.00  0.00    +0.033 C 
BRANCH   9  17
ATOM     17  C   UNL     1       7.061   6.869  25.005  0.00  0.00    +0.310 C 
ATOM     18  O   UNL     1       7.962   7.107  25.798  0.00  0.00    -0.251 OA
BRANCH  17  20
ATOM     19  C   UNL     1       5.208   6.195  26.262  0.00  0.00    +0.280 C 
ATOM     20  O   UNL     1       5.739   7.067  25.260  0.00  0.00    -0.468 OA
ENDBRANCH  17  20
ENDBRANCH   9  17
ENDBRANCH   3  13
ENDBRANCH   1   6
BRANCH   1  21
ATOM     21  C   UNL     1      10.001  -3.096  24.135  0.00  0.00    +0.161 C 
BRANCH  21  22
ATOM     22  C   UNL     1       8.951  -3.843  24.929  0.00  0.00    +0.077 A 
ATOM     23  C   UNL     1       9.011  -5.209  25.135  0.00  0.00    +0.138 A 
ATOM     24  N   UNL     1       8.119  -5.880  25.908  0.00  0.00    -0.232 NA
ATOM     25  C   UNL     1       7.170  -5.174  26.533  0.00  0.00    +0.185 A 
ATOM     26  C   UNL     1       7.114  -3.789  26.343  0.00  0.00    +0.148 A 
ATOM     27  C   UNL     1       6.096  -3.169  27.059  0.00  0.00    +0.149 A 
ATOM     28  N   UNL     1       5.245  -3.816  27.869  0.00  0.00    -0.198 NA
ATOM     29  C   UNL     1       5.419  -5.130  27.982  0.00  0.00    +0.216 A 
ATOM     30  N   UNL     1       4.586  -5.812  28.839  0.00  0.00    -0.327 N 
ATOM     31  H   UNL     1       4.534  -6.792  28.598  0.00  0.00    +0.145 HD
ATOM     32  H   UNL     1       3.724  -5.311  28.996  0.00  0.00    +0.145 HD
ATOM     33  N   UNL     1       6.331  -5.836  27.322  0.00  0.00    -0.193 NA
ATOM     34  N   UNL     1       7.982  -3.112  25.527  0.00  0.00    -0.242 NA
BRANCH  27  35
ATOM     35  N   UNL     1       5.972  -1.769  27.048  0.00  0.00    -0.341 N 
ATOM     36  H   UNL     1       6.628  -1.370  26.387  0.00  0.00    +0.144 HD
ATOM     37  H   UNL     1       6.002  -1.377  27.983  0.00  0.00    +0.144 HD
ENDBRANCH  27  35
ENDBRANCH  21  22
ENDBRANCH   1  21
TORSDOF 7
ENDMDL
