MODEL 1
REMARK VINA RESULT:      -8.3      0.000      0.000
REMARK  Name = 
REMARK  10 active torsions:
REMARK  status: ('A' for Active; 'I' for Inactive)
REMARK    1  A    between atoms: C_1  and  C_2
REMARK    2  A    between atoms: C_2  and  C_3
REMARK    3  A    between atoms: C_4  and  C_5
REMARK    4  A    between atoms: C_5  and  C_6
REMARK    5  A    between atoms: C_10  and  N_14
REMARK    6  A    between atoms: N_14  and  C_15
REMARK    7  A    between atoms: C_15  and  C_16
REMARK    8  A    between atoms: C_16  and  O_18
REMARK    9  A    between atoms: C_16  and  C_19
REMARK   10  A    between atoms: C_27  and  O_28
REMARK                            x       y       z     vdW  Elec       q    Type
REMARK                         _______ _______ _______ _____ _____    ______ ____
ROOT
ATOM      1  C   UNL     1       7.239  -5.298  26.750  0.00  0.00    +0.159 C 
ENDROOT
BRANCH   1   2
ATOM      2  C   UNL     1       6.132  -5.890  25.886  0.00  0.00    -0.009 A 
ATOM      3  C   UNL     1       5.085  -6.594  26.518  0.00  0.00    +0.010 A 
ATOM      4  C   UNL     1       4.043  -7.169  25.786  0.00  0.00    +0.048 A 
ATOM      5  C   UNL     1       4.041  -7.074  24.405  0.00  0.00    +0.141 A 
ATOM      6  C   UNL     1       5.058  -6.380  23.739  0.00  0.00    +0.091 A 
ATOM      7  N   UNL     1       5.051  -6.282  22.341  0.00  0.00    -0.319 N 
ATOM      8  H   UNL     1       4.330  -6.696  21.768  0.00  0.00    +0.169 HD
ATOM      9  C   UNL     1       6.009  -5.631  21.617  0.00  0.00    +0.249 A 
ATOM     10  O   UNL     1       5.992  -5.586  20.390  0.00  0.00    -0.268 OA
ATOM     11  C   UNL     1       7.072  -4.956  22.376  0.00  0.00    +0.071 A 
ATOM     12  C   UNL     1       7.112  -5.013  23.714  0.00  0.00    +0.016 A 
ATOM     13  C   UNL     1       6.105  -5.770  24.475  0.00  0.00    +0.008 A 
BRANCH   5  14
ATOM     14  O   UNL     1       3.001  -7.685  23.765  0.00  0.00    -0.505 OA
ATOM     15  H   UNL     1       3.045  -8.640  23.911  0.00  0.00    +0.292 HD
ENDBRANCH   5  14
ENDBRANCH   1   2
BRANCH   1  16
ATOM     16  O   UNL     1       8.522  -5.830  26.369  0.00  0.00    -0.386 OA
ATOM     17  H   UNL     1       8.596  -6.697  26.807  0.00  0.00    +0.210 HD
ENDBRANCH   1  16
BRANCH   1  18
ATOM     18  C   UNL     1       7.316  -3.735  26.783  0.00  0.00    +0.117 C 
BRANCH  18  19
ATOM     19  N   UNL     1       8.628  -3.172  26.388  0.00  0.00    -0.310 NA
ATOM     20  H   UNL     1       9.017  -2.790  27.260  0.00  0.00    +0.122 HD
BRANCH  19  26
ATOM     21  C   UNL     1       8.030   1.251  22.310  0.00  0.00    -0.044 A 
ATOM     22  C   UNL     1       7.141   0.398  23.008  0.00  0.00    +0.007 A 
ATOM     23  C   UNL     1       7.668  -0.698  23.687  0.00  0.00    -0.042 A 
ATOM     24  C   UNL     1       8.994  -1.077  23.467  0.00  0.00    -0.042 A 
ATOM     25  C   UNL     1       9.296  -2.356  24.171  0.00  0.00    +0.054 C 
ATOM     26  C   UNL     1       8.504  -2.045  25.448  0.00  0.00    +0.062 C 
ATOM     27  C   UNL     1       9.899  -0.189  22.937  0.00  0.00    +0.007 A 
ATOM     28  C   UNL     1       7.129  -1.547  24.839  0.00  0.00    +0.054 C 
ATOM     29  C   UNL     1       9.431   1.034  22.450  0.00  0.00    -0.044 A 
BRANCH  21  31
ATOM     30  C   UNL     1       7.037   3.663  22.086  0.00  0.00    +0.009 C 
ATOM     31  C   UNL     1       7.584   2.406  21.429  0.00  0.00    +0.032 C 
ENDBRANCH  21  31
BRANCH  29  32
ATOM     32  C   UNL     1      10.459   2.132  22.247  0.00  0.00    +0.032 C 
ATOM     33  C   UNL     1      10.634   2.967  23.519  0.00  0.00    +0.009 C 
ENDBRANCH  29  32
ENDBRANCH  19  26
ENDBRANCH  18  19
ENDBRANCH   1  18
TORSDOF 8
ENDMDL
MODEL 2
REMARK VINA RESULT:      -7.9      0.663      2.341
REMARK  Name = 
REMARK  10 active torsions:
REMARK  status: ('A' for Active; 'I' for Inactive)
REMARK    1  A    between atoms: C_1  and  C_2
REMARK    2  A    between atoms: C_2  and  C_3
REMARK    3  A    between atoms: C_4  and  C_5
REMARK    4  A    between atoms: C_5  and  C_6
REMARK    5  A    between atoms: C_10  and  N_14
REMARK    6  A    between atoms: N_14  and  C_15
REMARK    7  A    between atoms: C_15  and  C_16
REMARK    8  A    between atoms: C_16  and  O_18
REMARK    9  A    between atoms: C_16  and  C_19
REMARK   10  A    between atoms: C_27  and  O_28
REMARK                            x       y       z     vdW  Elec       q    Type
REMARK                         _______ _______ _______ _____ _____    ______ ____
ROOT
ATOM      1  C   UNL     1       7.208  -5.271  26.289  0.00  0.00    +0.159 C 
ENDROOT
BRANCH   1   2
ATOM      2  C   UNL     1       6.757  -5.452  24.845  0.00  0.00    -0.009 A 
ATOM      3  C   UNL     1       7.684  -5.197  23.811  0.00  0.00    +0.010 A 
ATOM      4  C   UNL     1       7.334  -5.335  22.465  0.00  0.00    +0.048 A 
ATOM      5  C   UNL     1       6.044  -5.703  22.125  0.00  0.00    +0.141 A 
ATOM      6  C   UNL     1       5.096  -5.970  23.120  0.00  0.00    +0.091 A 
ATOM      7  N   UNL     1       3.792  -6.348  22.773  0.00  0.00    -0.319 N 
ATOM      8  H   UNL     1       3.487  -6.443  21.815  0.00  0.00    +0.169 HD
ATOM      9  C   UNL     1       2.808  -6.617  23.681  0.00  0.00    +0.249 A 
ATOM     10  O   UNL     1       1.666  -6.918  23.348  0.00  0.00    -0.268 OA
ATOM     11  C   UNL     1       3.179  -6.550  25.102  0.00  0.00    +0.071 A 
ATOM     12  C   UNL     1       4.417  -6.205  25.481  0.00  0.00    +0.016 A 
ATOM     13  C   UNL     1       5.448  -5.860  24.489  0.00  0.00    +0.008 A 
BRANCH   5  14
ATOM     14  O   UNL     1       5.779  -5.789  20.789  0.00  0.00    -0.505 OA
ATOM     15  H   UNL     1       5.087  -5.157  20.552  0.00  0.00    +0.292 HD
ENDBRANCH   5  14
ENDBRANCH   1   2
BRANCH   1  16
ATOM     16  O   UNL     1       8.457  -5.952  26.522  0.00  0.00    -0.386 OA
ATOM     17  H   UNL     1       8.730  -6.317  25.660  0.00  0.00    +0.210 HD
ENDBRANCH   1  16
BRANCH   1  18
ATOM     18  C   UNL     1       7.326  -3.792  26.787  0.00  0.00    +0.117 C 
BRANCH  18  19
ATOM     19  N   UNL     1       8.624  -3.142  26.493  0.00  0.00    -0.310 NA
ATOM     20  H   UNL     1       8.914  -2.731  27.389  0.00  0.00    +0.122 HD
BRANCH  19  26
ATOM     21  C   UNL     1       8.027   1.218  22.346  0.00  0.00    -0.044 A 
ATOM     22  C   UNL     1       7.139   0.363  23.044  0.00  0.00    +0.007 A 
ATOM     23  C   UNL     1       7.670  -0.717  23.745  0.00  0.00    -0.042 A 
ATOM     24  C   UNL     1       9.004  -1.082  23.548  0.00  0.00    -0.042 A 
ATOM     25  C   UNL     1       9.312  -2.348  24.273  0.00  0.00    +0.054 C 
ATOM     26  C   UNL     1       8.498  -2.029  25.536  0.00  0.00    +0.062 C 
ATOM     27  C   UNL     1       9.905  -0.191  23.018  0.00  0.00    +0.007 A 
ATOM     28  C   UNL     1       7.126  -1.556  24.902  0.00  0.00    +0.054 C 
ATOM     29  C   UNL     1       9.429   1.020  22.507  0.00  0.00    -0.044 A 
BRANCH  21  31
ATOM     30  C   UNL     1       6.984   3.603  22.074  0.00  0.00    +0.009 C 
ATOM     31  C   UNL     1       7.580   2.354  21.443  0.00  0.00    +0.032 C 
ENDBRANCH  21  31
BRANCH  29  32
ATOM     32  C   UNL     1      10.446   2.127  22.304  0.00  0.00    +0.032 C 
ATOM     33  C   UNL     1      10.580   2.992  23.560  0.00  0.00    +0.009 C 
ENDBRANCH  29  32
ENDBRANCH  19  26
ENDBRANCH  18  19
ENDBRANCH   1  18
TORSDOF 8
ENDMDL
MODEL 3
REMARK VINA RESULT:      -7.8      2.191      4.353
REMARK  Name = 
REMARK  10 active torsions:
REMARK  status: ('A' for Active; 'I' for Inactive)
REMARK    1  A    between atoms: C_1  and  C_2
REMARK    2  A    between atoms: C_2  and  C_3
REMARK    3  A    between atoms: C_4  and  C_5
REMARK    4  A    between atoms: C_5  and  C_6
REMARK    5  A    between atoms: C_10  and  N_14
REMARK    6  A    between atoms: N_14  and  C_15
REMARK    7  A    between atoms: C_15  and  C_16
REMARK    8  A    between atoms: C_16  and  O_18
REMARK    9  A    between atoms: C_16  and  C_19
REMARK   10  A    between atoms: C_27  and  O_28
REMARK                            x       y       z     vdW  Elec       q    Type
REMARK                         _______ _______ _______ _____ _____    ______ ____
ROOT
ATOM      1  C   UNL     1       8.745  -2.827  23.939  0.00  0.00    +0.159 C 
ENDROOT
BRANCH   1   2
ATOM      2  C   UNL     1       7.670  -3.894  23.771  0.00  0.00    -0.009 A 
ATOM      3  C   UNL     1       7.178  -4.159  22.474  0.00  0.00    +0.010 A 
ATOM      4  C   UNL     1       6.187  -5.118  22.250  0.00  0.00    +0.048 A 
ATOM      5  C   UNL     1       5.649  -5.812  23.320  0.00  0.00    +0.141 A 
ATOM      6  C   UNL     1       6.113  -5.584  24.621  0.00  0.00    +0.091 A 
ATOM      7  N   UNL     1       5.569  -6.291  25.701  0.00  0.00    -0.319 N 
ATOM      8  H   UNL     1       4.839  -6.981  25.592  0.00  0.00    +0.169 HD
ATOM      9  C   UNL     1       5.959  -6.121  26.999  0.00  0.00    +0.249 A 
ATOM     10  O   UNL     1       5.445  -6.735  27.929  0.00  0.00    -0.268 OA
ATOM     11  C   UNL     1       7.053  -5.170  27.245  0.00  0.00    +0.071 A 
ATOM     12  C   UNL     1       7.611  -4.480  26.241  0.00  0.00    +0.016 A 
ATOM     13  C   UNL     1       7.136  -4.632  24.856  0.00  0.00    +0.008 A 
BRANCH   5  14
ATOM     14  O   UNL     1       4.668  -6.712  23.016  0.00  0.00    -0.505 OA
ATOM     15  H   UNL     1       4.318  -7.100  23.830  0.00  0.00    +0.292 HD
ENDBRANCH   5  14
ENDBRANCH   1   2
BRANCH   1  16
ATOM     16  O   UNL     1      10.046  -3.430  24.067  0.00  0.00    -0.386 OA
ATOM     17  H   UNL     1      10.631  -2.945  23.458  0.00  0.00    +0.210 HD
ENDBRANCH   1  16
BRANCH   1  18
ATOM     18  C   UNL     1       8.792  -1.727  22.827  0.00  0.00    +0.117 C 
BRANCH  18  19
ATOM     19  N   UNL     1       7.886  -0.577  23.056  0.00  0.00    -0.310 NA
ATOM     20  H   UNL     1       7.303  -0.537  22.211  0.00  0.00    +0.122 HD
BRANCH  19  26
ATOM     21  C   UNL     1      10.992   4.579  23.638  0.00  0.00    -0.044 A 
ATOM     22  C   UNL     1      11.305   3.251  23.259  0.00  0.00    +0.007 A 
ATOM     23  C   UNL     1      10.365   2.251  23.498  0.00  0.00    -0.042 A 
ATOM     24  C   UNL     1       9.264   2.518  24.314  0.00  0.00    -0.042 A 
ATOM     25  C   UNL     1       8.480   1.273  24.558  0.00  0.00    +0.054 C 
ATOM     26  C   UNL     1       8.606   0.706  23.136  0.00  0.00    +0.062 C 
ATOM     27  C   UNL     1       8.860   3.810  24.549  0.00  0.00    +0.007 A 
ATOM     28  C   UNL     1      10.161   0.867  22.882  0.00  0.00    +0.054 C 
ATOM     29  C   UNL     1       9.677   4.857  24.114  0.00  0.00    -0.044 A 
BRANCH  21  31
ATOM     30  C   UNL     1      13.156   5.634  22.612  0.00  0.00    +0.009 C 
ATOM     31  C   UNL     1      11.966   5.741  23.552  0.00  0.00    +0.032 C 
ENDBRANCH  21  31
BRANCH  29  32
ATOM     32  C   UNL     1       9.042   6.232  24.023  0.00  0.00    +0.032 C 
ATOM     33  C   UNL     1       8.189   6.365  22.758  0.00  0.00    +0.009 C 
ENDBRANCH  29  32
ENDBRANCH  19  26
ENDBRANCH  18  19
ENDBRANCH   1  18
TORSDOF 8
ENDMDL
MODEL 4
REMARK VINA RESULT:      -7.7      2.551      4.672
REMARK  Name = 
REMARK  10 active torsions:
REMARK  status: ('A' for Active; 'I' for Inactive)
REMARK    1  A    between atoms: C_1  and  C_2
REMARK    2  A    between atoms: C_2  and  C_3
REMARK    3  A    between atoms: C_4  and  C_5
REMARK    4  A    between atoms: C_5  and  C_6
REMARK    5  A    between atoms: C_10  and  N_14
REMARK    6  A    between atoms: N_14  and  C_15
REMARK    7  A    between atoms: C_15  and  C_16
REMARK    8  A    between atoms: C_16  and  O_18
REMARK    9  A    between atoms: C_16  and  C_19
REMARK   10  A    between atoms: C_27  and  O_28
REMARK                            x       y       z     vdW  Elec       q    Type
REMARK                         _______ _______ _______ _____ _____    ______ ____
ROOT
ATOM      1  C   UNL     1       9.969  -1.878  22.997  0.00  0.00    +0.159 C 
ENDROOT
BRANCH   1   2
ATOM      2  C   UNL     1       8.581  -2.459  23.245  0.00  0.00    -0.009 A 
ATOM      3  C   UNL     1       7.517  -2.042  22.417  0.00  0.00    +0.010 A 
ATOM      4  C   UNL     1       6.219  -2.528  22.594  0.00  0.00    +0.048 A 
ATOM      5  C   UNL     1       5.954  -3.419  23.620  0.00  0.00    +0.141 A 
ATOM      6  C   UNL     1       6.982  -3.862  24.460  0.00  0.00    +0.091 A 
ATOM      7  N   UNL     1       6.711  -4.768  25.494  0.00  0.00    -0.319 N 
ATOM      8  H   UNL     1       5.787  -5.133  25.673  0.00  0.00    +0.169 HD
ATOM      9  C   UNL     1       7.655  -5.241  26.361  0.00  0.00    +0.249 A 
ATOM     10  O   UNL     1       7.384  -6.013  27.277  0.00  0.00    -0.268 OA
ATOM     11  C   UNL     1       9.040  -4.798  26.143  0.00  0.00    +0.071 A 
ATOM     12  C   UNL     1       9.348  -3.942  25.159  0.00  0.00    +0.016 A 
ATOM     13  C   UNL     1       8.308  -3.396  24.272  0.00  0.00    +0.008 A 
BRANCH   5  14
ATOM     14  O   UNL     1       4.656  -3.824  23.739  0.00  0.00    -0.505 OA
ATOM     15  H   UNL     1       4.091  -3.060  23.915  0.00  0.00    +0.292 HD
ENDBRANCH   5  14
ENDBRANCH   1   2
BRANCH   1  16
ATOM     16  O   UNL     1      10.152  -1.576  21.601  0.00  0.00    -0.386 OA
ATOM     17  H   UNL     1       9.311  -1.192  21.295  0.00  0.00    +0.210 HD
ENDBRANCH   1  16
BRANCH   1  18
ATOM     18  C   UNL     1      10.344  -0.622  23.852  0.00  0.00    +0.117 C 
BRANCH  18  19
ATOM     19  N   UNL     1       9.231  -0.066  24.655  0.00  0.00    -0.310 NA
ATOM     20  H   UNL     1       8.433  -0.681  24.451  0.00  0.00    +0.122 HD
BRANCH  19  26
ATOM     21  C   UNL     1       7.784   5.443  22.626  0.00  0.00    -0.044 A 
ATOM     22  C   UNL     1       7.390   4.119  22.315  0.00  0.00    +0.007 A 
ATOM     23  C   UNL     1       8.145   3.064  22.821  0.00  0.00    -0.042 A 
ATOM     24  C   UNL     1       9.390   3.319  23.401  0.00  0.00    -0.042 A 
ATOM     25  C   UNL     1      10.086   2.042  23.730  0.00  0.00    +0.054 C 
ATOM     26  C   UNL     1       8.843   1.289  24.227  0.00  0.00    +0.062 C 
ATOM     27  C   UNL     1       9.709   4.576  23.853  0.00  0.00    +0.007 A 
ATOM     28  C   UNL     1       7.817   1.590  23.058  0.00  0.00    +0.054 C 
ATOM     29  C   UNL     1       8.846   5.635  23.558  0.00  0.00    -0.044 A 
BRANCH  21  31
ATOM     30  C   UNL     1       5.650   6.922  22.293  0.00  0.00    +0.009 C 
ATOM     31  C   UNL     1       7.131   6.685  22.044  0.00  0.00    +0.032 C 
ENDBRANCH  21  31
BRANCH  29  32
ATOM     32  C   UNL     1       9.000   6.898  24.383  0.00  0.00    +0.032 C 
ATOM     33  C   UNL     1      10.012   6.700  25.516  0.00  0.00    +0.009 C 
ENDBRANCH  29  32
ENDBRANCH  19  26
ENDBRANCH  18  19
ENDBRANCH   1  18
TORSDOF 8
ENDMDL
MODEL 5
REMARK VINA RESULT:      -7.7      2.980      5.207
REMARK  Name = 
REMARK  10 active torsions:
REMARK  status: ('A' for Active; 'I' for Inactive)
REMARK    1  A    between atoms: C_1  and  C_2
REMARK    2  A    between atoms: C_2  and  C_3
REMARK    3  A    between atoms: C_4  and  C_5
REMARK    4  A    between atoms: C_5  and  C_6
REMARK    5  A    between atoms: C_10  and  N_14
REMARK    6  A    between atoms: N_14  and  C_15
REMARK    7  A    between atoms: C_15  and  C_16
REMARK    8  A    between atoms: C_16  and  O_18
REMARK    9  A    between atoms: C_16  and  C_19
REMARK   10  A    between atoms: C_27  and  O_28
REMARK                            x       y       z     vdW  Elec       q    Type
REMARK                         _______ _______ _______ _____ _____    ______ ____
ROOT
ATOM      1  C   UNL     1       6.438  -1.687  24.506  0.00  0.00    +0.159 C 
ENDROOT
BRANCH   1   2
ATOM      2  C   UNL     1       7.452  -2.756  24.898  0.00  0.00    -0.009 A 
ATOM      3  C   UNL     1       8.704  -2.771  24.246  0.00  0.00    +0.010 A 
ATOM      4  C   UNL     1       9.675  -3.728  24.550  0.00  0.00    +0.048 A 
ATOM      5  C   UNL     1       9.405  -4.705  25.493  0.00  0.00    +0.141 A 
ATOM      6  C   UNL     1       8.178  -4.722  26.166  0.00  0.00    +0.091 A 
ATOM      7  N   UNL     1       7.909  -5.710  27.123  0.00  0.00    -0.319 N 
ATOM      8  H   UNL     1       8.572  -6.432  27.364  0.00  0.00    +0.169 HD
ATOM      9  C   UNL     1       6.736  -5.801  27.816  0.00  0.00    +0.249 A 
ATOM     10  O   UNL     1       6.517  -6.695  28.630  0.00  0.00    -0.268 OA
ATOM     11  C   UNL     1       5.731  -4.758  27.564  0.00  0.00    +0.071 A 
ATOM     12  C   UNL     1       5.950  -3.788  26.666  0.00  0.00    +0.016 A 
ATOM     13  C   UNL     1       7.195  -3.740  25.884  0.00  0.00    +0.008 A 
BRANCH   5  14
ATOM     14  O   UNL     1      10.398  -5.615  25.711  0.00  0.00    -0.505 OA
ATOM     15  H   UNL     1      10.969  -5.309  26.429  0.00  0.00    +0.292 HD
ENDBRANCH   5  14
ENDBRANCH   1   2
BRANCH   1  16
ATOM     16  O   UNL     1       6.146  -0.828  25.625  0.00  0.00    -0.386 OA
ATOM     17  H   UNL     1       5.905  -1.418  26.363  0.00  0.00    +0.210 HD
ENDBRANCH   1  16
BRANCH   1  18
ATOM     18  C   UNL     1       6.817  -0.810  23.267  0.00  0.00    +0.117 C 
BRANCH  18  19
ATOM     19  N   UNL     1       6.371   0.600  23.347  0.00  0.00    -0.310 NA
ATOM     20  H   UNL     1       5.857   0.757  22.471  0.00  0.00    +0.122 HD
BRANCH  19  26
ATOM     21  C   UNL     1      11.096   4.361  23.641  0.00  0.00    -0.044 A 
ATOM     22  C   UNL     1      10.916   2.994  23.321  0.00  0.00    +0.007 A 
ATOM     23  C   UNL     1       9.693   2.397  23.620  0.00  0.00    -0.042 A 
ATOM     24  C   UNL     1       8.779   3.064  24.439  0.00  0.00    -0.042 A 
ATOM     25  C   UNL     1       7.618   2.182  24.752  0.00  0.00    +0.054 C 
ATOM     26  C   UNL     1       7.495   1.552  23.357  0.00  0.00    +0.062 C 
ATOM     27  C   UNL     1       8.859   4.423  24.619  0.00  0.00    +0.007 A 
ATOM     28  C   UNL     1       9.001   1.148  23.073  0.00  0.00    +0.054 C 
ATOM     29  C   UNL     1       9.976   5.100  24.122  0.00  0.00    -0.044 A 
BRANCH  21  31
ATOM     30  C   UNL     1      12.916   5.423  22.088  0.00  0.00    +0.009 C 
ATOM     31  C   UNL     1      12.412   5.105  23.487  0.00  0.00    +0.032 C 
ENDBRANCH  21  31
BRANCH  29  32
ATOM     32  C   UNL     1       9.859   6.606  23.977  0.00  0.00    +0.032 C 
ATOM     33  C   UNL     1       8.395   7.036  23.840  0.00  0.00    +0.009 C 
ENDBRANCH  29  32
ENDBRANCH  19  26
ENDBRANCH  18  19
ENDBRANCH   1  18
TORSDOF 8
ENDMDL
MODEL 6
REMARK VINA RESULT:      -7.6      2.070      3.772
REMARK  Name = 
REMARK  10 active torsions:
REMARK  status: ('A' for Active; 'I' for Inactive)
REMARK    1  A    between atoms: C_1  and  C_2
REMARK    2  A    between atoms: C_2  and  C_3
REMARK    3  A    between atoms: C_4  and  C_5
REMARK    4  A    between atoms: C_5  and  C_6
REMARK    5  A    between atoms: C_10  and  N_14
REMARK    6  A    between atoms: N_14  and  C_15
REMARK    7  A    between atoms: C_15  and  C_16
REMARK    8  A    between atoms: C_16  and  O_18
REMARK    9  A    between atoms: C_16  and  C_19
REMARK   10  A    between atoms: C_27  and  O_28
REMARK                            x       y       z     vdW  Elec       q    Type
REMARK                         _______ _______ _______ _____ _____    ______ ____
ROOT
ATOM      1  C   UNL     1       8.801  -3.227  24.747  0.00  0.00    +0.159 C 
ENDROOT
BRANCH   1   2
ATOM      2  C   UNL     1       7.708  -4.024  24.044  0.00  0.00    -0.009 A 
ATOM      3  C   UNL     1       7.595  -3.921  22.640  0.00  0.00    +0.010 A 
ATOM      4  C   UNL     1       6.612  -4.617  21.933  0.00  0.00    +0.048 A 
ATOM      5  C   UNL     1       5.705  -5.408  22.617  0.00  0.00    +0.141 A 
ATOM      6  C   UNL     1       5.786  -5.542  24.008  0.00  0.00    +0.091 A 
ATOM      7  N   UNL     1       4.869  -6.347  24.697  0.00  0.00    -0.319 N 
ATOM      8  H   UNL     1       4.130  -6.855  24.233  0.00  0.00    +0.169 HD
ATOM      9  C   UNL     1       4.875  -6.522  26.051  0.00  0.00    +0.249 A 
ATOM     10  O   UNL     1       4.041  -7.213  26.632  0.00  0.00    -0.268 OA
ATOM     11  C   UNL     1       5.949  -5.857  26.804  0.00  0.00    +0.071 A 
ATOM     12  C   UNL     1       6.855  -5.088  26.185  0.00  0.00    +0.016 A 
ATOM     13  C   UNL     1       6.797  -4.861  24.732  0.00  0.00    +0.008 A 
BRANCH   5  14
ATOM     14  O   UNL     1       4.761  -6.033  21.853  0.00  0.00    -0.505 OA
ATOM     15  H   UNL     1       4.989  -6.967  21.753  0.00  0.00    +0.292 HD
ENDBRANCH   5  14
ENDBRANCH   1   2
BRANCH   1  16
ATOM     16  O   UNL     1      10.105  -3.718  24.382  0.00  0.00    -0.386 OA
ATOM     17  H   UNL     1      10.745  -3.076  24.738  0.00  0.00    +0.210 HD
ENDBRANCH   1  16
BRANCH   1  18
ATOM     18  C   UNL     1       8.755  -1.677  24.539  0.00  0.00    +0.117 C 
BRANCH  18  19
ATOM     19  N   UNL     1       9.936  -0.948  25.057  0.00  0.00    -0.310 NA
ATOM     20  H   UNL     1       9.900  -1.089  26.074  0.00  0.00    +0.122 HD
BRANCH  19  26
ATOM     21  C   UNL     1       9.453   4.955  23.840  0.00  0.00    -0.044 A 
ATOM     22  C   UNL     1       8.550   3.920  24.182  0.00  0.00    +0.007 A 
ATOM     23  C   UNL     1       8.998   2.602  24.132  0.00  0.00    -0.042 A 
ATOM     24  C   UNL     1      10.217   2.309  23.517  0.00  0.00    -0.042 A 
ATOM     25  C   UNL     1      10.422   0.834  23.439  0.00  0.00    +0.054 C 
ATOM     26  C   UNL     1       9.853   0.505  24.826  0.00  0.00    +0.062 C 
ATOM     27  C   UNL     1      11.164   3.288  23.332  0.00  0.00    +0.007 A 
ATOM     28  C   UNL     1       8.497   1.322  24.800  0.00  0.00    +0.054 C 
ATOM     29  C   UNL     1      10.816   4.615  23.597  0.00  0.00    -0.044 A 
BRANCH  21  31
ATOM     30  C   UNL     1       7.717   6.782  23.133  0.00  0.00    +0.009 C 
ATOM     31  C   UNL     1       9.067   6.420  23.731  0.00  0.00    +0.032 C 
ENDBRANCH  21  31
BRANCH  29  32
ATOM     32  C   UNL     1      11.955   5.602  23.772  0.00  0.00    +0.032 C 
ATOM     33  C   UNL     1      13.141   5.243  22.872  0.00  0.00    +0.009 C 
ENDBRANCH  29  32
ENDBRANCH  19  26
ENDBRANCH  18  19
ENDBRANCH   1  18
TORSDOF 8
ENDMDL
MODEL 7
REMARK VINA RESULT:      -7.5      2.520      4.393
REMARK  Name = 
REMARK  10 active torsions:
REMARK  status: ('A' for Active; 'I' for Inactive)
REMARK    1  A    between atoms: C_1  and  C_2
REMARK    2  A    between atoms: C_2  and  C_3
REMARK    3  A    between atoms: C_4  and  C_5
REMARK    4  A    between atoms: C_5  and  C_6
REMARK    5  A    between atoms: C_10  and  N_14
REMARK    6  A    between atoms: N_14  and  C_15
REMARK    7  A    between atoms: C_15  and  C_16
REMARK    8  A    between atoms: C_16  and  O_18
REMARK    9  A    between atoms: C_16  and  C_19
REMARK   10  A    between atoms: C_27  and  O_28
REMARK                            x       y       z     vdW  Elec       q    Type
REMARK                         _______ _______ _______ _____ _____    ______ ____
ROOT
ATOM      1  C   UNL     1       5.829  -1.351  25.119  0.00  0.00    +0.159 C 
ENDROOT
BRANCH   1   2
ATOM      2  C   UNL     1       6.778  -2.534  24.970  0.00  0.00    -0.009 A 
ATOM      3  C   UNL     1       7.790  -2.714  25.938  0.00  0.00    +0.010 A 
ATOM      4  C   UNL     1       8.699  -3.772  25.858  0.00  0.00    +0.048 A 
ATOM      5  C   UNL     1       8.632  -4.655  24.794  0.00  0.00    +0.141 A 
ATOM      6  C   UNL     1       7.641  -4.515  23.816  0.00  0.00    +0.091 A 
ATOM      7  N   UNL     1       7.573  -5.414  22.742  0.00  0.00    -0.319 N 
ATOM      8  H   UNL     1       8.218  -6.183  22.631  0.00  0.00    +0.169 HD
ATOM      9  C   UNL     1       6.644  -5.341  21.744  0.00  0.00    +0.249 A 
ATOM     10  O   UNL     1       6.625  -6.127  20.800  0.00  0.00    -0.268 OA
ATOM     11  C   UNL     1       5.633  -4.279  21.853  0.00  0.00    +0.071 A 
ATOM     12  C   UNL     1       5.652  -3.405  22.868  0.00  0.00    +0.016 A 
ATOM     13  C   UNL     1       6.697  -3.461  23.902  0.00  0.00    +0.008 A 
BRANCH   5  14
ATOM     14  O   UNL     1       9.573  -5.644  24.778  0.00  0.00    -0.505 OA
ATOM     15  H   UNL     1       9.617  -6.066  25.647  0.00  0.00    +0.292 HD
ENDBRANCH   5  14
ENDBRANCH   1   2
BRANCH   1  16
ATOM     16  O   UNL     1       5.401  -1.211  26.487  0.00  0.00    -0.386 OA
ATOM     17  H   UNL     1       6.211  -1.239  27.028  0.00  0.00    +0.210 HD
ENDBRANCH   1  16
BRANCH   1  18
ATOM     18  C   UNL     1       6.368   0.024  24.602  0.00  0.00    +0.117 C 
BRANCH  18  19
ATOM     19  N   UNL     1       7.362  -0.073  23.509  0.00  0.00    -0.310 NA
ATOM     20  H   UNL     1       7.935  -0.890  23.754  0.00  0.00    +0.122 HD
BRANCH  19  26
ATOM     21  C   UNL     1      11.221   4.581  23.589  0.00  0.00    -0.044 A 
ATOM     22  C   UNL     1      11.332   3.184  23.389  0.00  0.00    +0.007 A 
ATOM     23  C   UNL     1      10.242   2.377  23.708  0.00  0.00    -0.042 A 
ATOM     24  C   UNL     1       9.178   2.910  24.438  0.00  0.00    -0.042 A 
ATOM     25  C   UNL     1       8.203   1.840  24.798  0.00  0.00    +0.054 C 
ATOM     26  C   UNL     1       8.272   1.085  23.463  0.00  0.00    +0.062 C 
ATOM     27  C   UNL     1       8.976   4.268  24.497  0.00  0.00    +0.007 A 
ATOM     28  C   UNL     1       9.838   0.974  23.257  0.00  0.00    +0.054 C 
ATOM     29  C   UNL     1       9.956   5.115  23.972  0.00  0.00    -0.044 A 
BRANCH  21  31
ATOM     30  C   UNL     1      13.124   5.565  22.084  0.00  0.00    +0.009 C 
ATOM     31  C   UNL     1      12.367   5.561  23.403  0.00  0.00    +0.032 C 
ENDBRANCH  21  31
BRANCH  29  32
ATOM     32  C   UNL     1       9.546   6.547  23.688  0.00  0.00    +0.032 C 
ATOM     33  C   UNL     1       8.255   6.601  22.865  0.00  0.00    +0.009 C 
ENDBRANCH  29  32
ENDBRANCH  19  26
ENDBRANCH  18  19
ENDBRANCH   1  18
TORSDOF 8
ENDMDL
MODEL 8
REMARK VINA RESULT:      -7.5      3.413      7.359
REMARK  Name = 
REMARK  10 active torsions:
REMARK  status: ('A' for Active; 'I' for Inactive)
REMARK    1  A    between atoms: C_1  and  C_2
REMARK    2  A    between atoms: C_2  and  C_3
REMARK    3  A    between atoms: C_4  and  C_5
REMARK    4  A    between atoms: C_5  and  C_6
REMARK    5  A    between atoms: C_10  and  N_14
REMARK    6  A    between atoms: N_14  and  C_15
REMARK    7  A    between atoms: C_15  and  C_16
REMARK    8  A    between atoms: C_16  and  O_18
REMARK    9  A    between atoms: C_16  and  C_19
REMARK   10  A    between atoms: C_27  and  O_28
REMARK                            x       y       z     vdW  Elec       q    Type
REMARK                         _______ _______ _______ _____ _____    ______ ____
ROOT
ATOM      1  C   UNL     1       6.755   2.421  22.824  0.00  0.00    +0.159 C 
ENDROOT
BRANCH   1   2
ATOM      2  C   UNL     1       6.860   2.296  24.339  0.00  0.00    -0.009 A 
ATOM      3  C   UNL     1       7.238   3.432  25.087  0.00  0.00    +0.010 A 
ATOM      4  C   UNL     1       7.361   3.385  26.478  0.00  0.00    +0.048 A 
ATOM      5  C   UNL     1       7.135   2.195  27.146  0.00  0.00    +0.141 A 
ATOM      6  C   UNL     1       6.752   1.046  26.444  0.00  0.00    +0.091 A 
ATOM      7  N   UNL     1       6.519  -0.156  27.125  0.00  0.00    -0.319 N 
ATOM      8  H   UNL     1       6.612  -0.245  28.126  0.00  0.00    +0.169 HD
ATOM      9  C   UNL     1       6.152  -1.321  26.512  0.00  0.00    +0.249 A 
ATOM     10  O   UNL     1       5.981  -2.367  27.132  0.00  0.00    -0.268 OA
ATOM     11  C   UNL     1       5.945  -1.271  25.058  0.00  0.00    +0.071 A 
ATOM     12  C   UNL     1       6.144  -0.140  24.367  0.00  0.00    +0.016 A 
ATOM     13  C   UNL     1       6.599   1.090  25.035  0.00  0.00    +0.008 A 
BRANCH   5  14
ATOM     14  O   UNL     1       7.302   2.229  28.501  0.00  0.00    -0.505 OA
ATOM     15  H   UNL     1       6.610   1.705  28.928  0.00  0.00    +0.292 HD
ENDBRANCH   5  14
ENDBRANCH   1   2
BRANCH   1  16
ATOM     16  O   UNL     1       5.506   3.032  22.448  0.00  0.00    -0.386 OA
ATOM     17  H   UNL     1       4.977   3.091  23.265  0.00  0.00    +0.210 HD
ENDBRANCH   1  16
BRANCH   1  18
ATOM     18  C   UNL     1       7.933   3.175  22.120  0.00  0.00    +0.117 C 
BRANCH  18  19
ATOM     19  N   UNL     1       9.066   2.311  21.716  0.00  0.00    -0.310 NA
ATOM     20  H   UNL     1       8.930   2.162  20.708  0.00  0.00    +0.122 HD
BRANCH  19  26
ATOM     21  C   UNL     1       9.163  -3.207  24.188  0.00  0.00    -0.044 A 
ATOM     22  C   UNL     1       9.893  -2.007  24.372  0.00  0.00    +0.007 A 
ATOM     23  C   UNL     1       9.764  -0.997  23.421  0.00  0.00    -0.042 A 
ATOM     24  C   UNL     1       9.135  -1.269  22.204  0.00  0.00    -0.042 A 
ATOM     25  C   UNL     1       9.247  -0.100  21.285  0.00  0.00    +0.054 C 
ATOM     26  C   UNL     1       9.023   0.983  22.351  0.00  0.00    +0.062 C 
ATOM     27  C   UNL     1       8.294  -2.348  22.073  0.00  0.00    +0.007 A 
ATOM     28  C   UNL     1      10.025   0.508  23.482  0.00  0.00    +0.054 C 
ATOM     29  C   UNL     1       8.223  -3.273  23.119  0.00  0.00    -0.044 A 
BRANCH  21  31
ATOM     30  C   UNL     1       8.863  -4.342  26.527  0.00  0.00    +0.009 C 
ATOM     31  C   UNL     1       9.303  -4.432  25.074  0.00  0.00    +0.032 C 
ENDBRANCH  21  31
BRANCH  29  32
ATOM     32  C   UNL     1       7.028  -4.207  23.129  0.00  0.00    +0.032 C 
ATOM     33  C   UNL     1       7.192  -5.327  22.098  0.00  0.00    +0.009 C 
ENDBRANCH  29  32
ENDBRANCH  19  26
ENDBRANCH  18  19
ENDBRANCH   1  18
TORSDOF 8
ENDMDL
MODEL 9
REMARK VINA RESULT:      -7.5      2.235      4.033
REMARK  Name = 
REMARK  10 active torsions:
REMARK  status: ('A' for Active; 'I' for Inactive)
REMARK    1  A    between atoms: C_1  and  C_2
REMARK    2  A    between atoms: C_2  and  C_3
REMARK    3  A    between atoms: C_4  and  C_5
REMARK    4  A    between atoms: C_5  and  C_6
REMARK    5  A    between atoms: C_10  and  N_14
REMARK    6  A    between atoms: N_14  and  C_15
REMARK    7  A    between atoms: C_15  and  C_16
REMARK    8  A    between atoms: C_16  and  O_18
REMARK    9  A    between atoms: C_16  and  C_19
REMARK   10  A    between atoms: C_27  and  O_28
REMARK                            x       y       z     vdW  Elec       q    Type
REMARK                         _______ _______ _______ _____ _____    ______ ____
ROOT
ATOM      1  C   UNL     1       8.145  -2.420  23.299  0.00  0.00    +0.159 C 
ENDROOT
BRANCH   1   2
ATOM      2  C   UNL     1       7.955  -3.412  24.441  0.00  0.00    -0.009 A 
ATOM      3  C   UNL     1       8.816  -3.330  25.556  0.00  0.00    +0.010 A 
ATOM      4  C   UNL     1       8.703  -4.212  26.634  0.00  0.00    +0.048 A 
ATOM      5  C   UNL     1       7.746  -5.211  26.604  0.00  0.00    +0.141 A 
ATOM      6  C   UNL     1       6.869  -5.324  25.519  0.00  0.00    +0.091 A 
ATOM      7  N   UNL     1       5.898  -6.334  25.495  0.00  0.00    -0.319 N 
ATOM      8  H   UNL     1       5.789  -7.006  26.241  0.00  0.00    +0.169 HD
ATOM      9  C   UNL     1       5.012  -6.516  24.471  0.00  0.00    +0.249 A 
ATOM     10  O   UNL     1       4.189  -7.427  24.464  0.00  0.00    -0.268 OA
ATOM     11  C   UNL     1       5.067  -5.550  23.364  0.00  0.00    +0.071 A 
ATOM     12  C   UNL     1       5.971  -4.561  23.351  0.00  0.00    +0.016 A 
ATOM     13  C   UNL     1       6.958  -4.417  24.434  0.00  0.00    +0.008 A 
BRANCH   5  14
ATOM     14  O   UNL     1       7.720  -6.046  27.684  0.00  0.00    -0.505 OA
ATOM     15  H   UNL     1       6.808  -6.163  27.984  0.00  0.00    +0.292 HD
ENDBRANCH   5  14
ENDBRANCH   1   2
BRANCH   1  16
ATOM     16  O   UNL     1       7.076  -1.454  23.280  0.00  0.00    -0.386 OA
ATOM     17  H   UNL     1       6.262  -1.956  23.092  0.00  0.00    +0.210 HD
ENDBRANCH   1  16
BRANCH   1  18
ATOM     18  C   UNL     1       9.519  -1.671  23.268  0.00  0.00    +0.117 C 
BRANCH  18  19
ATOM     19  N   UNL     1       9.925  -1.070  24.560  0.00  0.00    -0.310 NA
ATOM     20  H   UNL     1       9.196  -1.367  25.222  0.00  0.00    +0.122 HD
BRANCH  19  26
ATOM     21  C   UNL     1       9.638   4.959  24.208  0.00  0.00    -0.044 A 
ATOM     22  C   UNL     1       8.740   3.927  24.574  0.00  0.00    +0.007 A 
ATOM     23  C   UNL     1       9.083   2.611  24.276  0.00  0.00    -0.042 A 
ATOM     24  C   UNL     1      10.155   2.351  23.420  0.00  0.00    -0.042 A 
ATOM     25  C   UNL     1      10.243   0.893  23.120  0.00  0.00    +0.054 C 
ATOM     26  C   UNL     1       9.902   0.402  24.534  0.00  0.00    +0.062 C 
ATOM     27  C   UNL     1      11.119   3.303  23.192  0.00  0.00    +0.007 A 
ATOM     28  C   UNL     1       8.620   1.274  24.857  0.00  0.00    +0.054 C 
ATOM     29  C   UNL     1      10.913   4.596  23.682  0.00  0.00    -0.044 A 
BRANCH  21  31
ATOM     30  C   UNL     1       8.272   7.068  23.474  0.00  0.00    +0.009 C 
ATOM     31  C   UNL     1       9.339   6.441  24.357  0.00  0.00    +0.032 C 
ENDBRANCH  21  31
BRANCH  29  32
ATOM     32  C   UNL     1      12.129   5.499  23.772  0.00  0.00    +0.032 C 
ATOM     33  C   UNL     1      12.970   5.423  22.494  0.00  0.00    +0.009 C 
ENDBRANCH  29  32
ENDBRANCH  19  26
ENDBRANCH  18  19
ENDBRANCH   1  18
TORSDOF 8
ENDMDL
