MODEL 1
REMARK VINA RESULT:      -4.6      0.000      0.000
REMARK  Name = 
REMARK  15 active torsions:
REMARK  status: ('A' for Active; 'I' for Inactive)
REMARK    1  A    between atoms: C_2  and  O_3
REMARK    2  A    between atoms: C_2  and  C_4
REMARK    3  A    between atoms: C_2  and  C_15
REMARK    4  A    between atoms: C_4  and  C_5
REMARK    5  A    between atoms: C_5  and  C_6
REMARK    6  A    between atoms: C_6  and  C_7
REMARK    7  A    between atoms: C_7  and  C_8
REMARK    8  A    between atoms: C_8  and  C_9
REMARK    9  A    between atoms: C_9  and  C_10
REMARK   10  A    between atoms: C_10  and  C_11
REMARK   11  A    between atoms: C_11  and  C_12
REMARK   12  A    between atoms: C_12  and  C_13
REMARK   13  A    between atoms: C_13  and  C_14
REMARK   14  A    between atoms: C_15  and  C_16
REMARK   15  A    between atoms: C_16  and  O_17
REMARK                            x       y       z     vdW  Elec       q    Type
REMARK                         _______ _______ _______ _____ _____    ______ ____
ROOT
ATOM      1  C   UNL     1       7.065  -2.784  23.304  0.00  0.00    +0.003 C 
ENDROOT
BRANCH   1   2
ATOM      2  C   UNL     1       7.490  -4.194  22.884  0.00  0.00    +0.032 C 
BRANCH   2   3
ATOM      3  C   UNL     1       7.704  -5.131  24.078  0.00  0.00    +0.125 C 
BRANCH   3   4
ATOM      4  O   UNL     1       9.108  -5.367  24.263  0.00  0.00    -0.391 OA
ATOM      5  H   UNL     1       9.570  -4.546  24.003  0.00  0.00    +0.210 HD
ENDBRANCH   3   4
BRANCH   3   6
ATOM      6  C   UNL     1       7.171  -4.490  25.355  0.00  0.00    +0.151 C 
BRANCH   6   7
ATOM      7  C   UNL     1       8.090  -4.752  26.519  0.00  0.00    +0.307 C 
ATOM      8  O   UNL     1       8.921  -3.951  26.922  0.00  0.00    -0.251 OA
BRANCH   7   9
ATOM      9  O   UNL     1       7.943  -5.985  27.053  0.00  0.00    -0.481 OA
ATOM     10  H   UNL     1       8.555  -6.108  27.819  0.00  0.00    +0.295 HD
ENDBRANCH   7   9
ENDBRANCH   6   7
ENDBRANCH   3   6
ENDBRANCH   2   3
ENDBRANCH   1   2
BRANCH   1  11
ATOM     11  C   UNL     1       7.926  -1.720  22.624  0.00  0.00    +0.000 C 
BRANCH  11  12
ATOM     12  C   UNL     1       9.407  -1.952  22.918  0.00  0.00    +0.000 C 
BRANCH  12  13
ATOM     13  C   UNL     1       9.739  -1.638  24.374  0.00  0.00    +0.000 C 
BRANCH  13  14
ATOM     14  C   UNL     1       9.487  -0.163  24.685  0.00  0.00    -0.000 C 
BRANCH  14  15
ATOM     15  C   UNL     1      10.699   0.690  24.316  0.00  0.00    -0.000 C 
BRANCH  15  16
ATOM     16  C   UNL     1      10.283   1.921  23.512  0.00  0.00    -0.000 C 
BRANCH  16  17
ATOM     17  C   UNL     1      10.051   1.562  22.045  0.00  0.00    -0.000 C 
BRANCH  17  18
ATOM     18  C   UNL     1       8.596   1.784  21.642  0.00  0.00    -0.003 C 
ATOM     19  C   UNL     1       7.964   2.900  22.459  0.00  0.00    +0.004 C 
ENDBRANCH  17  18
ENDBRANCH  16  17
ENDBRANCH  15  16
ENDBRANCH  14  15
ENDBRANCH  13  14
ENDBRANCH  12  13
ENDBRANCH  11  12
ENDBRANCH   1  11
TORSDOF 14
ENDMDL
MODEL 2
REMARK VINA RESULT:      -4.4      3.270      6.385
REMARK  Name = 
REMARK  15 active torsions:
REMARK  status: ('A' for Active; 'I' for Inactive)
REMARK    1  A    between atoms: C_2  and  O_3
REMARK    2  A    between atoms: C_2  and  C_4
REMARK    3  A    between atoms: C_2  and  C_15
REMARK    4  A    between atoms: C_4  and  C_5
REMARK    5  A    between atoms: C_5  and  C_6
REMARK    6  A    between atoms: C_6  and  C_7
REMARK    7  A    between atoms: C_7  and  C_8
REMARK    8  A    between atoms: C_8  and  C_9
REMARK    9  A    between atoms: C_9  and  C_10
REMARK   10  A    between atoms: C_10  and  C_11
REMARK   11  A    between atoms: C_11  and  C_12
REMARK   12  A    between atoms: C_12  and  C_13
REMARK   13  A    between atoms: C_13  and  C_14
REMARK   14  A    between atoms: C_15  and  C_16
REMARK   15  A    between atoms: C_16  and  O_17
REMARK                            x       y       z     vdW  Elec       q    Type
REMARK                         _______ _______ _______ _____ _____    ______ ____
ROOT
ATOM      1  C   UNL     1       9.088  -1.554  24.636  0.00  0.00    +0.003 C 
ENDROOT
BRANCH   1   2
ATOM      2  C   UNL     1       9.914  -1.945  23.407  0.00  0.00    +0.032 C 
BRANCH   2   3
ATOM      3  C   UNL     1      10.262  -0.746  22.519  0.00  0.00    +0.125 C 
BRANCH   3   4
ATOM      4  O   UNL     1       9.766  -0.967  21.189  0.00  0.00    -0.391 OA
ATOM      5  H   UNL     1      10.369  -1.608  20.765  0.00  0.00    +0.210 HD
ENDBRANCH   3   4
BRANCH   3   6
ATOM      6  C   UNL     1       9.600   0.519  23.054  0.00  0.00    +0.151 C 
BRANCH   6   7
ATOM      7  C   UNL     1       9.246   1.464  21.935  0.00  0.00    +0.307 C 
ATOM      8  O   UNL     1       8.134   1.533  21.431  0.00  0.00    -0.251 OA
BRANCH   7   9
ATOM      9  O   UNL     1      10.293   2.200  21.502  0.00  0.00    -0.481 OA
ATOM     10  H   UNL     1      11.066   2.095  22.109  0.00  0.00    +0.295 HD
ENDBRANCH   7   9
ENDBRANCH   6   7
ENDBRANCH   3   6
ENDBRANCH   2   3
ENDBRANCH   1   2
BRANCH   1  11
ATOM     11  C   UNL     1       8.659  -2.786  25.431  0.00  0.00    +0.000 C 
BRANCH  11  12
ATOM     12  C   UNL     1       9.334  -4.044  24.887  0.00  0.00    +0.000 C 
BRANCH  12  13
ATOM     13  C   UNL     1       8.731  -5.306  25.499  0.00  0.00    +0.000 C 
BRANCH  13  14
ATOM     14  C   UNL     1       7.407  -4.994  26.196  0.00  0.00    -0.000 C 
BRANCH  14  15
ATOM     15  C   UNL     1       6.245  -5.710  25.510  0.00  0.00    -0.000 C 
BRANCH  15  16
ATOM     16  C   UNL     1       5.780  -4.945  24.272  0.00  0.00    -0.000 C 
BRANCH  16  17
ATOM     17  C   UNL     1       6.052  -5.748  23.000  0.00  0.00    -0.000 C 
BRANCH  17  18
ATOM     18  C   UNL     1       7.037  -5.026  22.086  0.00  0.00    -0.003 C 
ATOM     19  C   UNL     1       6.829  -3.520  22.135  0.00  0.00    +0.004 C 
ENDBRANCH  17  18
ENDBRANCH  16  17
ENDBRANCH  15  16
ENDBRANCH  14  15
ENDBRANCH  13  14
ENDBRANCH  12  13
ENDBRANCH  11  12
ENDBRANCH   1  11
TORSDOF 14
ENDMDL
MODEL 3
REMARK VINA RESULT:      -4.4      1.558      2.104
REMARK  Name = 
REMARK  15 active torsions:
REMARK  status: ('A' for Active; 'I' for Inactive)
REMARK    1  A    between atoms: C_2  and  O_3
REMARK    2  A    between atoms: C_2  and  C_4
REMARK    3  A    between atoms: C_2  and  C_15
REMARK    4  A    between atoms: C_4  and  C_5
REMARK    5  A    between atoms: C_5  and  C_6
REMARK    6  A    between atoms: C_6  and  C_7
REMARK    7  A    between atoms: C_7  and  C_8
REMARK    8  A    between atoms: C_8  and  C_9
REMARK    9  A    between atoms: C_9  and  C_10
REMARK   10  A    between atoms: C_10  and  C_11
REMARK   11  A    between atoms: C_11  and  C_12
REMARK   12  A    between atoms: C_12  and  C_13
REMARK   13  A    between atoms: C_13  and  C_14
REMARK   14  A    between atoms: C_15  and  C_16
REMARK   15  A    between atoms: C_16  and  O_17
REMARK                            x       y       z     vdW  Elec       q    Type
REMARK                         _______ _______ _______ _____ _____    ______ ____
ROOT
ATOM      1  C   UNL     1       6.968  -2.485  23.655  0.00  0.00    +0.003 C 
ENDROOT
BRANCH   1   2
ATOM      2  C   UNL     1       6.129  -3.670  24.141  0.00  0.00    +0.032 C 
BRANCH   2   3
ATOM      3  C   UNL     1       6.973  -4.916  24.431  0.00  0.00    +0.125 C 
BRANCH   3   4
ATOM      4  O   UNL     1       7.753  -5.253  23.274  0.00  0.00    -0.391 OA
ATOM      5  H   UNL     1       8.583  -5.655  23.598  0.00  0.00    +0.210 HD
ENDBRANCH   3   4
BRANCH   3   6
ATOM      6  C   UNL     1       7.942  -4.643  25.577  0.00  0.00    +0.151 C 
BRANCH   6   7
ATOM      7  C   UNL     1       9.369  -4.858  25.146  0.00  0.00    +0.307 C 
ATOM      8  O   UNL     1      10.027  -4.027  24.537  0.00  0.00    -0.251 OA
BRANCH   7   9
ATOM      9  O   UNL     1       9.845  -6.085  25.454  0.00  0.00    -0.481 OA
ATOM     10  H   UNL     1       9.209  -6.568  26.038  0.00  0.00    +0.295 HD
ENDBRANCH   7   9
ENDBRANCH   6   7
ENDBRANCH   3   6
ENDBRANCH   2   3
ENDBRANCH   1   2
BRANCH   1  11
ATOM     11  C   UNL     1       6.268  -1.156  23.942  0.00  0.00    +0.000 C 
BRANCH  11  12
ATOM     12  C   UNL     1       7.213  -0.189  24.651  0.00  0.00    +0.000 C 
BRANCH  12  13
ATOM     13  C   UNL     1       8.236  -0.936  25.502  0.00  0.00    +0.000 C 
BRANCH  13  14
ATOM     14  C   UNL     1       9.550  -0.159  25.581  0.00  0.00    -0.000 C 
BRANCH  14  15
ATOM     15  C   UNL     1       9.532   1.045  24.642  0.00  0.00    -0.000 C 
BRANCH  15  16
ATOM     16  C   UNL     1      10.551   0.881  23.516  0.00  0.00    -0.000 C 
BRANCH  16  17
ATOM     17  C   UNL     1       9.910   1.156  22.156  0.00  0.00    -0.000 C 
BRANCH  17  18
ATOM     18  C   UNL     1       9.365  -0.124  21.530  0.00  0.00    -0.003 C 
ATOM     19  C   UNL     1      10.098  -1.348  22.055  0.00  0.00    +0.004 C 
ENDBRANCH  17  18
ENDBRANCH  16  17
ENDBRANCH  15  16
ENDBRANCH  14  15
ENDBRANCH  13  14
ENDBRANCH  12  13
ENDBRANCH  11  12
ENDBRANCH   1  11
TORSDOF 14
ENDMDL
MODEL 4
REMARK VINA RESULT:      -4.3      2.535      3.045
REMARK  Name = 
REMARK  15 active torsions:
REMARK  status: ('A' for Active; 'I' for Inactive)
REMARK    1  A    between atoms: C_2  and  O_3
REMARK    2  A    between atoms: C_2  and  C_4
REMARK    3  A    between atoms: C_2  and  C_15
REMARK    4  A    between atoms: C_4  and  C_5
REMARK    5  A    between atoms: C_5  and  C_6
REMARK    6  A    between atoms: C_6  and  C_7
REMARK    7  A    between atoms: C_7  and  C_8
REMARK    8  A    between atoms: C_8  and  C_9
REMARK    9  A    between atoms: C_9  and  C_10
REMARK   10  A    between atoms: C_10  and  C_11
REMARK   11  A    between atoms: C_11  and  C_12
REMARK   12  A    between atoms: C_12  and  C_13
REMARK   13  A    between atoms: C_13  and  C_14
REMARK   14  A    between atoms: C_15  and  C_16
REMARK   15  A    between atoms: C_16  and  O_17
REMARK                            x       y       z     vdW  Elec       q    Type
REMARK                         _______ _______ _______ _____ _____    ______ ____
ROOT
ATOM      1  C   UNL     1       7.999  -2.793  23.032  0.00  0.00    +0.003 C 
ENDROOT
BRANCH   1   2
ATOM      2  C   UNL     1       6.610  -2.181  22.834  0.00  0.00    +0.032 C 
BRANCH   2   3
ATOM      3  C   UNL     1       5.534  -3.232  22.539  0.00  0.00    +0.125 C 
BRANCH   3   4
ATOM      4  O   UNL     1       5.552  -3.566  21.142  0.00  0.00    -0.391 OA
ATOM      5  H   UNL     1       4.669  -3.346  20.787  0.00  0.00    +0.210 HD
ENDBRANCH   3   4
BRANCH   3   6
ATOM      6  C   UNL     1       5.815  -4.510  23.322  0.00  0.00    +0.151 C 
BRANCH   6   7
ATOM      7  C   UNL     1       5.766  -5.720  22.426  0.00  0.00    +0.307 C 
ATOM      8  O   UNL     1       6.755  -6.232  21.922  0.00  0.00    -0.251 OA
BRANCH   7   9
ATOM      9  O   UNL     1       4.511  -6.161  22.188  0.00  0.00    -0.481 OA
ATOM     10  H   UNL     1       3.879  -5.403  22.134  0.00  0.00    +0.295 HD
ENDBRANCH   7   9
ENDBRANCH   6   7
ENDBRANCH   3   6
ENDBRANCH   2   3
ENDBRANCH   1   2
BRANCH   1  11
ATOM     11  C   UNL     1       9.030  -1.724  23.395  0.00  0.00    +0.000 C 
BRANCH  11  12
ATOM     12  C   UNL     1       9.004  -1.435  24.894  0.00  0.00    +0.000 C 
BRANCH  12  13
ATOM     13  C   UNL     1       9.684  -0.106  25.215  0.00  0.00    +0.000 C 
BRANCH  13  14
ATOM     14  C   UNL     1      10.673   0.278  24.115  0.00  0.00    -0.000 C 
BRANCH  14  15
ATOM     15  C   UNL     1      10.865   1.792  24.056  0.00  0.00    -0.000 C 
BRANCH  15  16
ATOM     16  C   UNL     1       9.852   2.441  23.115  0.00  0.00    -0.000 C 
BRANCH  16  17
ATOM     17  C   UNL     1       9.637   1.583  21.869  0.00  0.00    -0.000 C 
BRANCH  17  18
ATOM     18  C   UNL     1       8.178   1.606  21.423  0.00  0.00    -0.003 C 
ATOM     19  C   UNL     1       7.238   1.482  22.611  0.00  0.00    +0.004 C 
ENDBRANCH  17  18
ENDBRANCH  16  17
ENDBRANCH  15  16
ENDBRANCH  14  15
ENDBRANCH  13  14
ENDBRANCH  12  13
ENDBRANCH  11  12
ENDBRANCH   1  11
TORSDOF 14
ENDMDL
MODEL 5
REMARK VINA RESULT:      -4.3      1.269      2.438
REMARK  Name = 
REMARK  15 active torsions:
REMARK  status: ('A' for Active; 'I' for Inactive)
REMARK    1  A    between atoms: C_2  and  O_3
REMARK    2  A    between atoms: C_2  and  C_4
REMARK    3  A    between atoms: C_2  and  C_15
REMARK    4  A    between atoms: C_4  and  C_5
REMARK    5  A    between atoms: C_5  and  C_6
REMARK    6  A    between atoms: C_6  and  C_7
REMARK    7  A    between atoms: C_7  and  C_8
REMARK    8  A    between atoms: C_8  and  C_9
REMARK    9  A    between atoms: C_9  and  C_10
REMARK   10  A    between atoms: C_10  and  C_11
REMARK   11  A    between atoms: C_11  and  C_12
REMARK   12  A    between atoms: C_12  and  C_13
REMARK   13  A    between atoms: C_13  and  C_14
REMARK   14  A    between atoms: C_15  and  C_16
REMARK   15  A    between atoms: C_16  and  O_17
REMARK                            x       y       z     vdW  Elec       q    Type
REMARK                         _______ _______ _______ _____ _____    ______ ____
ROOT
ATOM      1  C   UNL     1       8.783  -2.897  23.527  0.00  0.00    +0.003 C 
ENDROOT
BRANCH   1   2
ATOM      2  C   UNL     1       7.702  -3.977  23.450  0.00  0.00    +0.032 C 
BRANCH   2   3
ATOM      3  C   UNL     1       6.899  -4.108  24.749  0.00  0.00    +0.125 C 
BRANCH   3   4
ATOM      4  O   UNL     1       6.309  -5.415  24.825  0.00  0.00    -0.391 OA
ATOM      5  H   UNL     1       6.866  -6.009  24.286  0.00  0.00    +0.210 HD
ENDBRANCH   3   4
BRANCH   3   6
ATOM      6  C   UNL     1       7.817  -3.945  25.956  0.00  0.00    +0.151 C 
BRANCH   6   7
ATOM      7  C   UNL     1       8.068  -5.269  26.631  0.00  0.00    +0.307 C 
ATOM      8  O   UNL     1       7.477  -5.643  27.633  0.00  0.00    -0.251 OA
BRANCH   7   9
ATOM      9  O   UNL     1       9.051  -5.990  26.048  0.00  0.00    -0.481 OA
ATOM     10  H   UNL     1       8.953  -6.950  26.264  0.00  0.00    +0.295 HD
ENDBRANCH   7   9
ENDBRANCH   6   7
ENDBRANCH   3   6
ENDBRANCH   2   3
ENDBRANCH   1   2
BRANCH   1  11
ATOM     11  C   UNL     1       8.618  -1.866  22.410  0.00  0.00    +0.000 C 
BRANCH  11  12
ATOM     12  C   UNL     1       7.444  -0.934  22.703  0.00  0.00    +0.000 C 
BRANCH  12  13
ATOM     13  C   UNL     1       7.767   0.505  22.309  0.00  0.00    +0.000 C 
BRANCH  13  14
ATOM     14  C   UNL     1       9.057   0.571  21.493  0.00  0.00    -0.000 C 
BRANCH  14  15
ATOM     15  C   UNL     1       9.960   1.699  21.985  0.00  0.00    -0.000 C 
BRANCH  15  16
ATOM     16  C   UNL     1       9.783   1.934  23.484  0.00  0.00    -0.000 C 
BRANCH  16  17
ATOM     17  C   UNL     1      10.911   1.274  24.276  0.00  0.00    -0.000 C 
BRANCH  17  18
ATOM     18  C   UNL     1      10.417   0.037  25.021  0.00  0.00    -0.003 C 
ATOM     19  C   UNL     1       9.059   0.286  25.659  0.00  0.00    +0.004 C 
ENDBRANCH  17  18
ENDBRANCH  16  17
ENDBRANCH  15  16
ENDBRANCH  14  15
ENDBRANCH  13  14
ENDBRANCH  12  13
ENDBRANCH  11  12
ENDBRANCH   1  11
TORSDOF 14
ENDMDL
MODEL 6
REMARK VINA RESULT:      -4.3      3.679      6.752
REMARK  Name = 
REMARK  15 active torsions:
REMARK  status: ('A' for Active; 'I' for Inactive)
REMARK    1  A    between atoms: C_2  and  O_3
REMARK    2  A    between atoms: C_2  and  C_4
REMARK    3  A    between atoms: C_2  and  C_15
REMARK    4  A    between atoms: C_4  and  C_5
REMARK    5  A    between atoms: C_5  and  C_6
REMARK    6  A    between atoms: C_6  and  C_7
REMARK    7  A    between atoms: C_7  and  C_8
REMARK    8  A    between atoms: C_8  and  C_9
REMARK    9  A    between atoms: C_9  and  C_10
REMARK   10  A    between atoms: C_10  and  C_11
REMARK   11  A    between atoms: C_11  and  C_12
REMARK   12  A    between atoms: C_12  and  C_13
REMARK   13  A    between atoms: C_13  and  C_14
REMARK   14  A    between atoms: C_15  and  C_16
REMARK   15  A    between atoms: C_16  and  O_17
REMARK                            x       y       z     vdW  Elec       q    Type
REMARK                         _______ _______ _______ _____ _____    ______ ____
ROOT
ATOM      1  C   UNL     1       9.904   0.421  24.799  0.00  0.00    +0.003 C 
ENDROOT
BRANCH   1   2
ATOM      2  C   UNL     1      10.866   1.126  23.840  0.00  0.00    +0.032 C 
BRANCH   2   3
ATOM      3  C   UNL     1      10.246   2.364  23.181  0.00  0.00    +0.125 C 
BRANCH   3   4
ATOM      4  O   UNL     1      10.340   2.251  21.753  0.00  0.00    -0.391 OA
ATOM      5  H   UNL     1      10.768   3.069  21.432  0.00  0.00    +0.210 HD
ENDBRANCH   3   4
BRANCH   3   6
ATOM      6  C   UNL     1       8.768   2.469  23.540  0.00  0.00    +0.151 C 
BRANCH   6   7
ATOM      7  C   UNL     1       7.931   2.752  22.319  0.00  0.00    +0.307 C 
ATOM      8  O   UNL     1       7.411   1.882  21.636  0.00  0.00    -0.251 OA
BRANCH   7   9
ATOM      9  O   UNL     1       7.847   4.067  22.018  0.00  0.00    -0.481 OA
ATOM     10  H   UNL     1       7.499   4.193  21.101  0.00  0.00    +0.295 HD
ENDBRANCH   7   9
ENDBRANCH   6   7
ENDBRANCH   3   6
ENDBRANCH   2   3
ENDBRANCH   1   2
BRANCH   1  11
ATOM     11  C   UNL     1       9.676  -1.033  24.386  0.00  0.00    +0.000 C 
BRANCH  11  12
ATOM     12  C   UNL     1      10.192  -1.281  22.970  0.00  0.00    +0.000 C 
BRANCH  12  13
ATOM     13  C   UNL     1       9.042  -1.506  21.992  0.00  0.00    +0.000 C 
BRANCH  13  14
ATOM     14  C   UNL     1       7.707  -1.588  22.731  0.00  0.00    -0.000 C 
BRANCH  14  15
ATOM     15  C   UNL     1       6.961  -2.872  22.375  0.00  0.00    -0.000 C 
BRANCH  15  16
ATOM     16  C   UNL     1       7.662  -4.097  22.961  0.00  0.00    -0.000 C 
BRANCH  16  17
ATOM     17  C   UNL     1       7.088  -4.450  24.332  0.00  0.00    -0.000 C 
BRANCH  17  18
ATOM     18  C   UNL     1       8.084  -4.144  25.447  0.00  0.00    -0.003 C 
ATOM     19  C   UNL     1       9.428  -4.803  25.179  0.00  0.00    +0.004 C 
ENDBRANCH  17  18
ENDBRANCH  16  17
ENDBRANCH  15  16
ENDBRANCH  14  15
ENDBRANCH  13  14
ENDBRANCH  12  13
ENDBRANCH  11  12
ENDBRANCH   1  11
TORSDOF 14
ENDMDL
MODEL 7
REMARK VINA RESULT:      -4.3      2.884      3.999
REMARK  Name = 
REMARK  15 active torsions:
REMARK  status: ('A' for Active; 'I' for Inactive)
REMARK    1  A    between atoms: C_2  and  O_3
REMARK    2  A    between atoms: C_2  and  C_4
REMARK    3  A    between atoms: C_2  and  C_15
REMARK    4  A    between atoms: C_4  and  C_5
REMARK    5  A    between atoms: C_5  and  C_6
REMARK    6  A    between atoms: C_6  and  C_7
REMARK    7  A    between atoms: C_7  and  C_8
REMARK    8  A    between atoms: C_8  and  C_9
REMARK    9  A    between atoms: C_9  and  C_10
REMARK   10  A    between atoms: C_10  and  C_11
REMARK   11  A    between atoms: C_11  and  C_12
REMARK   12  A    between atoms: C_12  and  C_13
REMARK   13  A    between atoms: C_13  and  C_14
REMARK   14  A    between atoms: C_15  and  C_16
REMARK   15  A    between atoms: C_16  and  O_17
REMARK                            x       y       z     vdW  Elec       q    Type
REMARK                         _______ _______ _______ _____ _____    ______ ____
ROOT
ATOM      1  C   UNL     1       8.807  -2.700  23.347  0.00  0.00    +0.003 C 
ENDROOT
BRANCH   1   2
ATOM      2  C   UNL     1       7.575  -2.493  22.463  0.00  0.00    +0.032 C 
BRANCH   2   3
ATOM      3  C   UNL     1       6.552  -3.627  22.595  0.00  0.00    +0.125 C 
BRANCH   3   4
ATOM      4  O   UNL     1       5.384  -3.320  21.818  0.00  0.00    -0.391 OA
ATOM      5  H   UNL     1       5.344  -2.346  21.739  0.00  0.00    +0.210 HD
ENDBRANCH   3   4
BRANCH   3   6
ATOM      6  C   UNL     1       7.134  -4.930  22.058  0.00  0.00    +0.151 C 
BRANCH   6   7
ATOM      7  C   UNL     1       6.105  -5.704  21.275  0.00  0.00    +0.307 C 
ATOM      8  O   UNL     1       5.990  -5.645  20.060  0.00  0.00    -0.251 OA
BRANCH   7   9
ATOM      9  O   UNL     1       5.281  -6.440  22.054  0.00  0.00    -0.481 OA
ATOM     10  H   UNL     1       5.788  -7.139  22.535  0.00  0.00    +0.295 HD
ENDBRANCH   7   9
ENDBRANCH   6   7
ENDBRANCH   3   6
ENDBRANCH   2   3
ENDBRANCH   1   2
BRANCH   1  11
ATOM     11  C   UNL     1       9.893  -1.672  23.033  0.00  0.00    +0.000 C 
BRANCH  11  12
ATOM     12  C   UNL     1       9.592  -0.949  21.723  0.00  0.00    +0.000 C 
BRANCH  12  13
ATOM     13  C   UNL     1       9.853   0.550  21.843  0.00  0.00    +0.000 C 
BRANCH  13  14
ATOM     14  C   UNL     1       8.605   1.352  21.477  0.00  0.00    -0.000 C 
BRANCH  14  15
ATOM     15  C   UNL     1       8.272   2.374  22.561  0.00  0.00    -0.000 C 
BRANCH  15  16
ATOM     16  C   UNL     1       8.168   1.710  23.933  0.00  0.00    -0.000 C 
BRANCH  16  17
ATOM     17  C   UNL     1       6.899   0.865  24.034  0.00  0.00    -0.000 C 
BRANCH  17  18
ATOM     18  C   UNL     1       6.942  -0.059  25.249  0.00  0.00    -0.003 C 
ATOM     19  C   UNL     1       8.300  -0.007  25.930  0.00  0.00    +0.004 C 
ENDBRANCH  17  18
ENDBRANCH  16  17
ENDBRANCH  15  16
ENDBRANCH  14  15
ENDBRANCH  13  14
ENDBRANCH  12  13
ENDBRANCH  11  12
ENDBRANCH   1  11
TORSDOF 14
ENDMDL
MODEL 8
REMARK VINA RESULT:      -4.3      2.626      3.561
REMARK  Name = 
REMARK  15 active torsions:
REMARK  status: ('A' for Active; 'I' for Inactive)
REMARK    1  A    between atoms: C_2  and  O_3
REMARK    2  A    between atoms: C_2  and  C_4
REMARK    3  A    between atoms: C_2  and  C_15
REMARK    4  A    between atoms: C_4  and  C_5
REMARK    5  A    between atoms: C_5  and  C_6
REMARK    6  A    between atoms: C_6  and  C_7
REMARK    7  A    between atoms: C_7  and  C_8
REMARK    8  A    between atoms: C_8  and  C_9
REMARK    9  A    between atoms: C_9  and  C_10
REMARK   10  A    between atoms: C_10  and  C_11
REMARK   11  A    between atoms: C_11  and  C_12
REMARK   12  A    between atoms: C_12  and  C_13
REMARK   13  A    between atoms: C_13  and  C_14
REMARK   14  A    between atoms: C_15  and  C_16
REMARK   15  A    between atoms: C_16  and  O_17
REMARK                            x       y       z     vdW  Elec       q    Type
REMARK                         _______ _______ _______ _____ _____    ______ ____
ROOT
ATOM      1  C   UNL     1       9.775  -1.867  23.175  0.00  0.00    +0.003 C 
ENDROOT
BRANCH   1   2
ATOM      2  C   UNL     1       8.527  -2.147  22.334  0.00  0.00    +0.032 C 
BRANCH   2   3
ATOM      3  C   UNL     1       7.284  -2.422  23.189  0.00  0.00    +0.125 C 
BRANCH   3   4
ATOM      4  O   UNL     1       6.206  -1.574  22.763  0.00  0.00    -0.391 OA
ATOM      5  H   UNL     1       5.713  -1.318  23.567  0.00  0.00    +0.210 HD
ENDBRANCH   3   4
BRANCH   3   6
ATOM      6  C   UNL     1       6.831  -3.867  23.014  0.00  0.00    +0.151 C 
BRANCH   6   7
ATOM      7  C   UNL     1       5.544  -3.943  22.234  0.00  0.00    +0.307 C 
ATOM      8  O   UNL     1       4.451  -4.140  22.746  0.00  0.00    -0.251 OA
BRANCH   7   9
ATOM      9  O   UNL     1       5.716  -3.822  20.899  0.00  0.00    -0.481 OA
ATOM     10  H   UNL     1       6.669  -3.675  20.684  0.00  0.00    +0.295 HD
ENDBRANCH   7   9
ENDBRANCH   6   7
ENDBRANCH   3   6
ENDBRANCH   2   3
ENDBRANCH   1   2
BRANCH   1  11
ATOM     11  C   UNL     1       9.414  -1.634  24.642  0.00  0.00    +0.000 C 
BRANCH  11  12
ATOM     12  C   UNL     1       9.720  -0.195  25.052  0.00  0.00    +0.000 C 
BRANCH  12  13
ATOM     13  C   UNL     1      10.713   0.457  24.094  0.00  0.00    +0.000 C 
BRANCH  13  14
ATOM     14  C   UNL     1      10.175   1.789  23.575  0.00  0.00    -0.000 C 
BRANCH  14  15
ATOM     15  C   UNL     1      10.102   1.795  22.050  0.00  0.00    -0.000 C 
BRANCH  15  16
ATOM     16  C   UNL     1       8.738   1.313  21.561  0.00  0.00    -0.000 C 
BRANCH  16  17
ATOM     17  C   UNL     1       7.625   1.782  22.498  0.00  0.00    -0.000 C 
BRANCH  17  18
ATOM     18  C   UNL     1       7.012   3.094  22.019  0.00  0.00    -0.003 C 
ATOM     19  C   UNL     1       6.750   4.036  23.184  0.00  0.00    +0.004 C 
ENDBRANCH  17  18
ENDBRANCH  16  17
ENDBRANCH  15  16
ENDBRANCH  14  15
ENDBRANCH  13  14
ENDBRANCH  12  13
ENDBRANCH  11  12
ENDBRANCH   1  11
TORSDOF 14
ENDMDL
MODEL 9
REMARK VINA RESULT:      -4.3      3.207      6.122
REMARK  Name = 
REMARK  15 active torsions:
REMARK  status: ('A' for Active; 'I' for Inactive)
REMARK    1  A    between atoms: C_2  and  O_3
REMARK    2  A    between atoms: C_2  and  C_4
REMARK    3  A    between atoms: C_2  and  C_15
REMARK    4  A    between atoms: C_4  and  C_5
REMARK    5  A    between atoms: C_5  and  C_6
REMARK    6  A    between atoms: C_6  and  C_7
REMARK    7  A    between atoms: C_7  and  C_8
REMARK    8  A    between atoms: C_8  and  C_9
REMARK    9  A    between atoms: C_9  and  C_10
REMARK   10  A    between atoms: C_10  and  C_11
REMARK   11  A    between atoms: C_11  and  C_12
REMARK   12  A    between atoms: C_12  and  C_13
REMARK   13  A    between atoms: C_13  and  C_14
REMARK   14  A    between atoms: C_15  and  C_16
REMARK   15  A    between atoms: C_16  and  O_17
REMARK                            x       y       z     vdW  Elec       q    Type
REMARK                         _______ _______ _______ _____ _____    ______ ____
ROOT
ATOM      1  C   UNL     1       7.882  -2.146  22.663  0.00  0.00    +0.003 C 
ENDROOT
BRANCH   1   2
ATOM      2  C   UNL     1       9.364  -2.133  23.045  0.00  0.00    +0.032 C 
BRANCH   2   3
ATOM      3  C   UNL     1      10.174  -1.104  22.248  0.00  0.00    +0.125 C 
BRANCH   3   4
ATOM      4  O   UNL     1       9.546  -0.871  20.978  0.00  0.00    -0.391 OA
ATOM      5  H   UNL     1       8.781  -0.285  21.143  0.00  0.00    +0.210 HD
ENDBRANCH   3   4
BRANCH   3   6
ATOM      6  C   UNL     1      10.216   0.226  22.993  0.00  0.00    +0.151 C 
BRANCH   6   7
ATOM      7  C   UNL     1       9.426   1.283  22.265  0.00  0.00    +0.307 C 
ATOM      8  O   UNL     1       8.206   1.363  22.300  0.00  0.00    -0.251 OA
BRANCH   7   9
ATOM      9  O   UNL     1      10.193   2.112  21.523  0.00  0.00    -0.481 OA
ATOM     10  H   UNL     1      11.148   1.874  21.612  0.00  0.00    +0.295 HD
ENDBRANCH   7   9
ENDBRANCH   6   7
ENDBRANCH   3   6
ENDBRANCH   2   3
ENDBRANCH   1   2
BRANCH   1  11
ATOM     11  C   UNL     1       7.388  -3.570  22.405  0.00  0.00    +0.000 C 
BRANCH  11  12
ATOM     12  C   UNL     1       5.864  -3.607  22.316  0.00  0.00    +0.000 C 
BRANCH  12  13
ATOM     13  C   UNL     1       5.245  -4.148  23.602  0.00  0.00    +0.000 C 
BRANCH  13  14
ATOM     14  C   UNL     1       6.155  -5.192  24.246  0.00  0.00    -0.000 C 
BRANCH  14  15
ATOM     15  C   UNL     1       6.393  -4.876  25.721  0.00  0.00    -0.000 C 
BRANCH  15  16
ATOM     16  C   UNL     1       7.837  -5.172  26.123  0.00  0.00    -0.000 C 
BRANCH  16  17
ATOM     17  C   UNL     1       8.634  -3.878  26.287  0.00  0.00    -0.000 C 
BRANCH  17  18
ATOM     18  C   UNL     1       7.712  -2.668  26.403  0.00  0.00    -0.003 C 
ATOM     19  C   UNL     1       8.508  -1.385  26.581  0.00  0.00    +0.004 C 
ENDBRANCH  17  18
ENDBRANCH  16  17
ENDBRANCH  15  16
ENDBRANCH  14  15
ENDBRANCH  13  14
ENDBRANCH  12  13
ENDBRANCH  11  12
ENDBRANCH   1  11
TORSDOF 14
ENDMDL
