MODEL 1
REMARK VINA RESULT:      -6.6      0.000      0.000
REMARK  Name = 
REMARK  12 active torsions:
REMARK  status: ('A' for Active; 'I' for Inactive)
REMARK    1  A    between atoms: O_1  and  C_2
REMARK    2  A    between atoms: C_2  and  CA_3
REMARK    3  A    between atoms: C_6  and  O_8
REMARK    4  A    between atoms: C_9  and  O_11
REMARK    5  A    between atoms: C_12  and  O_14
REMARK    6  A    between atoms: C_15  and  O_17
REMARK    7  A    between atoms: O_17  and  C_18
REMARK    8  A    between atoms: C_21  and  C_23
REMARK    9  A    between atoms: C_23  and  O_24
REMARK   10  A    between atoms: C_25  and  O_27
REMARK   11  A    between atoms: C_28  and  O_30
REMARK   12  A    between atoms: C_31  and  O_33
REMARK                            x       y       z     vdW  Elec       q    Type
REMARK                         _______ _______ _______ _____ _____    ______ ____
ROOT
ATOM      1  CA  UNL     1       7.953  -4.538  24.623  0.00  0.00    +0.113 C 
ATOM      2  C   UNL     1       7.821  -3.007  24.252  0.00  0.00    +0.172 C 
ATOM      3  C   UNL     1       6.525  -2.935  23.404  0.00  0.00    +0.177 C 
ATOM      4  C   UNL     1       6.692  -3.755  22.126  0.00  0.00    +0.189 C 
ATOM      5  C   UNL     1       7.004  -5.220  22.484  0.00  0.00    +0.214 C 
ATOM      6  N   UNL     1       8.049  -5.439  23.458  0.00  0.00    -0.282 NA
ATOM      7  H   UNL     1       8.959  -5.268  23.034  0.00  0.00    +0.125 HD
ENDROOT
BRANCH   3   8
ATOM      8  O   UNL     1       6.101  -1.610  23.093  0.00  0.00    -0.386 OA
ATOM      9  H   UNL     1       5.976  -1.598  22.122  0.00  0.00    +0.210 HD
ENDBRANCH   3   8
BRANCH   4  10
ATOM     10  O   UNL     1       5.450  -3.682  21.395  0.00  0.00    -0.385 OA
ATOM     11  H   UNL     1       5.482  -4.424  20.759  0.00  0.00    +0.210 HD
ENDBRANCH   4  10
BRANCH   5  12
ATOM     12  O   UNL     1       7.394  -5.904  21.308  0.00  0.00    -0.375 OA
ATOM     13  H   UNL     1       7.028  -6.798  21.424  0.00  0.00    +0.212 HD
ENDBRANCH   5  12
BRANCH   1  14
ATOM     14  C   UNL     1       9.111  -4.895  25.577  0.00  0.00    +0.177 C 
BRANCH  14  15
ATOM     15  O   UNL     1      10.334  -5.060  24.864  0.00  0.00    -0.393 OA
ATOM     16  H   UNL     1      10.109  -5.500  24.022  0.00  0.00    +0.209 HD
ENDBRANCH  14  15
ENDBRANCH   1  14
BRANCH   2  17
ATOM     17  O   UNL     1       9.007  -2.460  23.593  0.00  0.00    -0.341 OA
BRANCH  17  18
ATOM     18  C   UNL     1       9.643  -1.394  24.359  0.00  0.00    +0.282 C 
ATOM     19  C   UNL     1       8.685  -0.407  25.119  0.00  0.00    +0.201 C 
ATOM     20  C   UNL     1       8.333   0.909  24.390  0.00  0.00    +0.179 C 
ATOM     21  C   UNL     1       9.487   1.421  23.517  0.00  0.00    +0.177 C 
ATOM     22  C   UNL     1      10.144   0.302  22.704  0.00  0.00    +0.178 C 
ATOM     23  O   UNL     1      10.627  -0.725  23.570  0.00  0.00    -0.341 OA
BRANCH  19  24
ATOM     24  O   UNL     1       9.345  -0.010  26.357  0.00  0.00    -0.384 OA
ATOM     25  H   UNL     1       9.087  -0.665  27.039  0.00  0.00    +0.210 HD
ENDBRANCH  19  24
BRANCH  20  26
ATOM     26  O   UNL     1       7.093   0.834  23.683  0.00  0.00    -0.386 OA
ATOM     27  H   UNL     1       6.435   1.384  24.157  0.00  0.00    +0.210 HD
ENDBRANCH  20  26
BRANCH  21  28
ATOM     28  O   UNL     1      10.484   1.992  24.398  0.00  0.00    -0.386 OA
ATOM     29  H   UNL     1      10.063   2.721  24.893  0.00  0.00    +0.210 HD
ENDBRANCH  21  28
BRANCH  22  30
ATOM     30  C   UNL     1       9.308  -0.230  21.533  0.00  0.00    +0.190 C 
BRANCH  30  31
ATOM     31  O   UNL     1       9.680  -1.531  21.104  0.00  0.00    -0.392 OA
ATOM     32  H   UNL     1       8.904  -2.129  21.224  0.00  0.00    +0.210 HD
ENDBRANCH  30  31
ENDBRANCH  22  30
ENDBRANCH  17  18
ENDBRANCH   2  17
TORSDOF 12
ENDMDL
MODEL 2
REMARK VINA RESULT:      -6.4      1.937      3.854
REMARK  Name = 
REMARK  12 active torsions:
REMARK  status: ('A' for Active; 'I' for Inactive)
REMARK    1  A    between atoms: O_1  and  C_2
REMARK    2  A    between atoms: C_2  and  CA_3
REMARK    3  A    between atoms: C_6  and  O_8
REMARK    4  A    between atoms: C_9  and  O_11
REMARK    5  A    between atoms: C_12  and  O_14
REMARK    6  A    between atoms: C_15  and  O_17
REMARK    7  A    between atoms: O_17  and  C_18
REMARK    8  A    between atoms: C_21  and  C_23
REMARK    9  A    between atoms: C_23  and  O_24
REMARK   10  A    between atoms: C_25  and  O_27
REMARK   11  A    between atoms: C_28  and  O_30
REMARK   12  A    between atoms: C_31  and  O_33
REMARK                            x       y       z     vdW  Elec       q    Type
REMARK                         _______ _______ _______ _____ _____    ______ ____
ROOT
ATOM      1  CA  UNL     1       6.499  -4.780  23.345  0.00  0.00    +0.113 C 
ATOM      2  C   UNL     1       7.994  -4.297  23.517  0.00  0.00    +0.172 C 
ATOM      3  C   UNL     1       8.560  -5.212  24.633  0.00  0.00    +0.177 C 
ATOM      4  C   UNL     1       7.796  -4.979  25.936  0.00  0.00    +0.189 C 
ATOM      5  C   UNL     1       6.301  -5.275  25.723  0.00  0.00    +0.214 C 
ATOM      6  N   UNL     1       5.679  -4.670  24.567  0.00  0.00    -0.282 NA
ATOM      7  H   UNL     1       5.538  -3.674  24.732  0.00  0.00    +0.125 HD
ENDROOT
BRANCH   3   8
ATOM      8  O   UNL     1       9.963  -5.077  24.847  0.00  0.00    -0.386 OA
ATOM      9  H   UNL     1      10.335  -5.969  24.697  0.00  0.00    +0.210 HD
ENDBRANCH   3   8
BRANCH   4  10
ATOM     10  O   UNL     1       8.338  -5.878  26.926  0.00  0.00    -0.385 OA
ATOM     11  H   UNL     1       7.737  -5.809  27.693  0.00  0.00    +0.210 HD
ENDBRANCH   4  10
BRANCH   5  12
ATOM     12  O   UNL     1       5.581  -4.824  26.855  0.00  0.00    -0.375 OA
ATOM     13  H   UNL     1       6.099  -4.066  27.176  0.00  0.00    +0.212 HD
ENDBRANCH   5  12
BRANCH   1  14
ATOM     14  C   UNL     1       5.710  -4.111  22.200  0.00  0.00    +0.177 C 
BRANCH  14  15
ATOM     15  O   UNL     1       5.388  -2.759  22.517  0.00  0.00    -0.393 OA
ATOM     16  H   UNL     1       6.219  -2.252  22.450  0.00  0.00    +0.209 HD
ENDBRANCH  14  15
ENDBRANCH   1  14
BRANCH   2  17
ATOM     17  O   UNL     1       8.118  -2.865  23.788  0.00  0.00    -0.341 OA
BRANCH  17  18
ATOM     18  C   UNL     1       8.760  -2.133  22.701  0.00  0.00    +0.282 C 
ATOM     19  C   UNL     1      10.192  -1.554  22.994  0.00  0.00    +0.201 C 
ATOM     20  C   UNL     1      10.258  -0.081  23.454  0.00  0.00    +0.179 C 
ATOM     21  C   UNL     1       9.156   0.781  22.820  0.00  0.00    +0.177 C 
ATOM     22  C   UNL     1       7.793   0.083  22.831  0.00  0.00    +0.178 C 
ATOM     23  O   UNL     1       7.867  -1.167  22.147  0.00  0.00    -0.341 OA
BRANCH  19  24
ATOM     24  O   UNL     1      10.960  -1.618  21.757  0.00  0.00    -0.384 OA
ATOM     25  H   UNL     1      11.854  -1.942  21.994  0.00  0.00    +0.210 HD
ENDBRANCH  19  24
BRANCH  20  26
ATOM     26  O   UNL     1      10.315   0.052  24.876  0.00  0.00    -0.386 OA
ATOM     27  H   UNL     1      10.371   1.006  25.093  0.00  0.00    +0.210 HD
ENDBRANCH  20  26
BRANCH  21  28
ATOM     28  O   UNL     1       9.531   1.029  21.444  0.00  0.00    -0.386 OA
ATOM     29  H   UNL     1      10.135   1.797  21.433  0.00  0.00    +0.210 HD
ENDBRANCH  21  28
BRANCH  22  30
ATOM     30  C   UNL     1       7.121  -0.012  24.206  0.00  0.00    +0.190 C 
BRANCH  30  31
ATOM     31  O   UNL     1       5.872  -0.686  24.192  0.00  0.00    -0.392 OA
ATOM     32  H   UNL     1       5.283  -0.232  23.543  0.00  0.00    +0.210 HD
ENDBRANCH  30  31
ENDBRANCH  22  30
ENDBRANCH  17  18
ENDBRANCH   2  17
TORSDOF 12
ENDMDL
MODEL 3
REMARK VINA RESULT:      -6.0      1.807      2.939
REMARK  Name = 
REMARK  12 active torsions:
REMARK  status: ('A' for Active; 'I' for Inactive)
REMARK    1  A    between atoms: O_1  and  C_2
REMARK    2  A    between atoms: C_2  and  CA_3
REMARK    3  A    between atoms: C_6  and  O_8
REMARK    4  A    between atoms: C_9  and  O_11
REMARK    5  A    between atoms: C_12  and  O_14
REMARK    6  A    between atoms: C_15  and  O_17
REMARK    7  A    between atoms: O_17  and  C_18
REMARK    8  A    between atoms: C_21  and  C_23
REMARK    9  A    between atoms: C_23  and  O_24
REMARK   10  A    between atoms: C_25  and  O_27
REMARK   11  A    between atoms: C_28  and  O_30
REMARK   12  A    between atoms: C_31  and  O_33
REMARK                            x       y       z     vdW  Elec       q    Type
REMARK                         _______ _______ _______ _____ _____    ______ ____
ROOT
ATOM      1  CA  UNL     1       7.818  -1.935  26.179  0.00  0.00    +0.113 C 
ATOM      2  C   UNL     1       8.066  -1.614  24.651  0.00  0.00    +0.172 C 
ATOM      3  C   UNL     1       7.757  -2.952  23.930  0.00  0.00    +0.177 C 
ATOM      4  C   UNL     1       8.737  -4.031  24.390  0.00  0.00    +0.189 C 
ATOM      5  C   UNL     1       8.628  -4.218  25.914  0.00  0.00    +0.214 C 
ATOM      6  N   UNL     1       8.663  -3.018  26.718  0.00  0.00    -0.282 NA
ATOM      7  H   UNL     1       9.614  -2.653  26.753  0.00  0.00    +0.125 HD
ENDROOT
BRANCH   3   8
ATOM      8  O   UNL     1       7.747  -2.862  22.508  0.00  0.00    -0.386 OA
ATOM      9  H   UNL     1       7.776  -3.787  22.189  0.00  0.00    +0.210 HD
ENDBRANCH   3   8
BRANCH   4  10
ATOM     10  O   UNL     1       8.384  -5.257  23.717  0.00  0.00    -0.385 OA
ATOM     11  H   UNL     1       7.562  -5.055  23.229  0.00  0.00    +0.210 HD
ENDBRANCH   4  10
BRANCH   5  12
ATOM     12  O   UNL     1       9.700  -5.033  26.351  0.00  0.00    -0.375 OA
ATOM     13  H   UNL     1      10.351  -4.970  25.631  0.00  0.00    +0.212 HD
ENDBRANCH   5  12
BRANCH   1  14
ATOM     14  C   UNL     1       7.940  -0.735  27.140  0.00  0.00    +0.177 C 
BRANCH  14  15
ATOM     15  O   UNL     1       9.292  -0.536  27.547  0.00  0.00    -0.393 OA
ATOM     16  H   UNL     1       9.337  -0.779  28.491  0.00  0.00    +0.209 HD
ENDBRANCH  14  15
ENDBRANCH   1  14
BRANCH   2  17
ATOM     17  O   UNL     1       9.396  -1.072  24.376  0.00  0.00    -0.341 OA
BRANCH  17  18
ATOM     18  C   UNL     1       9.407   0.384  24.276  0.00  0.00    +0.282 C 
ATOM     19  C   UNL     1       8.007   1.097  24.252  0.00  0.00    +0.201 C 
ATOM     20  C   UNL     1       7.427   1.431  22.860  0.00  0.00    +0.179 C 
ATOM     21  C   UNL     1       8.520   1.772  21.837  0.00  0.00    +0.177 C 
ATOM     22  C   UNL     1       9.708   0.808  21.910  0.00  0.00    +0.178 C 
ATOM     23  O   UNL     1      10.271   0.809  23.221  0.00  0.00    -0.341 OA
BRANCH  19  24
ATOM     24  O   UNL     1       8.146   2.375  24.940  0.00  0.00    -0.384 OA
ATOM     25  H   UNL     1       8.559   2.996  24.305  0.00  0.00    +0.210 HD
ENDBRANCH  19  24
BRANCH  20  26
ATOM     26  O   UNL     1       6.517   0.436  22.387  0.00  0.00    -0.386 OA
ATOM     27  H   UNL     1       6.250  -0.122  23.147  0.00  0.00    +0.210 HD
ENDBRANCH  20  26
BRANCH  21  28
ATOM     28  O   UNL     1       8.997   3.107  22.133  0.00  0.00    -0.386 OA
ATOM     29  H   UNL     1       9.681   3.333  21.472  0.00  0.00    +0.210 HD
ENDBRANCH  21  28
BRANCH  22  30
ATOM     30  C   UNL     1       9.439  -0.599  21.362  0.00  0.00    +0.190 C 
BRANCH  30  31
ATOM     31  O   UNL     1      10.420  -1.557  21.729  0.00  0.00    -0.392 OA
ATOM     32  H   UNL     1      11.240  -1.372  21.213  0.00  0.00    +0.210 HD
ENDBRANCH  30  31
ENDBRANCH  22  30
ENDBRANCH  17  18
ENDBRANCH   2  17
TORSDOF 12
ENDMDL
MODEL 4
REMARK VINA RESULT:      -5.8      2.408      5.642
REMARK  Name = 
REMARK  12 active torsions:
REMARK  status: ('A' for Active; 'I' for Inactive)
REMARK    1  A    between atoms: O_1  and  C_2
REMARK    2  A    between atoms: C_2  and  CA_3
REMARK    3  A    between atoms: C_6  and  O_8
REMARK    4  A    between atoms: C_9  and  O_11
REMARK    5  A    between atoms: C_12  and  O_14
REMARK    6  A    between atoms: C_15  and  O_17
REMARK    7  A    between atoms: O_17  and  C_18
REMARK    8  A    between atoms: C_21  and  C_23
REMARK    9  A    between atoms: C_23  and  O_24
REMARK   10  A    between atoms: C_25  and  O_27
REMARK   11  A    between atoms: C_28  and  O_30
REMARK   12  A    between atoms: C_31  and  O_33
REMARK                            x       y       z     vdW  Elec       q    Type
REMARK                         _______ _______ _______ _____ _____    ______ ____
ROOT
ATOM      1  CA  UNL     1       8.675   0.275  25.050  0.00  0.00    +0.113 C 
ATOM      2  C   UNL     1       9.301  -1.045  24.444  0.00  0.00    +0.172 C 
ATOM      3  C   UNL     1       9.808  -0.612  23.044  0.00  0.00    +0.177 C 
ATOM      4  C   UNL     1       8.632  -0.163  22.178  0.00  0.00    +0.189 C 
ATOM      5  C   UNL     1       7.904   1.011  22.858  0.00  0.00    +0.214 C 
ATOM      6  N   UNL     1       7.571   0.845  24.255  0.00  0.00    -0.282 NA
ATOM      7  H   UNL     1       6.785   0.202  24.349  0.00  0.00    +0.125 HD
ENDROOT
BRANCH   3   8
ATOM      8  O   UNL     1      10.574  -1.606  22.366  0.00  0.00    -0.386 OA
ATOM      9  H   UNL     1      10.187  -2.462  22.639  0.00  0.00    +0.210 HD
ENDBRANCH   3   8
BRANCH   4  10
ATOM     10  O   UNL     1       9.163   0.259  20.905  0.00  0.00    -0.385 OA
ATOM     11  H   UNL     1       9.588   1.122  21.077  0.00  0.00    +0.210 HD
ENDBRANCH   4  10
BRANCH   5  12
ATOM     12  O   UNL     1       6.688   1.251  22.175  0.00  0.00    -0.375 OA
ATOM     13  H   UNL     1       6.921   1.921  21.509  0.00  0.00    +0.212 HD
ENDBRANCH   5  12
BRANCH   1  14
ATOM     14  C   UNL     1       8.185   0.170  26.509  0.00  0.00    +0.177 C 
BRANCH  14  15
ATOM     15  O   UNL     1       9.094  -0.586  27.305  0.00  0.00    -0.393 OA
ATOM     16  H   UNL     1       9.751  -0.966  26.692  0.00  0.00    +0.209 HD
ENDBRANCH  14  15
ENDBRANCH   1  14
BRANCH   2  17
ATOM     17  O   UNL     1       8.375  -2.177  24.429  0.00  0.00    -0.341 OA
BRANCH  17  18
ATOM     18  C   UNL     1       8.875  -3.331  25.170  0.00  0.00    +0.282 C 
ATOM     19  C   UNL     1       8.587  -4.745  24.547  0.00  0.00    +0.201 C 
ATOM     20  C   UNL     1       7.338  -5.487  25.072  0.00  0.00    +0.179 C 
ATOM     21  C   UNL     1       7.058  -5.188  26.552  0.00  0.00    +0.177 C 
ATOM     22  C   UNL     1       7.203  -3.700  26.882  0.00  0.00    +0.178 C 
ATOM     23  O   UNL     1       8.512  -3.240  26.548  0.00  0.00    -0.341 OA
BRANCH  19  24
ATOM     24  O   UNL     1       9.720  -5.608  24.858  0.00  0.00    -0.384 OA
ATOM     25  H   UNL     1      10.187  -5.778  24.013  0.00  0.00    +0.210 HD
ENDBRANCH  19  24
BRANCH  20  26
ATOM     26  O   UNL     1       6.191  -5.295  24.241  0.00  0.00    -0.386 OA
ATOM     27  H   UNL     1       6.437  -5.523  23.320  0.00  0.00    +0.210 HD
ENDBRANCH  20  26
BRANCH  21  28
ATOM     28  O   UNL     1       8.022  -5.927  27.339  0.00  0.00    -0.386 OA
ATOM     29  H   UNL     1       7.545  -6.337  28.087  0.00  0.00    +0.210 HD
ENDBRANCH  21  28
BRANCH  22  30
ATOM     30  C   UNL     1       6.083  -2.800  26.345  0.00  0.00    +0.190 C 
BRANCH  30  31
ATOM     31  O   UNL     1       4.827  -3.451  26.230  0.00  0.00    -0.392 OA
ATOM     32  H   UNL     1       4.140  -2.766  26.051  0.00  0.00    +0.210 HD
ENDBRANCH  30  31
ENDBRANCH  22  30
ENDBRANCH  17  18
ENDBRANCH   2  17
TORSDOF 12
ENDMDL
MODEL 5
REMARK VINA RESULT:      -5.7      2.105      5.897
REMARK  Name = 
REMARK  12 active torsions:
REMARK  status: ('A' for Active; 'I' for Inactive)
REMARK    1  A    between atoms: O_1  and  C_2
REMARK    2  A    between atoms: C_2  and  CA_3
REMARK    3  A    between atoms: C_6  and  O_8
REMARK    4  A    between atoms: C_9  and  O_11
REMARK    5  A    between atoms: C_12  and  O_14
REMARK    6  A    between atoms: C_15  and  O_17
REMARK    7  A    between atoms: O_17  and  C_18
REMARK    8  A    between atoms: C_21  and  C_23
REMARK    9  A    between atoms: C_23  and  O_24
REMARK   10  A    between atoms: C_25  and  O_27
REMARK   11  A    between atoms: C_28  and  O_30
REMARK   12  A    between atoms: C_31  and  O_33
REMARK                            x       y       z     vdW  Elec       q    Type
REMARK                         _______ _______ _______ _____ _____    ______ ____
ROOT
ATOM      1  CA  UNL     1       8.552  -0.177  22.666  0.00  0.00    +0.113 C 
ATOM      2  C   UNL     1       7.523  -1.221  23.259  0.00  0.00    +0.172 C 
ATOM      3  C   UNL     1       7.028  -0.558  24.571  0.00  0.00    +0.177 C 
ATOM      4  C   UNL     1       8.196  -0.387  25.541  0.00  0.00    +0.189 C 
ATOM      5  C   UNL     1       9.288   0.484  24.894  0.00  0.00    +0.214 C 
ATOM      6  N   UNL     1       9.692   0.124  23.553  0.00  0.00    -0.282 NA
ATOM      7  H   UNL     1      10.268  -0.716  23.579  0.00  0.00    +0.125 HD
ENDROOT
BRANCH   3   8
ATOM      8  O   UNL     1       5.951  -1.246  25.204  0.00  0.00    -0.386 OA
ATOM      9  H   UNL     1       5.484  -1.715  24.483  0.00  0.00    +0.210 HD
ENDBRANCH   3   8
BRANCH   4  10
ATOM     10  O   UNL     1       7.688   0.262  26.725  0.00  0.00    -0.385 OA
ATOM     11  H   UNL     1       7.065   0.941  26.399  0.00  0.00    +0.210 HD
ENDBRANCH   4  10
BRANCH   5  12
ATOM     12  O   UNL     1      10.451   0.429  25.698  0.00  0.00    -0.375 OA
ATOM     13  H   UNL     1      10.830  -0.445  25.503  0.00  0.00    +0.212 HD
ENDBRANCH   5  12
BRANCH   1  14
ATOM     14  C   UNL     1       9.129  -0.525  21.278  0.00  0.00    +0.177 C 
BRANCH  14  15
ATOM     15  O   UNL     1      10.129  -1.535  21.374  0.00  0.00    -0.393 OA
ATOM     16  H   UNL     1      10.895  -1.219  20.857  0.00  0.00    +0.209 HD
ENDBRANCH  14  15
ENDBRANCH   1  14
BRANCH   2  17
ATOM     17  O   UNL     1       8.083  -2.561  23.431  0.00  0.00    -0.341 OA
BRANCH  17  18
ATOM     18  C   UNL     1       7.446  -3.558  22.578  0.00  0.00    +0.282 C 
ATOM     19  C   UNL     1       5.939  -3.307  22.209  0.00  0.00    +0.201 C 
ATOM     20  C   UNL     1       4.887  -4.013  23.093  0.00  0.00    +0.179 C 
ATOM     21  C   UNL     1       5.373  -5.376  23.607  0.00  0.00    +0.177 C 
ATOM     22  C   UNL     1       6.819  -5.327  24.109  0.00  0.00    +0.178 C 
ATOM     23  O   UNL     1       7.691  -4.875  23.073  0.00  0.00    -0.341 OA
BRANCH  19  24
ATOM     24  O   UNL     1       5.722  -3.809  20.858  0.00  0.00    -0.384 OA
ATOM     25  H   UNL     1       4.758  -3.756  20.687  0.00  0.00    +0.210 HD
ENDBRANCH  19  24
BRANCH  20  26
ATOM     26  O   UNL     1       4.389  -3.173  24.137  0.00  0.00    -0.386 OA
ATOM     27  H   UNL     1       3.424  -3.059  24.006  0.00  0.00    +0.210 HD
ENDBRANCH  20  26
BRANCH  21  28
ATOM     28  O   UNL     1       5.304  -6.311  22.503  0.00  0.00    -0.386 OA
ATOM     29  H   UNL     1       5.752  -5.902  21.737  0.00  0.00    +0.210 HD
ENDBRANCH  21  28
BRANCH  22  30
ATOM     30  C   UNL     1       7.022  -4.596  25.441  0.00  0.00    +0.190 C 
BRANCH  30  31
ATOM     31  O   UNL     1       5.815  -4.323  26.137  0.00  0.00    -0.392 OA
ATOM     32  H   UNL     1       5.060  -4.486  25.523  0.00  0.00    +0.210 HD
ENDBRANCH  30  31
ENDBRANCH  22  30
ENDBRANCH  17  18
ENDBRANCH   2  17
TORSDOF 12
ENDMDL
MODEL 6
REMARK VINA RESULT:      -5.7      1.849      3.849
REMARK  Name = 
REMARK  12 active torsions:
REMARK  status: ('A' for Active; 'I' for Inactive)
REMARK    1  A    between atoms: O_1  and  C_2
REMARK    2  A    between atoms: C_2  and  CA_3
REMARK    3  A    between atoms: C_6  and  O_8
REMARK    4  A    between atoms: C_9  and  O_11
REMARK    5  A    between atoms: C_12  and  O_14
REMARK    6  A    between atoms: C_15  and  O_17
REMARK    7  A    between atoms: O_17  and  C_18
REMARK    8  A    between atoms: C_21  and  C_23
REMARK    9  A    between atoms: C_23  and  O_24
REMARK   10  A    between atoms: C_25  and  O_27
REMARK   11  A    between atoms: C_28  and  O_30
REMARK   12  A    between atoms: C_31  and  O_33
REMARK                            x       y       z     vdW  Elec       q    Type
REMARK                         _______ _______ _______ _____ _____    ______ ____
ROOT
ATOM      1  CA  UNL     1       6.384  -3.318  25.628  0.00  0.00    +0.113 C 
ATOM      2  C   UNL     1       7.031  -2.975  24.227  0.00  0.00    +0.172 C 
ATOM      3  C   UNL     1       7.754  -4.283  23.815  0.00  0.00    +0.177 C 
ATOM      4  C   UNL     1       8.858  -4.608  24.820  0.00  0.00    +0.189 C 
ATOM      5  C   UNL     1       8.252  -4.765  26.227  0.00  0.00    +0.214 C 
ATOM      6  N   UNL     1       7.355  -3.719  26.664  0.00  0.00    -0.282 NA
ATOM      7  H   UNL     1       7.887  -2.883  26.902  0.00  0.00    +0.125 HD
ENDROOT
BRANCH   3   8
ATOM      8  O   UNL     1       8.276  -4.271  22.488  0.00  0.00    -0.386 OA
ATOM      9  H   UNL     1       8.713  -3.401  22.390  0.00  0.00    +0.210 HD
ENDBRANCH   3   8
BRANCH   4  10
ATOM     10  O   UNL     1       9.471  -5.848  24.409  0.00  0.00    -0.385 OA
ATOM     11  H   UNL     1       9.975  -5.630  23.601  0.00  0.00    +0.210 HD
ENDBRANCH   4  10
BRANCH   5  12
ATOM     12  O   UNL     1       9.304  -4.821  27.172  0.00  0.00    -0.375 OA
ATOM     13  H   UNL     1       8.875  -4.589  28.014  0.00  0.00    +0.212 HD
ENDBRANCH   5  12
BRANCH   1  14
ATOM     14  C   UNL     1       5.490  -2.218  26.237  0.00  0.00    +0.177 C 
BRANCH  14  15
ATOM     15  O   UNL     1       5.079  -1.280  25.245  0.00  0.00    -0.393 OA
ATOM     16  H   UNL     1       4.384  -0.730  25.654  0.00  0.00    +0.209 HD
ENDBRANCH  14  15
ENDBRANCH   1  14
BRANCH   2  17
ATOM     17  O   UNL     1       7.891  -1.791  24.255  0.00  0.00    -0.341 OA
BRANCH  17  18
ATOM     18  C   UNL     1       8.104  -1.212  22.933  0.00  0.00    +0.282 C 
ATOM     19  C   UNL     1       9.596  -0.959  22.509  0.00  0.00    +0.201 C 
ATOM     20  C   UNL     1      10.150   0.463  22.752  0.00  0.00    +0.179 C 
ATOM     21  C   UNL     1       9.074   1.546  22.591  0.00  0.00    +0.177 C 
ATOM     22  C   UNL     1       7.755   1.161  23.268  0.00  0.00    +0.178 C 
ATOM     23  O   UNL     1       7.266  -0.072  22.742  0.00  0.00    -0.341 OA
BRANCH  19  24
ATOM     24  O   UNL     1       9.695  -1.182  21.072  0.00  0.00    -0.384 OA
ATOM     25  H   UNL     1      10.550  -0.799  20.783  0.00  0.00    +0.210 HD
ENDBRANCH  19  24
BRANCH  20  26
ATOM     26  O   UNL     1      10.867   0.573  23.984  0.00  0.00    -0.386 OA
ATOM     27  H   UNL     1      10.730  -0.252  24.494  0.00  0.00    +0.210 HD
ENDBRANCH  20  26
BRANCH  21  28
ATOM     28  O   UNL     1       8.828   1.713  21.174  0.00  0.00    -0.386 OA
ATOM     29  H   UNL     1       9.112   0.894  20.724  0.00  0.00    +0.210 HD
ENDBRANCH  21  28
BRANCH  22  30
ATOM     30  C   UNL     1       7.771   1.208  24.801  0.00  0.00    +0.190 C 
BRANCH  30  31
ATOM     31  O   UNL     1       8.700   2.137  25.339  0.00  0.00    -0.392 OA
ATOM     32  H   UNL     1       8.916   2.798  24.638  0.00  0.00    +0.210 HD
ENDBRANCH  30  31
ENDBRANCH  22  30
ENDBRANCH  17  18
ENDBRANCH   2  17
TORSDOF 12
ENDMDL
MODEL 7
REMARK VINA RESULT:      -5.7      1.958      3.416
REMARK  Name = 
REMARK  12 active torsions:
REMARK  status: ('A' for Active; 'I' for Inactive)
REMARK    1  A    between atoms: O_1  and  C_2
REMARK    2  A    between atoms: C_2  and  CA_3
REMARK    3  A    between atoms: C_6  and  O_8
REMARK    4  A    between atoms: C_9  and  O_11
REMARK    5  A    between atoms: C_12  and  O_14
REMARK    6  A    between atoms: C_15  and  O_17
REMARK    7  A    between atoms: O_17  and  C_18
REMARK    8  A    between atoms: C_21  and  C_23
REMARK    9  A    between atoms: C_23  and  O_24
REMARK   10  A    between atoms: C_25  and  O_27
REMARK   11  A    between atoms: C_28  and  O_30
REMARK   12  A    between atoms: C_31  and  O_33
REMARK                            x       y       z     vdW  Elec       q    Type
REMARK                         _______ _______ _______ _____ _____    ______ ____
ROOT
ATOM      1  CA  UNL     1       7.329  -2.091  25.956  0.00  0.00    +0.113 C 
ATOM      2  C   UNL     1       6.859  -1.489  24.572  0.00  0.00    +0.172 C 
ATOM      3  C   UNL     1       6.653  -2.734  23.671  0.00  0.00    +0.177 C 
ATOM      4  C   UNL     1       7.980  -3.468  23.483  0.00  0.00    +0.189 C 
ATOM      5  C   UNL     1       8.536  -3.898  24.852  0.00  0.00    +0.214 C 
ATOM      6  N   UNL     1       8.570  -2.886  25.884  0.00  0.00    -0.282 NA
ATOM      7  H   UNL     1       9.325  -2.227  25.698  0.00  0.00    +0.125 HD
ENDROOT
BRANCH   3   8
ATOM      8  O   UNL     1       6.057  -2.450  22.407  0.00  0.00    -0.386 OA
ATOM      9  H   UNL     1       5.211  -2.004  22.614  0.00  0.00    +0.210 HD
ENDBRANCH   3   8
BRANCH   4  10
ATOM     10  O   UNL     1       7.724  -4.631  22.669  0.00  0.00    -0.385 OA
ATOM     11  H   UNL     1       8.481  -5.228  22.829  0.00  0.00    +0.210 HD
ENDBRANCH   4  10
BRANCH   5  12
ATOM     12  O   UNL     1       9.866  -4.352  24.683  0.00  0.00    -0.375 OA
ATOM     13  H   UNL     1       9.824  -5.293  24.922  0.00  0.00    +0.212 HD
ENDBRANCH   5  12
BRANCH   1  14
ATOM     14  C   UNL     1       7.503  -1.072  27.101  0.00  0.00    +0.177 C 
BRANCH  14  15
ATOM     15  O   UNL     1       8.701  -0.316  26.942  0.00  0.00    -0.393 OA
ATOM     16  H   UNL     1       8.622   0.154  26.090  0.00  0.00    +0.209 HD
ENDBRANCH  14  15
ENDBRANCH   1  14
BRANCH   2  17
ATOM     17  O   UNL     1       7.779  -0.492  24.025  0.00  0.00    -0.341 OA
BRANCH  17  18
ATOM     18  C   UNL     1       7.188   0.839  23.937  0.00  0.00    +0.282 C 
ATOM     19  C   UNL     1       6.913   1.390  22.491  0.00  0.00    +0.201 C 
ATOM     20  C   UNL     1       8.003   2.299  21.881  0.00  0.00    +0.179 C 
ATOM     21  C   UNL     1       8.719   3.148  22.942  0.00  0.00    +0.177 C 
ATOM     22  C   UNL     1       9.074   2.338  24.192  0.00  0.00    +0.178 C 
ATOM     23  O   UNL     1       7.899   1.762  24.763  0.00  0.00    -0.341 OA
BRANCH  19  24
ATOM     24  O   UNL     1       5.704   2.204  22.547  0.00  0.00    -0.384 OA
ATOM     25  H   UNL     1       5.245   2.089  21.689  0.00  0.00    +0.210 HD
ENDBRANCH  19  24
BRANCH  20  26
ATOM     26  O   UNL     1       8.910   1.586  21.038  0.00  0.00    -0.386 OA
ATOM     27  H   UNL     1       9.498   1.046  21.606  0.00  0.00    +0.210 HD
ENDBRANCH  20  26
BRANCH  21  28
ATOM     28  O   UNL     1       7.822   4.216  23.328  0.00  0.00    -0.386 OA
ATOM     29  H   UNL     1       7.008   3.808  23.683  0.00  0.00    +0.210 HD
ENDBRANCH  21  28
BRANCH  22  30
ATOM     30  C   UNL     1      10.222   1.337  24.016  0.00  0.00    +0.190 C 
BRANCH  30  31
ATOM     31  O   UNL     1      10.540   0.613  25.195  0.00  0.00    -0.392 OA
ATOM     32  H   UNL     1      11.192   1.141  25.715  0.00  0.00    +0.210 HD
ENDBRANCH  30  31
ENDBRANCH  22  30
ENDBRANCH  17  18
ENDBRANCH   2  17
TORSDOF 12
ENDMDL
MODEL 8
REMARK VINA RESULT:      -5.6      2.447      5.584
REMARK  Name = 
REMARK  12 active torsions:
REMARK  status: ('A' for Active; 'I' for Inactive)
REMARK    1  A    between atoms: O_1  and  C_2
REMARK    2  A    between atoms: C_2  and  CA_3
REMARK    3  A    between atoms: C_6  and  O_8
REMARK    4  A    between atoms: C_9  and  O_11
REMARK    5  A    between atoms: C_12  and  O_14
REMARK    6  A    between atoms: C_15  and  O_17
REMARK    7  A    between atoms: O_17  and  C_18
REMARK    8  A    between atoms: C_21  and  C_23
REMARK    9  A    between atoms: C_23  and  O_24
REMARK   10  A    between atoms: C_25  and  O_27
REMARK   11  A    between atoms: C_28  and  O_30
REMARK   12  A    between atoms: C_31  and  O_33
REMARK                            x       y       z     vdW  Elec       q    Type
REMARK                         _______ _______ _______ _____ _____    ______ ____
ROOT
ATOM      1  CA  UNL     1       8.256   0.189  24.473  0.00  0.00    +0.113 C 
ATOM      2  C   UNL     1       8.359  -1.387  24.545  0.00  0.00    +0.172 C 
ATOM      3  C   UNL     1       9.726  -1.706  23.887  0.00  0.00    +0.177 C 
ATOM      4  C   UNL     1       9.717  -1.263  22.425  0.00  0.00    +0.189 C 
ATOM      5  C   UNL     1       9.434   0.248  22.340  0.00  0.00    +0.214 C 
ATOM      6  N   UNL     1       8.310   0.740  23.105  0.00  0.00    -0.282 NA
ATOM      7  H   UNL     1       7.439   0.472  22.650  0.00  0.00    +0.125 HD
ENDROOT
BRANCH   3   8
ATOM      8  O   UNL     1      10.122  -3.071  23.992  0.00  0.00    -0.386 OA
ATOM      9  H   UNL     1      11.092  -3.050  24.126  0.00  0.00    +0.210 HD
ENDBRANCH   3   8
BRANCH   4  10
ATOM     10  O   UNL     1      11.020  -1.550  21.874  0.00  0.00    -0.385 OA
ATOM     11  H   UNL     1      11.281  -0.739  21.395  0.00  0.00    +0.210 HD
ENDBRANCH   4  10
BRANCH   5  12
ATOM     12  O   UNL     1       9.188   0.591  20.989  0.00  0.00    -0.375 OA
ATOM     13  H   UNL     1      10.066   0.828  20.644  0.00  0.00    +0.212 HD
ENDBRANCH   5  12
BRANCH   1  14
ATOM     14  C   UNL     1       7.026   0.809  25.169  0.00  0.00    +0.177 C 
BRANCH  14  15
ATOM     15  O   UNL     1       5.849   0.639  24.384  0.00  0.00    -0.393 OA
ATOM     16  H   UNL     1       5.233   1.348  24.650  0.00  0.00    +0.209 HD
ENDBRANCH  14  15
ENDBRANCH   1  14
BRANCH   2  17
ATOM     17  O   UNL     1       7.220  -2.076  23.938  0.00  0.00    -0.341 OA
BRANCH  17  18
ATOM     18  C   UNL     1       6.345  -2.706  24.922  0.00  0.00    +0.282 C 
ATOM     19  C   UNL     1       6.928  -2.878  26.372  0.00  0.00    +0.201 C 
ATOM     20  C   UNL     1       7.570  -4.245  26.698  0.00  0.00    +0.179 C 
ATOM     21  C   UNL     1       6.882  -5.405  25.965  0.00  0.00    +0.177 C 
ATOM     22  C   UNL     1       6.593  -5.077  24.497  0.00  0.00    +0.178 C 
ATOM     23  O   UNL     1       5.781  -3.908  24.398  0.00  0.00    -0.341 OA
BRANCH  19  24
ATOM     24  O   UNL     1       5.829  -2.722  27.316  0.00  0.00    -0.384 OA
ATOM     25  H   UNL     1       5.503  -3.622  27.524  0.00  0.00    +0.210 HD
ENDBRANCH  19  24
BRANCH  20  26
ATOM     26  O   UNL     1       8.989  -4.245  26.525  0.00  0.00    -0.386 OA
ATOM     27  H   UNL     1       9.244  -3.410  26.078  0.00  0.00    +0.210 HD
ENDBRANCH  20  26
BRANCH  21  28
ATOM     28  O   UNL     1       5.622  -5.659  26.632  0.00  0.00    -0.386 OA
ATOM     29  H   UNL     1       4.920  -5.666  25.952  0.00  0.00    +0.210 HD
ENDBRANCH  21  28
BRANCH  22  30
ATOM     30  C   UNL     1       7.823  -5.045  23.582  0.00  0.00    +0.190 C 
BRANCH  30  31
ATOM     31  O   UNL     1       8.965  -5.686  24.131  0.00  0.00    -0.392 OA
ATOM     32  H   UNL     1       9.567  -4.990  24.490  0.00  0.00    +0.210 HD
ENDBRANCH  30  31
ENDBRANCH  22  30
ENDBRANCH  17  18
ENDBRANCH   2  17
TORSDOF 12
ENDMDL
MODEL 9
REMARK VINA RESULT:      -5.6      3.835      6.678
REMARK  Name = 
REMARK  12 active torsions:
REMARK  status: ('A' for Active; 'I' for Inactive)
REMARK    1  A    between atoms: O_1  and  C_2
REMARK    2  A    between atoms: C_2  and  CA_3
REMARK    3  A    between atoms: C_6  and  O_8
REMARK    4  A    between atoms: C_9  and  O_11
REMARK    5  A    between atoms: C_12  and  O_14
REMARK    6  A    between atoms: C_15  and  O_17
REMARK    7  A    between atoms: O_17  and  C_18
REMARK    8  A    between atoms: C_21  and  C_23
REMARK    9  A    between atoms: C_23  and  O_24
REMARK   10  A    between atoms: C_25  and  O_27
REMARK   11  A    between atoms: C_28  and  O_30
REMARK   12  A    between atoms: C_31  and  O_33
REMARK                            x       y       z     vdW  Elec       q    Type
REMARK                         _______ _______ _______ _____ _____    ______ ____
ROOT
ATOM      1  CA  UNL     1       7.856  -4.934  24.237  0.00  0.00    +0.113 C 
ATOM      2  C   UNL     1       6.314  -5.278  24.208  0.00  0.00    +0.172 C 
ATOM      3  C   UNL     1       5.928  -5.154  22.711  0.00  0.00    +0.177 C 
ATOM      4  C   UNL     1       6.138  -3.717  22.236  0.00  0.00    +0.189 C 
ATOM      5  C   UNL     1       7.610  -3.313  22.433  0.00  0.00    +0.214 C 
ATOM      6  N   UNL     1       8.189  -3.589  23.729  0.00  0.00    -0.282 NA
ATOM      7  H   UNL     1       7.834  -2.924  24.415  0.00  0.00    +0.125 HD
ENDROOT
BRANCH   3   8
ATOM      8  O   UNL     1       4.605  -5.590  22.409  0.00  0.00    -0.386 OA
ATOM      9  H   UNL     1       4.526  -6.479  22.812  0.00  0.00    +0.210 HD
ENDBRANCH   3   8
BRANCH   4  10
ATOM     10  O   UNL     1       5.798  -3.666  20.834  0.00  0.00    -0.385 OA
ATOM     11  H   UNL     1       4.825  -3.746  20.802  0.00  0.00    +0.210 HD
ENDBRANCH   4  10
BRANCH   5  12
ATOM     12  O   UNL     1       7.733  -1.919  22.221  0.00  0.00    -0.375 OA
ATOM     13  H   UNL     1       8.691  -1.759  22.263  0.00  0.00    +0.212 HD
ENDBRANCH   5  12
BRANCH   1  14
ATOM     14  C   UNL     1       8.549  -5.092  25.606  0.00  0.00    +0.177 C 
BRANCH  14  15
ATOM     15  O   UNL     1       9.711  -5.910  25.504  0.00  0.00    -0.393 OA
ATOM     16  H   UNL     1      10.239  -5.554  24.764  0.00  0.00    +0.209 HD
ENDBRANCH  14  15
ENDBRANCH   1  14
BRANCH   2  17
ATOM     17  O   UNL     1       5.513  -4.451  25.110  0.00  0.00    -0.341 OA
BRANCH  17  18
ATOM     18  C   UNL     1       4.948  -5.205  26.224  0.00  0.00    +0.282 C 
ATOM     19  C   UNL     1       4.924  -6.769  26.072  0.00  0.00    +0.201 C 
ATOM     20  C   UNL     1       3.612  -7.390  25.543  0.00  0.00    +0.179 C 
ATOM     21  C   UNL     1       2.371  -6.607  25.993  0.00  0.00    +0.177 C 
ATOM     22  C   UNL     1       2.557  -5.093  25.858  0.00  0.00    +0.178 C 
ATOM     23  O   UNL     1       3.687  -4.660  26.614  0.00  0.00    -0.341 OA
BRANCH  19  24
ATOM     24  O   UNL     1       5.132  -7.349  27.394  0.00  0.00    -0.384 OA
ATOM     25  H   UNL     1       6.003  -7.798  27.373  0.00  0.00    +0.210 HD
ENDBRANCH  19  24
BRANCH  20  26
ATOM     26  O   UNL     1       3.640  -7.622  24.133  0.00  0.00    -0.386 OA
ATOM     27  H   UNL     1       3.073  -6.950  23.700  0.00  0.00    +0.210 HD
ENDBRANCH  20  26
BRANCH  21  28
ATOM     28  O   UNL     1       2.140  -6.916  27.388  0.00  0.00    -0.386 OA
ATOM     29  H   UNL     1       2.870  -7.489  27.692  0.00  0.00    +0.210 HD
ENDBRANCH  21  28
BRANCH  22  30
ATOM     30  C   UNL     1       2.543  -4.561  24.420  0.00  0.00    +0.190 C 
BRANCH  30  31
ATOM     31  O   UNL     1       1.824  -5.380  23.510  0.00  0.00    -0.392 OA
ATOM     32  H   UNL     1       1.195  -5.938  24.027  0.00  0.00    +0.210 HD
ENDBRANCH  30  31
ENDBRANCH  22  30
ENDBRANCH  17  18
ENDBRANCH   2  17
TORSDOF 12
ENDMDL
