MODEL 1
REMARK VINA RESULT:      -2.8      0.000      0.000
REMARK  Name = 
REMARK  49 active torsions:
REMARK  status: ('A' for Active; 'I' for Inactive)
REMARK    1  A    between atoms: C_1  and  C_2
REMARK    2  A    between atoms: N_4  and  C_5
REMARK    3  A    between atoms: C_9  and  C_11
REMARK    4  A    between atoms: C_11  and  O_12
REMARK    5  A    between atoms: C_13  and  O_15
REMARK    6  A    between atoms: O_15  and  C_16
REMARK    7  A    between atoms: C_19  and  C_21
REMARK    8  A    between atoms: C_21  and  O_22
REMARK    9  A    between atoms: C_23  and  O_25
REMARK   10  A    between atoms: O_25  and  C_26
REMARK   11  A    between atoms: C_29  and  C_31
REMARK   12  A    between atoms: C_31  and  O_32
REMARK   13  A    between atoms: O_32  and  C_33
REMARK   14  A    between atoms: C_36  and  C_38
REMARK   15  A    between atoms: C_38  and  O_39
REMARK   16  A    between atoms: C_40  and  O_42
REMARK   17  A    between atoms: C_43  and  O_45
REMARK   18  A    between atoms: O_45  and  C_46
REMARK   19  A    between atoms: C_49  and  C_51
REMARK   20  A    between atoms: C_51  and  O_52
REMARK   21  A    between atoms: C_53  and  O_55
REMARK   22  A    between atoms: C_56  and  O_58
REMARK   23  A    between atoms: C_59  and  O_61
REMARK   24  A    between atoms: C_62  and  O_64
REMARK   25  A    between atoms: C_65  and  O_67
REMARK   26  A    between atoms: C_68  and  O_70
REMARK   27  A    between atoms: O_70  and  C_71
REMARK   28  A    between atoms: C_74  and  C_76
REMARK   29  A    between atoms: C_76  and  O_77
REMARK   30  A    between atoms: C_78  and  O_80
REMARK   31  A    between atoms: C_81  and  O_83
REMARK   32  A    between atoms: C_84  and  O_86
REMARK   33  A    between atoms: O_86  and  C_87
REMARK   34  A    between atoms: C_90  and  C_92
REMARK   35  A    between atoms: C_92  and  O_93
REMARK   36  A    between atoms: C_94  and  O_96
REMARK   37  A    between atoms: C_97  and  O_99
REMARK   38  A    between atoms: C_100  and  O_102
REMARK   39  A    between atoms: O_102  and  C_103
REMARK   40  A    between atoms: C_106  and  C_108
REMARK   41  A    between atoms: C_108  and  O_109
REMARK   42  A    between atoms: C_110  and  O_112
REMARK   43  A    between atoms: C_113  and  O_115
REMARK   44  A    between atoms: C_116  and  O_118
REMARK   45  A    between atoms: C_119  and  O_121
REMARK   46  A    between atoms: C_122  and  O_124
REMARK   47  A    between atoms: C_125  and  N_127
REMARK   48  A    between atoms: C_128  and  C_129
REMARK   49  A    between atoms: C_131  and  O_133
REMARK                            x       y       z     vdW  Elec       q    Type
REMARK                         _______ _______ _______ _____ _____    ______ ____
ROOT
ATOM      1  C   UNL     1       7.468  -1.013  24.546  0.00  0.00    +0.282 C 
ATOM      2  C   UNL     1       6.809  -2.240  25.322  0.00  0.00    +0.202 C 
ATOM      3  C   UNL     1       6.323  -1.894  26.758  0.00  0.00    +0.186 C 
ATOM      4  C   UNL     1       7.521  -1.138  27.478  0.00  0.00    +0.177 C 
ATOM      5  C   UNL     1       8.252   0.098  26.705  0.00  0.00    +0.178 C 
ATOM      6  O   UNL     1       8.314  -0.083  25.258  0.00  0.00    -0.341 OA
ENDROOT
BRANCH   4   7
ATOM      7  O   UNL     1       8.575  -2.125  27.674  0.00  0.00    -0.386 OA
ATOM      8  H   UNL     1       9.016  -1.938  28.530  0.00  0.00    +0.210 HD
ENDBRANCH   4   7
BRANCH   2   9
ATOM      9  O   UNL     1       7.731  -3.351  25.358  0.00  0.00    -0.384 OA
ATOM     10  H   UNL     1       7.206  -4.146  25.589  0.00  0.00    +0.210 HD
ENDBRANCH   2   9
BRANCH   1  11
ATOM     11  O   UNL     1       6.456  -0.268  23.874  0.00  0.00    -0.340 OA
BRANCH  11  15
ATOM     12  C   UNL     1       7.208   3.511  21.866  0.00  0.00    +0.274 C 
ATOM     13  C   UNL     1       5.895   3.295  22.669  0.00  0.00    +0.160 C 
ATOM     14  C   UNL     1       6.097   2.128  23.680  0.00  0.00    +0.171 C 
ATOM     15  C   UNL     1       6.720   0.873  23.024  0.00  0.00    +0.183 C 
ATOM     16  C   UNL     1       8.036   1.226  22.264  0.00  0.00    +0.178 C 
ATOM     17  O   UNL     1       7.750   2.301  21.318  0.00  0.00    -0.341 OA
BRANCH  13  18
ATOM     18  N   UNL     1       4.706   3.122  21.814  0.00  0.00    -0.305 N 
ATOM     19  H   UNL     1       4.838   2.720  20.894  0.00  0.00    +0.149 HD
ATOM     20  C   UNL     1       3.450   3.633  21.939  0.00  0.00    +0.210 C 
ATOM     21  O   UNL     1       2.690   3.471  20.974  0.00  0.00    -0.276 OA
ATOM     22  C   UNL     1       2.986   4.370  23.163  0.00  0.00    +0.109 C 
ENDBRANCH  13  18
BRANCH  14  23
ATOM     23  O   UNL     1       6.922   2.587  24.748  0.00  0.00    -0.387 OA
ATOM     24  H   UNL     1       7.443   1.847  25.044  0.00  0.00    +0.210 HD
ENDBRANCH  14  23
BRANCH  12  25
ATOM     25  O   UNL     1       8.124   4.185  22.723  0.00  0.00    -0.341 OA
BRANCH  25  28
ATOM     26  C   UNL     1       9.871   5.653  24.663  0.00  0.00    +0.130 C 
ATOM     27  C   UNL     1       8.682   4.728  25.044  0.00  0.00    +0.168 C 
ATOM     28  C   UNL     1       7.615   4.762  23.935  0.00  0.00    +0.183 C 
ATOM     29  C   UNL     1       7.232   6.233  23.580  0.00  0.00    +0.175 C 
ATOM     30  O   UNL     1       8.370   7.096  23.404  0.00  0.00    -0.370 OA
ATOM     31  C   UNL     1       9.325   7.067  24.470  0.00  0.00    +0.185 C 
BRANCH  26  34
ATOM     32  C   UNL     1      12.868   5.369  24.083  0.00  0.00    +0.109 C 
ATOM     33  C   UNL     1      11.811   5.314  23.029  0.00  0.00    +0.210 C 
ATOM     34  N   UNL     1      10.506   5.224  23.407  0.00  0.00    -0.308 N 
ATOM     35  H   UNL     1       9.922   5.358  22.581  0.00  0.00    +0.149 HD
ATOM     36  O   UNL     1      12.093   5.268  21.834  0.00  0.00    -0.276 OA
ENDBRANCH  26  34
BRANCH  27  37
ATOM     37  O   UNL     1       8.120   5.118  26.297  0.00  0.00    -0.387 OA
ATOM     38  H   UNL     1       7.598   4.366  26.646  0.00  0.00    +0.210 HD
ENDBRANCH  27  37
BRANCH  29  39
ATOM     39  C   UNL     1       6.216   6.868  24.534  0.00  0.00    +0.190 C 
BRANCH  39  40
ATOM     40  O   UNL     1       5.474   5.872  25.232  0.00  0.00    -0.392 OA
ATOM     41  H   UNL     1       5.199   6.261  26.083  0.00  0.00    +0.210 HD
ENDBRANCH  39  40
ENDBRANCH  29  39
ENDBRANCH  25  28
ENDBRANCH  12  25
BRANCH  16  42
ATOM     42  C   UNL     1       9.346   1.559  23.005  0.00  0.00    +0.190 C 
BRANCH  42  43
ATOM     43  O   UNL     1      10.507   1.501  22.197  0.00  0.00    -0.392 OA
ATOM     44  H   UNL     1      10.319   2.012  21.387  0.00  0.00    +0.210 HD
ENDBRANCH  42  43
ENDBRANCH  16  42
ENDBRANCH  11  15
ENDBRANCH   1  11
BRANCH   3  45
ATOM     45  O   UNL     1       5.762  -3.176  27.458  0.00  0.00    -0.340 OA
BRANCH  45  46
ATOM     46  C   UNL     1       6.493  -4.416  27.125  0.00  0.00    +0.283 C 
ATOM     47  C   UNL     1       5.910  -5.830  26.467  0.00  0.00    +0.208 C 
ATOM     48  C   UNL     1       5.274  -6.828  27.477  0.00  0.00    +0.179 C 
ATOM     49  C   UNL     1       6.118  -6.970  28.751  0.00  0.00    +0.177 C 
ATOM     50  C   UNL     1       6.576  -5.601  29.288  0.00  0.00    +0.178 C 
ATOM     51  O   UNL     1       7.240  -4.793  28.298  0.00  0.00    -0.341 OA
BRANCH  48  52
ATOM     52  O   UNL     1       3.895  -6.630  27.792  0.00  0.00    -0.386 OA
ATOM     53  H   UNL     1       3.384  -7.428  27.572  0.00  0.00    +0.210 HD
ENDBRANCH  48  52
BRANCH  49  54
ATOM     54  O   UNL     1       7.291  -7.749  28.437  0.00  0.00    -0.386 OA
ATOM     55  H   UNL     1       7.724  -7.311  27.683  0.00  0.00    +0.210 HD
ENDBRANCH  49  54
BRANCH  50  56
ATOM     56  C   UNL     1       5.475  -4.868  30.071  0.00  0.00    +0.190 C 
BRANCH  56  57
ATOM     57  O   UNL     1       4.417  -5.763  30.405  0.00  0.00    -0.392 OA
ATOM     58  H   UNL     1       4.780  -6.454  30.986  0.00  0.00    +0.210 HD
ENDBRANCH  56  57
ENDBRANCH  50  56
BRANCH  47  59
ATOM     59  O   UNL     1       5.212  -5.958  25.193  0.00  0.00    -0.338 OA
BRANCH  59  60
ATOM     60  C   UNL     1       5.245  -4.818  24.308  0.00  0.00    +0.283 C 
ATOM     61  C   UNL     1       4.036  -4.672  23.288  0.00  0.00    +0.208 C 
ATOM     62  C   UNL     1       4.320  -5.273  21.871  0.00  0.00    +0.179 C 
ATOM     63  C   UNL     1       5.718  -4.827  21.317  0.00  0.00    +0.177 C 
ATOM     64  C   UNL     1       6.851  -4.874  22.373  0.00  0.00    +0.178 C 
ATOM     65  O   UNL     1       6.534  -4.575  23.747  0.00  0.00    -0.341 OA
BRANCH  63  66
ATOM     66  O   UNL     1       5.644  -3.485  20.797  0.00  0.00    -0.386 OA
ATOM     67  H   UNL     1       4.775  -3.413  20.319  0.00  0.00    +0.210 HD
ENDBRANCH  63  66
BRANCH  62  68
ATOM     68  O   UNL     1       4.223  -6.698  21.832  0.00  0.00    -0.386 OA
ATOM     69  H   UNL     1       4.288  -7.048  22.736  0.00  0.00    +0.210 HD
ENDBRANCH  62  68
BRANCH  64  70
ATOM     70  C   UNL     1       7.747  -6.118  22.247  0.00  0.00    +0.190 C 
BRANCH  70  71
ATOM     71  O   UNL     1       8.803  -6.080  23.211  0.00  0.00    -0.392 OA
ATOM     72  H   UNL     1       9.241  -5.210  23.149  0.00  0.00    +0.210 HD
ENDBRANCH  70  71
ENDBRANCH  64  70
BRANCH  61  73
ATOM     73  O   UNL     1       2.711  -4.507  23.856  0.00  0.00    -0.338 OA
BRANCH  73  74
ATOM     74  C   UNL     1       1.668  -5.436  24.222  0.00  0.00    +0.282 C 
ATOM     75  C   UNL     1       2.337  -6.406  25.290  0.00  0.00    +0.201 C 
ATOM     76  C   UNL     1       2.629  -7.825  24.740  0.00  0.00    +0.179 C 
ATOM     77  C   UNL     1       1.306  -8.430  24.253  0.00  0.00    +0.177 C 
ATOM     78  C   UNL     1       0.636  -7.488  23.223  0.00  0.00    +0.178 C 
ATOM     79  O   UNL     1       1.191  -6.158  23.085  0.00  0.00    -0.341 OA
BRANCH  75  80
ATOM     80  O   UNL     1       1.526  -6.515  26.498  0.00  0.00    -0.384 OA
ATOM     81  H   UNL     1       0.770  -7.116  26.298  0.00  0.00    +0.210 HD
ENDBRANCH  75  80
BRANCH  76  82
ATOM     82  O   UNL     1       3.633  -7.816  23.724  0.00  0.00    -0.386 OA
ATOM     83  H   UNL     1       3.332  -7.195  22.997  0.00  0.00    +0.210 HD
ENDBRANCH  76  82
BRANCH  77  84
ATOM     84  O   UNL     1       0.443  -8.666  25.388  0.00  0.00    -0.386 OA
ATOM     85  H   UNL     1       0.712  -9.503  25.817  0.00  0.00    +0.210 HD
ENDBRANCH  77  84
BRANCH  78  86
ATOM     86  C   UNL     1       0.845  -8.110  21.826  0.00  0.00    +0.190 C 
BRANCH  86  87
ATOM     87  O   UNL     1       1.483  -9.388  21.941  0.00  0.00    -0.392 OA
ATOM     88  H   UNL     1       0.748 -10.030  22.075  0.00  0.00    +0.210 HD
ENDBRANCH  86  87
ENDBRANCH  78  86
ENDBRANCH  73  74
ENDBRANCH  61  73
ENDBRANCH  59  60
ENDBRANCH  47  59
ENDBRANCH  45  46
ENDBRANCH   3  45
BRANCH   5  89
ATOM     89  C   UNL     1       8.105   1.735  27.200  0.00  0.00    +0.197 C 
BRANCH  89  90
ATOM     90  O   UNL     1       6.769   2.412  26.861  0.00  0.00    -0.346 OA
BRANCH  90  91
ATOM     91  C   UNL     1       5.935   3.039  27.954  0.00  0.00    +0.282 C 
ATOM     92  C   UNL     1       5.367   2.076  29.181  0.00  0.00    +0.202 C 
ATOM     93  C   UNL     1       3.944   1.377  29.070  0.00  0.00    +0.186 C 
ATOM     94  C   UNL     1       2.975   2.426  28.469  0.00  0.00    +0.177 C 
ATOM     95  C   UNL     1       3.578   3.193  27.262  0.00  0.00    +0.178 C 
ATOM     96  O   UNL     1       4.846   3.848  27.469  0.00  0.00    -0.341 OA
BRANCH  92  97
ATOM     97  O   UNL     1       5.247   2.951  30.370  0.00  0.00    -0.384 OA
ATOM     98  H   UNL     1       4.312   3.254  30.466  0.00  0.00    +0.210 HD
ENDBRANCH  92  97
BRANCH  94  99
ATOM     99  O   UNL     1       2.600   3.360  29.506  0.00  0.00    -0.386 OA
ATOM    100  H   UNL     1       2.535   2.865  30.350  0.00  0.00    +0.210 HD
ENDBRANCH  94  99
BRANCH  95 101
ATOM    101  C   UNL     1       3.664   2.275  26.050  0.00  0.00    +0.190 C 
BRANCH 101 102
ATOM    102  O   UNL     1       2.813   1.147  26.230  0.00  0.00    -0.392 OA
ATOM    103  H   UNL     1       3.162   0.656  26.995  0.00  0.00    +0.210 HD
ENDBRANCH 101 102
ENDBRANCH  95 101
BRANCH  93 104
ATOM    104  O   UNL     1       3.820   0.079  28.394  0.00  0.00    -0.340 OA
BRANCH 104 105
ATOM    105  C   UNL     1       2.803  -0.878  28.954  0.00  0.00    +0.282 C 
ATOM    106  C   UNL     1       3.412  -2.338  29.061  0.00  0.00    +0.201 C 
ATOM    107  C   UNL     1       2.575  -3.532  28.540  0.00  0.00    +0.179 C 
ATOM    108  C   UNL     1       1.089  -3.293  28.387  0.00  0.00    +0.177 C 
ATOM    109  C   UNL     1       0.708  -1.868  27.960  0.00  0.00    +0.178 C 
ATOM    110  O   UNL     1       1.586  -0.765  28.233  0.00  0.00    -0.341 OA
BRANCH 106 111
ATOM    111  O   UNL     1       3.694  -2.607  30.461  0.00  0.00    -0.384 OA
ATOM    112  H   UNL     1       3.393  -3.513  30.664  0.00  0.00    +0.210 HD
ENDBRANCH 106 111
BRANCH 107 113
ATOM    113  O   UNL     1       3.109  -4.090  27.335  0.00  0.00    -0.386 OA
ATOM    114  H   UNL     1       2.864  -3.537  26.589  0.00  0.00    +0.210 HD
ENDBRANCH 107 113
BRANCH 108 115
ATOM    115  O   UNL     1       0.443  -3.590  29.636  0.00  0.00    -0.386 OA
ATOM    116  H   UNL     1       0.207  -4.536  29.637  0.00  0.00    +0.210 HD
ENDBRANCH 108 115
BRANCH 109 117
ATOM    117  C   UNL     1       0.444  -1.763  26.445  0.00  0.00    +0.190 C 
BRANCH 117 118
ATOM    118  O   UNL     1       0.787  -2.994  25.799  0.00  0.00    -0.392 OA
ATOM    119  H   UNL     1      -0.021  -3.540  25.784  0.00  0.00    +0.210 HD
ENDBRANCH 117 118
ENDBRANCH 109 117
ENDBRANCH 104 105
ENDBRANCH  93 104
ENDBRANCH  90  91
ENDBRANCH  89  90
ENDBRANCH   5  89
TORSDOF 47
ENDMDL
MODEL 2
REMARK VINA RESULT:      -2.6      2.128      7.272
REMARK  Name = 
REMARK  49 active torsions:
REMARK  status: ('A' for Active; 'I' for Inactive)
REMARK    1  A    between atoms: C_1  and  C_2
REMARK    2  A    between atoms: N_4  and  C_5
REMARK    3  A    between atoms: C_9  and  C_11
REMARK    4  A    between atoms: C_11  and  O_12
REMARK    5  A    between atoms: C_13  and  O_15
REMARK    6  A    between atoms: O_15  and  C_16
REMARK    7  A    between atoms: C_19  and  C_21
REMARK    8  A    between atoms: C_21  and  O_22
REMARK    9  A    between atoms: C_23  and  O_25
REMARK   10  A    between atoms: O_25  and  C_26
REMARK   11  A    between atoms: C_29  and  C_31
REMARK   12  A    between atoms: C_31  and  O_32
REMARK   13  A    between atoms: O_32  and  C_33
REMARK   14  A    between atoms: C_36  and  C_38
REMARK   15  A    between atoms: C_38  and  O_39
REMARK   16  A    between atoms: C_40  and  O_42
REMARK   17  A    between atoms: C_43  and  O_45
REMARK   18  A    between atoms: O_45  and  C_46
REMARK   19  A    between atoms: C_49  and  C_51
REMARK   20  A    between atoms: C_51  and  O_52
REMARK   21  A    between atoms: C_53  and  O_55
REMARK   22  A    between atoms: C_56  and  O_58
REMARK   23  A    between atoms: C_59  and  O_61
REMARK   24  A    between atoms: C_62  and  O_64
REMARK   25  A    between atoms: C_65  and  O_67
REMARK   26  A    between atoms: C_68  and  O_70
REMARK   27  A    between atoms: O_70  and  C_71
REMARK   28  A    between atoms: C_74  and  C_76
REMARK   29  A    between atoms: C_76  and  O_77
REMARK   30  A    between atoms: C_78  and  O_80
REMARK   31  A    between atoms: C_81  and  O_83
REMARK   32  A    between atoms: C_84  and  O_86
REMARK   33  A    between atoms: O_86  and  C_87
REMARK   34  A    between atoms: C_90  and  C_92
REMARK   35  A    between atoms: C_92  and  O_93
REMARK   36  A    between atoms: C_94  and  O_96
REMARK   37  A    between atoms: C_97  and  O_99
REMARK   38  A    between atoms: C_100  and  O_102
REMARK   39  A    between atoms: O_102  and  C_103
REMARK   40  A    between atoms: C_106  and  C_108
REMARK   41  A    between atoms: C_108  and  O_109
REMARK   42  A    between atoms: C_110  and  O_112
REMARK   43  A    between atoms: C_113  and  O_115
REMARK   44  A    between atoms: C_116  and  O_118
REMARK   45  A    between atoms: C_119  and  O_121
REMARK   46  A    between atoms: C_122  and  O_124
REMARK   47  A    between atoms: C_125  and  N_127
REMARK   48  A    between atoms: C_128  and  C_129
REMARK   49  A    between atoms: C_131  and  O_133
REMARK                            x       y       z     vdW  Elec       q    Type
REMARK                         _______ _______ _______ _____ _____    ______ ____
ROOT
ATOM      1  C   UNL     1       6.157  -1.264  23.276  0.00  0.00    +0.282 C 
ATOM      2  C   UNL     1       5.404  -2.667  23.349  0.00  0.00    +0.202 C 
ATOM      3  C   UNL     1       6.315  -3.853  23.778  0.00  0.00    +0.186 C 
ATOM      4  C   UNL     1       7.623  -3.776  22.878  0.00  0.00    +0.177 C 
ATOM      5  C   UNL     1       8.403  -2.351  22.741  0.00  0.00    +0.178 C 
ATOM      6  O   UNL     1       7.508  -1.198  22.766  0.00  0.00    -0.341 OA
ENDROOT
BRANCH   4   7
ATOM      7  O   UNL     1       7.210  -4.101  21.519  0.00  0.00    -0.386 OA
ATOM      8  H   UNL     1       6.230  -4.070  21.479  0.00  0.00    +0.210 HD
ENDBRANCH   4   7
BRANCH   2   9
ATOM      9  O   UNL     1       4.772  -2.952  22.082  0.00  0.00    -0.384 OA
ATOM     10  H   UNL     1       3.939  -3.429  22.283  0.00  0.00    +0.210 HD
ENDBRANCH   2   9
BRANCH   1  11
ATOM     11  O   UNL     1       6.134  -0.637  24.556  0.00  0.00    -0.340 OA
BRANCH  11  15
ATOM     12  C   UNL     1       2.908   1.133  26.865  0.00  0.00    +0.274 C 
ATOM     13  C   UNL     1       3.372  -0.323  27.150  0.00  0.00    +0.160 C 
ATOM     14  C   UNL     1       4.812  -0.522  26.591  0.00  0.00    +0.171 C 
ATOM     15  C   UNL     1       4.959  -0.022  25.134  0.00  0.00    +0.183 C 
ATOM     16  C   UNL     1       4.472   1.453  24.990  0.00  0.00    +0.178 C 
ATOM     17  O   UNL     1       3.108   1.542  25.505  0.00  0.00    -0.341 OA
BRANCH  13  18
ATOM     18  N   UNL     1       2.420  -1.345  26.676  0.00  0.00    -0.305 N 
ATOM     19  H   UNL     1       2.481  -1.638  25.710  0.00  0.00    +0.149 HD
ATOM     20  C   UNL     1       1.280  -1.819  27.251  0.00  0.00    +0.210 C 
ATOM     21  O   UNL     1       0.571  -2.552  26.547  0.00  0.00    -0.276 OA
ATOM     22  C   UNL     1       0.871  -1.480  28.656  0.00  0.00    +0.109 C 
ENDBRANCH  13  18
BRANCH  14  23
ATOM     23  O   UNL     1       5.730   0.160  27.441  0.00  0.00    -0.387 OA
ATOM     24  H   UNL     1       6.488  -0.403  27.553  0.00  0.00    +0.210 HD
ENDBRANCH  14  23
BRANCH  12  25
ATOM     25  O   UNL     1       3.571   1.980  27.798  0.00  0.00    -0.341 OA
BRANCH  25  28
ATOM     26  C   UNL     1       4.609   3.609  30.087  0.00  0.00    +0.130 C 
ATOM     27  C   UNL     1       3.125   3.199  29.874  0.00  0.00    +0.168 C 
ATOM     28  C   UNL     1       2.829   3.068  28.370  0.00  0.00    +0.183 C 
ATOM     29  C   UNL     1       3.287   4.347  27.602  0.00  0.00    +0.175 C 
ATOM     30  O   UNL     1       4.608   4.790  27.960  0.00  0.00    -0.370 OA
ATOM     31  C   UNL     1       4.839   4.935  29.366  0.00  0.00    +0.185 C 
BRANCH  26  34
ATOM     32  C   UNL     1       7.670   3.586  30.249  0.00  0.00    +0.109 C 
ATOM     33  C   UNL     1       6.880   2.678  29.364  0.00  0.00    +0.210 C 
ATOM     34  N   UNL     1       5.530   2.608  29.527  0.00  0.00    -0.308 N 
ATOM     35  H   UNL     1       5.139   2.075  28.750  0.00  0.00    +0.149 HD
ATOM     36  O   UNL     1       7.424   1.938  28.548  0.00  0.00    -0.276 OA
ENDBRANCH  26  34
BRANCH  27  37
ATOM     37  O   UNL     1       2.246   4.147  30.481  0.00  0.00    -0.387 OA
ATOM     38  H   UNL     1       2.460   5.034  30.125  0.00  0.00    +0.210 HD
ENDBRANCH  27  37
BRANCH  29  39
ATOM     39  C   UNL     1       2.293   5.510  27.665  0.00  0.00    +0.190 C 
BRANCH  39  40
ATOM     40  O   UNL     1       2.770   6.635  26.933  0.00  0.00    -0.392 OA
ATOM     41  H   UNL     1       3.486   6.318  26.351  0.00  0.00    +0.210 HD
ENDBRANCH  39  40
ENDBRANCH  29  39
ENDBRANCH  25  28
ENDBRANCH  12  25
BRANCH  16  42
ATOM     42  C   UNL     1       5.284   2.642  25.541  0.00  0.00    +0.190 C 
BRANCH  42  43
ATOM     43  O   UNL     1       6.256   2.289  26.508  0.00  0.00    -0.392 OA
ATOM     44  H   UNL     1       6.342   3.045  27.120  0.00  0.00    +0.210 HD
ENDBRANCH  42  43
ENDBRANCH  16  42
ENDBRANCH  11  15
ENDBRANCH   1  11
BRANCH   3  45
ATOM     45  O   UNL     1       5.503  -5.191  23.747  0.00  0.00    -0.340 OA
BRANCH  45  46
ATOM     46  C   UNL     1       4.050  -5.022  23.961  0.00  0.00    +0.283 C 
ATOM     47  C   UNL     1       3.030  -5.890  24.949  0.00  0.00    +0.208 C 
ATOM     48  C   UNL     1       2.487  -7.220  24.351  0.00  0.00    +0.179 C 
ATOM     49  C   UNL     1       2.040  -7.052  22.893  0.00  0.00    +0.177 C 
ATOM     50  C   UNL     1       3.071  -6.263  22.066  0.00  0.00    +0.178 C 
ATOM     51  O   UNL     1       3.433  -5.001  22.658  0.00  0.00    -0.341 OA
BRANCH  48  52
ATOM     52  O   UNL     1       3.312  -8.376  24.507  0.00  0.00    -0.386 OA
ATOM     53  H   UNL     1       2.762  -9.178  24.532  0.00  0.00    +0.210 HD
ENDBRANCH  48  52
BRANCH  49  54
ATOM     54  O   UNL     1       0.794  -6.324  22.879  0.00  0.00    -0.386 OA
ATOM     55  H   UNL     1       0.883  -5.605  23.530  0.00  0.00    +0.210 HD
ENDBRANCH  49  54
BRANCH  50  56
ATOM     56  C   UNL     1       4.266  -7.123  21.624  0.00  0.00    +0.190 C 
BRANCH  56  57
ATOM     57  O   UNL     1       5.261  -6.316  20.999  0.00  0.00    -0.392 OA
ATOM     58  H   UNL     1       5.432  -5.550  21.575  0.00  0.00    +0.210 HD
ENDBRANCH  56  57
ENDBRANCH  50  56
BRANCH  47  59
ATOM     59  O   UNL     1       3.172  -6.058  26.391  0.00  0.00    -0.338 OA
BRANCH  59  60
ATOM     60  C   UNL     1       2.330  -5.244  27.233  0.00  0.00    +0.283 C 
ATOM     61  C   UNL     1       2.990  -4.673  28.561  0.00  0.00    +0.208 C 
ATOM     62  C   UNL     1       2.729  -5.548  29.832  0.00  0.00    +0.179 C 
ATOM     63  C   UNL     1       1.220  -5.958  29.959  0.00  0.00    +0.177 C 
ATOM     64  C   UNL     1       0.579  -6.401  28.620  0.00  0.00    +0.178 C 
ATOM     65  O   UNL     1       1.016  -5.772  27.399  0.00  0.00    -0.341 OA
BRANCH  63  66
ATOM     66  O   UNL     1       0.448  -4.860  30.485  0.00  0.00    -0.386 OA
ATOM     67  H   UNL     1      -0.411  -5.244  30.804  0.00  0.00    +0.210 HD
ENDBRANCH  63  66
BRANCH  62  68
ATOM     68  O   UNL     1       3.548  -6.718  29.890  0.00  0.00    -0.386 OA
ATOM     69  H   UNL     1       3.039  -7.445  30.284  0.00  0.00    +0.210 HD
ENDBRANCH  62  68
BRANCH  64  70
ATOM     70  C   UNL     1       0.473  -7.928  28.474  0.00  0.00    +0.190 C 
BRANCH  70  71
ATOM     71  O   UNL     1       1.645  -8.568  28.985  0.00  0.00    -0.392 OA
ATOM     72  H   UNL     1       2.106  -8.999  28.241  0.00  0.00    +0.210 HD
ENDBRANCH  70  71
ENDBRANCH  64  70
BRANCH  61  73
ATOM     73  O   UNL     1       4.121  -3.778  28.403  0.00  0.00    -0.338 OA
BRANCH  73  74
ATOM     74  C   UNL     1       5.547  -3.948  28.556  0.00  0.00    +0.282 C 
ATOM     75  C   UNL     1       6.135  -3.845  27.081  0.00  0.00    +0.201 C 
ATOM     76  C   UNL     1       6.603  -5.205  26.506  0.00  0.00    +0.179 C 
ATOM     77  C   UNL     1       7.671  -5.779  27.446  0.00  0.00    +0.177 C 
ATOM     78  C   UNL     1       7.117  -5.871  28.889  0.00  0.00    +0.178 C 
ATOM     79  O   UNL     1       5.860  -5.206  29.157  0.00  0.00    -0.341 OA
BRANCH  75  80
ATOM     80  O   UNL     1       7.232  -2.886  27.008  0.00  0.00    -0.384 OA
ATOM     81  H   UNL     1       7.726  -2.930  27.861  0.00  0.00    +0.210 HD
ENDBRANCH  75  80
BRANCH  76  82
ATOM     82  O   UNL     1       5.517  -6.108  26.295  0.00  0.00    -0.386 OA
ATOM     83  H   UNL     1       5.865  -7.042  26.406  0.00  0.00    +0.210 HD
ENDBRANCH  76  82
BRANCH  77  84
ATOM     84  O   UNL     1       8.853  -4.950  27.389  0.00  0.00    -0.386 OA
ATOM     85  H   UNL     1       9.567  -5.452  26.947  0.00  0.00    +0.210 HD
ENDBRANCH  77  84
BRANCH  78  86
ATOM     86  C   UNL     1       6.803  -7.357  29.167  0.00  0.00    +0.190 C 
BRANCH  86  87
ATOM     87  O   UNL     1       5.394  -7.541  29.354  0.00  0.00    -0.392 OA
ATOM     88  H   UNL     1       4.970  -6.826  28.825  0.00  0.00    +0.210 HD
ENDBRANCH  86  87
ENDBRANCH  78  86
ENDBRANCH  73  74
ENDBRANCH  61  73
ENDBRANCH  59  60
ENDBRANCH  47  59
ENDBRANCH  45  46
ENDBRANCH   3  45
BRANCH   5  89
ATOM     89  C   UNL     1       9.946  -2.054  23.433  0.00  0.00    +0.197 C 
BRANCH  89  90
ATOM     90  O   UNL     1      10.470  -0.617  23.291  0.00  0.00    -0.346 OA
BRANCH  90  91
ATOM     91  C   UNL     1      10.271   0.379  24.410  0.00  0.00    +0.282 C 
ATOM     92  C   UNL     1       8.749   0.977  24.690  0.00  0.00    +0.202 C 
ATOM     93  C   UNL     1       8.258   2.309  23.976  0.00  0.00    +0.186 C 
ATOM     94  C   UNL     1       9.444   3.305  24.023  0.00  0.00    +0.177 C 
ATOM     95  C   UNL     1      10.802   2.656  23.643  0.00  0.00    +0.178 C 
ATOM     96  O   UNL     1      11.196   1.483  24.382  0.00  0.00    -0.341 OA
BRANCH  92  97
ATOM     97  O   UNL     1       8.691   1.299  26.134  0.00  0.00    -0.384 OA
ATOM     98  H   UNL     1       7.749   1.348  26.426  0.00  0.00    +0.210 HD
ENDBRANCH  92  97
BRANCH  94  99
ATOM     99  O   UNL     1       9.525   3.870  25.351  0.00  0.00    -0.386 OA
ATOM    100  H   UNL     1       8.819   4.545  25.436  0.00  0.00    +0.210 HD
ENDBRANCH  94  99
BRANCH  95 101
ATOM    101  C   UNL     1      10.840   2.361  22.149  0.00  0.00    +0.190 C 
BRANCH 101 102
ATOM    102  O   UNL     1       9.956   1.288  21.840  0.00  0.00    -0.392 OA
ATOM    103  H   UNL     1      10.278   0.894  21.009  0.00  0.00    +0.210 HD
ENDBRANCH 101 102
ENDBRANCH  95 101
BRANCH  93 104
ATOM    104  O   UNL     1       7.663   2.242  22.635  0.00  0.00    -0.340 OA
BRANCH 104 105
ATOM    105  C   UNL     1       7.007   3.497  22.125  0.00  0.00    +0.282 C 
ATOM    106  C   UNL     1       7.332   4.721  23.080  0.00  0.00    +0.201 C 
ATOM    107  C   UNL     1       6.173   5.650  23.517  0.00  0.00    +0.179 C 
ATOM    108  C   UNL     1       4.922   5.606  22.666  0.00  0.00    +0.177 C 
ATOM    109  C   UNL     1       4.595   4.227  22.075  0.00  0.00    +0.178 C 
ATOM    110  O   UNL     1       5.632   3.255  21.872  0.00  0.00    -0.341 OA
BRANCH 106 111
ATOM    111  O   UNL     1       8.312   5.563  22.415  0.00  0.00    -0.384 OA
ATOM    112  H   UNL     1       8.734   6.129  23.089  0.00  0.00    +0.210 HD
ENDBRANCH 106 111
BRANCH 107 113
ATOM    113  O   UNL     1       5.833   5.489  24.897  0.00  0.00    -0.386 OA
ATOM    114  H   UNL     1       4.897   5.663  25.020  0.00  0.00    +0.210 HD
ENDBRANCH 107 113
BRANCH 108 115
ATOM    115  O   UNL     1       5.061   6.549  21.591  0.00  0.00    -0.386 OA
ATOM    116  H   UNL     1       5.716   7.220  21.861  0.00  0.00    +0.210 HD
ENDBRANCH 108 115
BRANCH 109 117
ATOM    117  C   UNL     1       3.538   3.471  22.905  0.00  0.00    +0.190 C 
BRANCH 117 118
ATOM    118  O   UNL     1       2.405   3.154  22.088  0.00  0.00    -0.392 OA
ATOM    119  H   UNL     1       1.964   2.390  22.503  0.00  0.00    +0.210 HD
ENDBRANCH 117 118
ENDBRANCH 109 117
ENDBRANCH 104 105
ENDBRANCH  93 104
ENDBRANCH  90  91
ENDBRANCH  89  90
ENDBRANCH   5  89
TORSDOF 47
ENDMDL
MODEL 3
REMARK VINA RESULT:      -2.3      1.988      7.746
REMARK  Name = 
REMARK  49 active torsions:
REMARK  status: ('A' for Active; 'I' for Inactive)
REMARK    1  A    between atoms: C_1  and  C_2
REMARK    2  A    between atoms: N_4  and  C_5
REMARK    3  A    between atoms: C_9  and  C_11
REMARK    4  A    between atoms: C_11  and  O_12
REMARK    5  A    between atoms: C_13  and  O_15
REMARK    6  A    between atoms: O_15  and  C_16
REMARK    7  A    between atoms: C_19  and  C_21
REMARK    8  A    between atoms: C_21  and  O_22
REMARK    9  A    between atoms: C_23  and  O_25
REMARK   10  A    between atoms: O_25  and  C_26
REMARK   11  A    between atoms: C_29  and  C_31
REMARK   12  A    between atoms: C_31  and  O_32
REMARK   13  A    between atoms: O_32  and  C_33
REMARK   14  A    between atoms: C_36  and  C_38
REMARK   15  A    between atoms: C_38  and  O_39
REMARK   16  A    between atoms: C_40  and  O_42
REMARK   17  A    between atoms: C_43  and  O_45
REMARK   18  A    between atoms: O_45  and  C_46
REMARK   19  A    between atoms: C_49  and  C_51
REMARK   20  A    between atoms: C_51  and  O_52
REMARK   21  A    between atoms: C_53  and  O_55
REMARK   22  A    between atoms: C_56  and  O_58
REMARK   23  A    between atoms: C_59  and  O_61
REMARK   24  A    between atoms: C_62  and  O_64
REMARK   25  A    between atoms: C_65  and  O_67
REMARK   26  A    between atoms: C_68  and  O_70
REMARK   27  A    between atoms: O_70  and  C_71
REMARK   28  A    between atoms: C_74  and  C_76
REMARK   29  A    between atoms: C_76  and  O_77
REMARK   30  A    between atoms: C_78  and  O_80
REMARK   31  A    between atoms: C_81  and  O_83
REMARK   32  A    between atoms: C_84  and  O_86
REMARK   33  A    between atoms: O_86  and  C_87
REMARK   34  A    between atoms: C_90  and  C_92
REMARK   35  A    between atoms: C_92  and  O_93
REMARK   36  A    between atoms: C_94  and  O_96
REMARK   37  A    between atoms: C_97  and  O_99
REMARK   38  A    between atoms: C_100  and  O_102
REMARK   39  A    between atoms: O_102  and  C_103
REMARK   40  A    between atoms: C_106  and  C_108
REMARK   41  A    between atoms: C_108  and  O_109
REMARK   42  A    between atoms: C_110  and  O_112
REMARK   43  A    between atoms: C_113  and  O_115
REMARK   44  A    between atoms: C_116  and  O_118
REMARK   45  A    between atoms: C_119  and  O_121
REMARK   46  A    between atoms: C_122  and  O_124
REMARK   47  A    between atoms: C_125  and  N_127
REMARK   48  A    between atoms: C_128  and  C_129
REMARK   49  A    between atoms: C_131  and  O_133
REMARK                            x       y       z     vdW  Elec       q    Type
REMARK                         _______ _______ _______ _____ _____    ______ ____
ROOT
ATOM      1  C   UNL     1       7.315   2.284  27.357  0.00  0.00    +0.282 C 
ATOM      2  C   UNL     1       6.531   1.460  28.474  0.00  0.00    +0.202 C 
ATOM      3  C   UNL     1       5.229   2.150  28.972  0.00  0.00    +0.186 C 
ATOM      4  C   UNL     1       5.608   3.656  29.312  0.00  0.00    +0.177 C 
ATOM      5  C   UNL     1       6.445   4.524  28.215  0.00  0.00    +0.178 C 
ATOM      6  O   UNL     1       7.396   3.724  27.450  0.00  0.00    -0.341 OA
ENDROOT
BRANCH   4   7
ATOM      7  O   UNL     1       6.472   3.610  30.484  0.00  0.00    -0.386 OA
ATOM      8  H   UNL     1       6.502   4.508  30.879  0.00  0.00    +0.210 HD
ENDBRANCH   4   7
BRANCH   2   9
ATOM      9  O   UNL     1       7.409   1.182  29.586  0.00  0.00    -0.384 OA
ATOM     10  H   UNL     1       8.235   1.685  29.426  0.00  0.00    +0.210 HD
ENDBRANCH   2   9
BRANCH   1  11
ATOM     11  O   UNL     1       6.809   1.950  26.067  0.00  0.00    -0.340 OA
BRANCH  11  15
ATOM     12  C   UNL     1       8.342  -1.711  24.297  0.00  0.00    +0.274 C 
ATOM     13  C   UNL     1       9.156  -0.390  24.202  0.00  0.00    +0.160 C 
ATOM     14  C   UNL     1       8.677   0.591  25.313  0.00  0.00    +0.171 C 
ATOM     15  C   UNL     1       7.137   0.729  25.361  0.00  0.00    +0.183 C 
ATOM     16  C   UNL     1       6.446  -0.665  25.471  0.00  0.00    +0.178 C 
ATOM     17  O   UNL     1       6.924  -1.506  24.377  0.00  0.00    -0.341 OA
BRANCH  13  18
ATOM     18  N   UNL     1       9.144   0.210  22.854  0.00  0.00    -0.305 N 
ATOM     19  H   UNL     1      10.027   0.309  22.371  0.00  0.00    +0.149 HD
ATOM     20  C   UNL     1       8.162   0.896  22.206  0.00  0.00    +0.210 C 
ATOM     21  O   UNL     1       8.484   1.448  21.145  0.00  0.00    -0.276 OA
ATOM     22  C   UNL     1       6.759   1.005  22.731  0.00  0.00    +0.109 C 
ENDBRANCH  13  18
BRANCH  14  23
ATOM     23  O   UNL     1       9.170   0.132  26.569  0.00  0.00    -0.387 OA
ATOM     24  H   UNL     1       8.417  -0.033  27.128  0.00  0.00    +0.210 HD
ENDBRANCH  14  23
BRANCH  12  25
ATOM     25  O   UNL     1       8.854  -2.445  25.405  0.00  0.00    -0.341 OA
BRANCH  25  28
ATOM     26  C   UNL     1       7.912  -4.662  23.623  0.00  0.00    +0.130 C 
ATOM     27  C   UNL     1       7.113  -4.062  24.814  0.00  0.00    +0.168 C 
ATOM     28  C   UNL     1       8.084  -3.554  25.894  0.00  0.00    +0.183 C 
ATOM     29  C   UNL     1       9.121  -4.659  26.271  0.00  0.00    +0.175 C 
ATOM     30  O   UNL     1       9.710  -5.307  25.130  0.00  0.00    -0.370 OA
ATOM     31  C   UNL     1       8.777  -5.800  24.162  0.00  0.00    +0.185 C 
BRANCH  26  34
ATOM     32  C   UNL     1       7.196  -2.631  21.442  0.00  0.00    +0.109 C 
ATOM     33  C   UNL     1       8.594  -2.912  21.885  0.00  0.00    +0.210 C 
ATOM     34  N   UNL     1       8.794  -3.658  23.007  0.00  0.00    -0.308 N 
ATOM     35  H   UNL     1       9.786  -3.883  23.072  0.00  0.00    +0.149 HD
ATOM     36  O   UNL     1       9.565  -2.424  21.311  0.00  0.00    -0.276 OA
ENDBRANCH  26  34
BRANCH  27  37
ATOM     37  O   UNL     1       6.215  -5.030  25.358  0.00  0.00    -0.387 OA
ATOM     38  H   UNL     1       5.368  -4.972  24.869  0.00  0.00    +0.210 HD
ENDBRANCH  27  37
BRANCH  29  39
ATOM     39  C   UNL     1       8.600  -5.696  27.271  0.00  0.00    +0.190 C 
BRANCH  39  40
ATOM     40  O   UNL     1       7.348  -5.297  27.821  0.00  0.00    -0.392 OA
ATOM     41  H   UNL     1       7.423  -4.352  28.050  0.00  0.00    +0.210 HD
ENDBRANCH  39  40
ENDBRANCH  29  39
ENDBRANCH  25  28
ENDBRANCH  12  25
BRANCH  16  42
ATOM     42  C   UNL     1       6.469  -1.491  26.772  0.00  0.00    +0.190 C 
BRANCH  42  43
ATOM     43  O   UNL     1       7.296  -0.957  27.790  0.00  0.00    -0.392 OA
ATOM     44  H   UNL     1       6.792  -1.002  28.624  0.00  0.00    +0.210 HD
ENDBRANCH  42  43
ENDBRANCH  16  42
ENDBRANCH  11  15
ENDBRANCH   1  11
BRANCH   3  45
ATOM     45  O   UNL     1       4.576   1.301  30.114  0.00  0.00    -0.340 OA
BRANCH  45  46
ATOM     46  C   UNL     1       3.437   0.469  29.673  0.00  0.00    +0.283 C 
ATOM     47  C   UNL     1       3.276  -0.433  28.283  0.00  0.00    +0.208 C 
ATOM     48  C   UNL     1       2.805   0.352  27.025  0.00  0.00    +0.179 C 
ATOM     49  C   UNL     1       1.655   1.315  27.347  0.00  0.00    +0.177 C 
ATOM     50  C   UNL     1       1.924   2.117  28.633  0.00  0.00    +0.178 C 
ATOM     51  O   UNL     1       2.256   1.290  29.764  0.00  0.00    -0.341 OA
BRANCH  48  52
ATOM     52  O   UNL     1       3.821   1.002  26.259  0.00  0.00    -0.386 OA
ATOM     53  H   UNL     1       4.699   0.679  26.526  0.00  0.00    +0.210 HD
ENDBRANCH  48  52
BRANCH  49  54
ATOM     54  O   UNL     1       0.452   0.540  27.539  0.00  0.00    -0.386 OA
ATOM     55  H   UNL     1      -0.176   1.113  28.014  0.00  0.00    +0.210 HD
ENDBRANCH  49  54
BRANCH  50  56
ATOM     56  C   UNL     1       2.880   3.300  28.409  0.00  0.00    +0.190 C 
BRANCH  56  57
ATOM     57  O   UNL     1       2.360   4.485  29.006  0.00  0.00    -0.392 OA
ATOM     58  H   UNL     1       3.089   4.933  29.471  0.00  0.00    +0.210 HD
ENDBRANCH  56  57
ENDBRANCH  50  56
BRANCH  47  59
ATOM     59  O   UNL     1       4.164  -1.506  27.851  0.00  0.00    -0.338 OA
BRANCH  59  60
ATOM     60  C   UNL     1       3.756  -2.857  28.149  0.00  0.00    +0.283 C 
ATOM     61  C   UNL     1       2.874  -3.594  27.053  0.00  0.00    +0.208 C 
ATOM     62  C   UNL     1       1.332  -3.501  27.305  0.00  0.00    +0.179 C 
ATOM     63  C   UNL     1       0.962  -3.833  28.792  0.00  0.00    +0.177 C 
ATOM     64  C   UNL     1       1.914  -3.188  29.831  0.00  0.00    +0.178 C 
ATOM     65  O   UNL     1       3.306  -3.028  29.492  0.00  0.00    -0.341 OA
BRANCH  63  66
ATOM     66  O   UNL     1       0.969  -5.259  29.001  0.00  0.00    -0.386 OA
ATOM     67  H   UNL     1       1.319  -5.667  28.165  0.00  0.00    +0.210 HD
ENDBRANCH  63  66
BRANCH  62  68
ATOM     68  O   UNL     1       0.777  -2.234  26.945  0.00  0.00    -0.386 OA
ATOM     69  H   UNL     1       1.262  -1.530  27.406  0.00  0.00    +0.210 HD
ENDBRANCH  62  68
BRANCH  64  70
ATOM     70  C   UNL     1       1.333  -1.923  30.484  0.00  0.00    +0.190 C 
BRANCH  70  71
ATOM     71  O   UNL     1       0.585  -1.160  29.533  0.00  0.00    -0.392 OA
ATOM     72  H   UNL     1       1.139  -0.411  29.242  0.00  0.00    +0.210 HD
ENDBRANCH  70  71
ENDBRANCH  64  70
BRANCH  61  73
ATOM     73  O   UNL     1       3.478  -3.800  25.750  0.00  0.00    -0.338 OA
BRANCH  73  74
ATOM     74  C   UNL     1       3.008  -4.401  24.524  0.00  0.00    +0.282 C 
ATOM     75  C   UNL     1       2.373  -5.791  24.964  0.00  0.00    +0.201 C 
ATOM     76  C   UNL     1       3.235  -7.017  24.573  0.00  0.00    +0.179 C 
ATOM     77  C   UNL     1       3.428  -6.999  23.051  0.00  0.00    +0.177 C 
ATOM     78  C   UNL     1       4.033  -5.644  22.606  0.00  0.00    +0.178 C 
ATOM     79  O   UNL     1       4.075  -4.585  23.592  0.00  0.00    -0.341 OA
BRANCH  75  80
ATOM     80  O   UNL     1       1.026  -5.958  24.429  0.00  0.00    -0.384 OA
ATOM     81  H   UNL     1       0.673  -6.815  24.765  0.00  0.00    +0.210 HD
ENDBRANCH  75  80
BRANCH  76  82
ATOM     82  O   UNL     1       4.475  -7.057  25.281  0.00  0.00    -0.386 OA
ATOM     83  H   UNL     1       5.152  -7.509  24.695  0.00  0.00    +0.210 HD
ENDBRANCH  76  82
BRANCH  77  84
ATOM     84  O   UNL     1       2.159  -7.244  22.406  0.00  0.00    -0.386 OA
ATOM     85  H   UNL     1       1.455  -7.236  23.085  0.00  0.00    +0.210 HD
ENDBRANCH  77  84
BRANCH  78  86
ATOM     86  C   UNL     1       5.522  -5.890  22.280  0.00  0.00    +0.190 C 
BRANCH  86  87
ATOM     87  O   UNL     1       5.681  -6.208  20.892  0.00  0.00    -0.392 OA
ATOM     88  H   UNL     1       5.010  -5.657  20.425  0.00  0.00    +0.210 HD
ENDBRANCH  86  87
ENDBRANCH  78  86
ENDBRANCH  73  74
ENDBRANCH  61  73
ENDBRANCH  59  60
ENDBRANCH  47  59
ENDBRANCH  45  46
ENDBRANCH   3  45
BRANCH   5  89
ATOM     89  C   UNL     1       5.767   5.835  27.338  0.00  0.00    +0.197 C 
BRANCH  89  90
ATOM     90  O   UNL     1       4.321   5.634  26.858  0.00  0.00    -0.346 OA
BRANCH  90  91
ATOM     91  C   UNL     1       3.982   4.497  25.923  0.00  0.00    +0.282 C 
ATOM     92  C   UNL     1       5.004   4.166  24.658  0.00  0.00    +0.202 C 
ATOM     93  C   UNL     1       4.784   4.848  23.239  0.00  0.00    +0.186 C 
ATOM     94  C   UNL     1       3.260   4.821  22.961  0.00  0.00    +0.177 C 
ATOM     95  C   UNL     1       2.408   5.248  24.186  0.00  0.00    +0.178 C 
ATOM     96  O   UNL     1       2.632   4.536  25.419  0.00  0.00    -0.341 OA
BRANCH  92  97
ATOM     97  O   UNL     1       4.869   2.717  24.386  0.00  0.00    -0.384 OA
ATOM     98  H   UNL     1       5.765   2.310  24.303  0.00  0.00    +0.210 HD
ENDBRANCH  92  97
BRANCH  94  99
ATOM     99  O   UNL     1       2.886   3.488  22.544  0.00  0.00    -0.386 OA
ATOM    100  H   UNL     1       2.017   3.278  22.946  0.00  0.00    +0.210 HD
ENDBRANCH  94  99
BRANCH  95 101
ATOM    101  C   UNL     1       2.547   6.746  24.423  0.00  0.00    +0.190 C 
BRANCH 101 102
ATOM    102  O   UNL     1       1.924   7.107  25.652  0.00  0.00    -0.392 OA
ATOM    103  H   UNL     1       1.842   6.288  26.172  0.00  0.00    +0.210 HD
ENDBRANCH 101 102
ENDBRANCH  95 101
BRANCH  93 104
ATOM    104  O   UNL     1       5.358   6.172  22.969  0.00  0.00    -0.340 OA
BRANCH 104 105
ATOM    105  C   UNL     1       6.850   6.234  22.780  0.00  0.00    +0.282 C 
ATOM    106  C   UNL     1       7.463   4.774  22.718  0.00  0.00    +0.201 C 
ATOM    107  C   UNL     1       8.724   4.460  23.560  0.00  0.00    +0.179 C 
ATOM    108  C   UNL     1       9.536   5.652  24.019  0.00  0.00    +0.177 C 
ATOM    109  C   UNL     1       8.711   6.906  24.343  0.00  0.00    +0.178 C 
ATOM    110  O   UNL     1       7.422   7.107  23.742  0.00  0.00    -0.341 OA
BRANCH 106 111
ATOM    111  O   UNL     1       7.805   4.488  21.335  0.00  0.00    -0.384 OA
ATOM    112  H   UNL     1       8.752   4.692  21.207  0.00  0.00    +0.210 HD
ENDBRANCH 106 111
BRANCH 107 113
ATOM    113  O   UNL     1       8.442   3.603  24.670  0.00  0.00    -0.386 OA
ATOM    114  H   UNL     1       9.162   3.649  25.303  0.00  0.00    +0.210 HD
ENDBRANCH 107 113
BRANCH 108 115
ATOM    115  O   UNL     1      10.493   5.979  22.998  0.00  0.00    -0.386 OA
ATOM    116  H   UNL     1      10.793   5.147  22.588  0.00  0.00    +0.210 HD
ENDBRANCH 108 115
BRANCH 109 117
ATOM    117  C   UNL     1       8.440   7.054  25.853  0.00  0.00    +0.190 C 
BRANCH 117 118
ATOM    118  O   UNL     1       8.947   5.915  26.558  0.00  0.00    -0.392 OA
ATOM    119  H   UNL     1       8.967   5.177  25.922  0.00  0.00    +0.210 HD
ENDBRANCH 117 118
ENDBRANCH 109 117
ENDBRANCH 104 105
ENDBRANCH  93 104
ENDBRANCH  90  91
ENDBRANCH  89  90
ENDBRANCH   5  89
TORSDOF 47
ENDMDL
MODEL 4
REMARK VINA RESULT:      -1.3      2.158      9.051
REMARK  Name = 
REMARK  49 active torsions:
REMARK  status: ('A' for Active; 'I' for Inactive)
REMARK    1  A    between atoms: C_1  and  C_2
REMARK    2  A    between atoms: N_4  and  C_5
REMARK    3  A    between atoms: C_9  and  C_11
REMARK    4  A    between atoms: C_11  and  O_12
REMARK    5  A    between atoms: C_13  and  O_15
REMARK    6  A    between atoms: O_15  and  C_16
REMARK    7  A    between atoms: C_19  and  C_21
REMARK    8  A    between atoms: C_21  and  O_22
REMARK    9  A    between atoms: C_23  and  O_25
REMARK   10  A    between atoms: O_25  and  C_26
REMARK   11  A    between atoms: C_29  and  C_31
REMARK   12  A    between atoms: C_31  and  O_32
REMARK   13  A    between atoms: O_32  and  C_33
REMARK   14  A    between atoms: C_36  and  C_38
REMARK   15  A    between atoms: C_38  and  O_39
REMARK   16  A    between atoms: C_40  and  O_42
REMARK   17  A    between atoms: C_43  and  O_45
REMARK   18  A    between atoms: O_45  and  C_46
REMARK   19  A    between atoms: C_49  and  C_51
REMARK   20  A    between atoms: C_51  and  O_52
REMARK   21  A    between atoms: C_53  and  O_55
REMARK   22  A    between atoms: C_56  and  O_58
REMARK   23  A    between atoms: C_59  and  O_61
REMARK   24  A    between atoms: C_62  and  O_64
REMARK   25  A    between atoms: C_65  and  O_67
REMARK   26  A    between atoms: C_68  and  O_70
REMARK   27  A    between atoms: O_70  and  C_71
REMARK   28  A    between atoms: C_74  and  C_76
REMARK   29  A    between atoms: C_76  and  O_77
REMARK   30  A    between atoms: C_78  and  O_80
REMARK   31  A    between atoms: C_81  and  O_83
REMARK   32  A    between atoms: C_84  and  O_86
REMARK   33  A    between atoms: O_86  and  C_87
REMARK   34  A    between atoms: C_90  and  C_92
REMARK   35  A    between atoms: C_92  and  O_93
REMARK   36  A    between atoms: C_94  and  O_96
REMARK   37  A    between atoms: C_97  and  O_99
REMARK   38  A    between atoms: C_100  and  O_102
REMARK   39  A    between atoms: O_102  and  C_103
REMARK   40  A    between atoms: C_106  and  C_108
REMARK   41  A    between atoms: C_108  and  O_109
REMARK   42  A    between atoms: C_110  and  O_112
REMARK   43  A    between atoms: C_113  and  O_115
REMARK   44  A    between atoms: C_116  and  O_118
REMARK   45  A    between atoms: C_119  and  O_121
REMARK   46  A    between atoms: C_122  and  O_124
REMARK   47  A    between atoms: C_125  and  N_127
REMARK   48  A    between atoms: C_128  and  C_129
REMARK   49  A    between atoms: C_131  and  O_133
REMARK                            x       y       z     vdW  Elec       q    Type
REMARK                         _______ _______ _______ _____ _____    ______ ____
ROOT
ATOM      1  C   UNL     1       3.525  -1.064  25.907  0.00  0.00    +0.282 C 
ATOM      2  C   UNL     1       3.307   0.179  26.882  0.00  0.00    +0.202 C 
ATOM      3  C   UNL     1       2.177  -0.029  27.930  0.00  0.00    +0.186 C 
ATOM      4  C   UNL     1       0.907  -0.561  27.137  0.00  0.00    +0.177 C 
ATOM      5  C   UNL     1       1.090  -1.804  26.099  0.00  0.00    +0.178 C 
ATOM      6  O   UNL     1       2.383  -1.805  25.421  0.00  0.00    -0.341 OA
ENDROOT
BRANCH   4   7
ATOM      7  O   UNL     1       0.443   0.545  26.309  0.00  0.00    -0.386 OA
ATOM      8  H   UNL     1       1.095   1.275  26.377  0.00  0.00    +0.210 HD
ENDBRANCH   4   7
BRANCH   2   9
ATOM      9  O   UNL     1       3.061   1.373  26.108  0.00  0.00    -0.384 OA
ATOM     10  H   UNL     1       3.044   1.100  25.167  0.00  0.00    +0.210 HD
ENDBRANCH   2   9
BRANCH   1  11
ATOM     11  O   UNL     1       4.434  -1.988  26.500  0.00  0.00    -0.340 OA
BRANCH  11  15
ATOM     12  C   UNL     1       7.957  -2.916  24.132  0.00  0.00    +0.274 C 
ATOM     13  C   UNL     1       6.535  -3.172  23.559  0.00  0.00    +0.160 C 
ATOM     14  C   UNL     1       5.502  -2.306  24.341  0.00  0.00    +0.171 C 
ATOM     15  C   UNL     1       5.663  -2.428  25.875  0.00  0.00    +0.183 C 
ATOM     16  C   UNL     1       7.129  -2.134  26.316  0.00  0.00    +0.178 C 
ATOM     17  O   UNL     1       8.024  -3.008  25.562  0.00  0.00    -0.341 OA
BRANCH  13  18
ATOM     18  N   UNL     1       6.172  -4.600  23.508  0.00  0.00    -0.305 N 
ATOM     19  H   UNL     1       5.985  -5.073  24.383  0.00  0.00    +0.149 HD
ATOM     20  C   UNL     1       6.270  -5.497  22.488  0.00  0.00    +0.210 C 
ATOM     21  O   UNL     1       6.059  -6.683  22.775  0.00  0.00    -0.276 OA
ATOM     22  C   UNL     1       6.625  -5.100  21.083  0.00  0.00    +0.109 C 
ENDBRANCH  13  18
BRANCH  14  23
ATOM     23  O   UNL     1       5.649  -0.946  23.937  0.00  0.00    -0.387 OA
ATOM     24  H   UNL     1       6.314  -0.921  23.257  0.00  0.00    +0.210 HD
ENDBRANCH  14  23
BRANCH  12  25
ATOM     25  O   UNL     1       8.390  -1.651  23.642  0.00  0.00    -0.341 OA
BRANCH  25  28
ATOM     26  C   UNL     1       9.170   0.146  21.376  0.00  0.00    +0.130 C 
ATOM     27  C   UNL     1       9.785  -1.250  21.670  0.00  0.00    +0.168 C 
ATOM     28  C   UNL     1       9.745  -1.532  23.182  0.00  0.00    +0.183 C 
ATOM     29  C   UNL     1      10.365  -0.345  23.984  0.00  0.00    +0.175 C 
ATOM     30  O   UNL     1       9.892   0.944  23.558  0.00  0.00    -0.370 OA
ATOM     31  C   UNL     1       9.976   1.188  22.149  0.00  0.00    +0.185 C 
BRANCH  26  34
ATOM     32  C   UNL     1       7.411   2.646  21.604  0.00  0.00    +0.109 C 
ATOM     33  C   UNL     1       7.033   1.313  22.162  0.00  0.00    +0.210 C 
ATOM     34  N   UNL     1       7.768   0.220  21.817  0.00  0.00    -0.308 N 
ATOM     35  H   UNL     1       7.476  -0.562  22.403  0.00  0.00    +0.149 HD
ATOM     36  O   UNL     1       6.031   1.165  22.859  0.00  0.00    -0.276 OA
ENDBRANCH  26  34
BRANCH  27  37
ATOM     37  O   UNL     1      11.123  -1.327  21.178  0.00  0.00    -0.387 OA
ATOM     38  H   UNL     1      11.190  -0.760  20.382  0.00  0.00    +0.210 HD
ENDBRANCH  27  37
BRANCH  29  39
ATOM     39  C   UNL     1      11.896  -0.362  24.052  0.00  0.00    +0.190 C 
BRANCH  39  40
ATOM     40  O   UNL     1      12.397   0.829  24.650  0.00  0.00    -0.392 OA
ATOM     41  H   UNL     1      12.971   1.263  23.991  0.00  0.00    +0.210 HD
ENDBRANCH  39  40
ENDBRANCH  29  39
ENDBRANCH  25  28
ENDBRANCH  12  25
BRANCH  16  42
ATOM     42  C   UNL     1       7.716  -0.708  26.311  0.00  0.00    +0.190 C 
BRANCH  42  43
ATOM     43  O   UNL     1       9.123  -0.654  26.460  0.00  0.00    -0.392 OA
ATOM     44  H   UNL     1       9.308  -0.525  27.410  0.00  0.00    +0.210 HD
ENDBRANCH  42  43
ENDBRANCH  16  42
ENDBRANCH  11  15
ENDBRANCH   1  11
BRANCH   3  45
ATOM     45  O   UNL     1       1.995   1.269  28.786  0.00  0.00    -0.340 OA
BRANCH  45  46
ATOM     46  C   UNL     1       3.206   1.683  29.523  0.00  0.00    +0.283 C 
ATOM     47  C   UNL     1       4.617   2.341  28.933  0.00  0.00    +0.208 C 
ATOM     48  C   UNL     1       5.657   1.321  28.389  0.00  0.00    +0.179 C 
ATOM     49  C   UNL     1       5.810   0.108  29.316  0.00  0.00    +0.177 C 
ATOM     50  C   UNL     1       4.445  -0.436  29.775  0.00  0.00    +0.178 C 
ATOM     51  O   UNL     1       3.594   0.571  30.354  0.00  0.00    -0.341 OA
BRANCH  48  52
ATOM     52  O   UNL     1       5.503   0.913  27.029  0.00  0.00    -0.386 OA
ATOM     53  H   UNL     1       5.517   1.690  26.443  0.00  0.00    +0.210 HD
ENDBRANCH  48  52
BRANCH  49  54
ATOM     54  O   UNL     1       6.551   0.518  30.485  0.00  0.00    -0.386 OA
ATOM     55  H   UNL     1       6.404   1.475  30.587  0.00  0.00    +0.210 HD
ENDBRANCH  49  54
BRANCH  50  56
ATOM     56  C   UNL     1       3.761  -1.309  28.709  0.00  0.00    +0.190 C 
BRANCH  56  57
ATOM     57  O   UNL     1       3.317  -2.537  29.277  0.00  0.00    -0.392 OA
ATOM     58  H   UNL     1       2.748  -2.328  30.039  0.00  0.00    +0.210 HD
ENDBRANCH  56  57
ENDBRANCH  50  56
BRANCH  47  59
ATOM     59  O   UNL     1       4.729   3.571  28.157  0.00  0.00    -0.338 OA
BRANCH  59  60
ATOM     60  C   UNL     1       5.045   4.779  28.881  0.00  0.00    +0.283 C 
ATOM     61  C   UNL     1       5.692   5.963  28.044  0.00  0.00    +0.208 C 
ATOM     62  C   UNL     1       7.256   6.002  28.096  0.00  0.00    +0.179 C 
ATOM     63  C   UNL     1       7.796   5.847  29.559  0.00  0.00    +0.177 C 
ATOM     64  C   UNL     1       7.063   4.759  30.383  0.00  0.00    +0.178 C 
ATOM     65  O   UNL     1       5.659   4.535  30.146  0.00  0.00    -0.341 OA
BRANCH  63  66
ATOM     66  O   UNL     1       7.684   7.098  30.268  0.00  0.00    -0.386 OA
ATOM     67  H   UNL     1       8.576   7.534  30.217  0.00  0.00    +0.210 HD
ENDBRANCH  63  66
BRANCH  62  68
ATOM     68  O   UNL     1       7.873   5.027  27.253  0.00  0.00    -0.386 OA
ATOM     69  H   UNL     1       7.184   4.524  26.787  0.00  0.00    +0.210 HD
ENDBRANCH  62  68
BRANCH  64  70
ATOM     70  C   UNL     1       7.847   3.438  30.479  0.00  0.00    +0.190 C 
BRANCH  70  71
ATOM     71  O   UNL     1       7.967   2.828  29.191  0.00  0.00    -0.392 OA
ATOM     72  H   UNL     1       8.485   2.006  29.291  0.00  0.00    +0.210 HD
ENDBRANCH  70  71
ENDBRANCH  64  70
BRANCH  61  73
ATOM     73  O   UNL     1       4.896   6.521  26.968  0.00  0.00    -0.338 OA
BRANCH  73  74
ATOM     74  C   UNL     1       5.076   6.593  25.537  0.00  0.00    +0.282 C 
ATOM     75  C   UNL     1       4.198   5.405  24.950  0.00  0.00    +0.201 C 
ATOM     76  C   UNL     1       5.039   4.212  24.429  0.00  0.00    +0.179 C 
ATOM     77  C   UNL     1       5.987   4.736  23.343  0.00  0.00    +0.177 C 
ATOM     78  C   UNL     1       6.839   5.904  23.896  0.00  0.00    +0.178 C 
ATOM     79  O   UNL     1       6.453   6.454  25.178  0.00  0.00    -0.341 OA
BRANCH  75  80
ATOM     80  O   UNL     1       3.309   5.868  23.890  0.00  0.00    -0.384 OA
ATOM     81  H   UNL     1       2.466   5.362  23.962  0.00  0.00    +0.210 HD
ENDBRANCH  75  80
BRANCH  76  82
ATOM     82  O   UNL     1       5.731   3.537  25.480  0.00  0.00    -0.386 OA
ATOM     83  H   UNL     1       5.457   2.572  25.460  0.00  0.00    +0.210 HD
ENDBRANCH  76  82
BRANCH  77  84
ATOM     84  O   UNL     1       5.215   5.147  22.193  0.00  0.00    -0.386 OA
ATOM     85  H   UNL     1       5.273   6.120  22.108  0.00  0.00    +0.210 HD
ENDBRANCH  77  84
BRANCH  78  86
ATOM     86  C   UNL     1       8.259   5.356  24.155  0.00  0.00    +0.190 C 
BRANCH  86  87
ATOM     87  O   UNL     1       8.191   4.026  24.683  0.00  0.00    -0.392 OA
ATOM     88  H   UNL     1       9.046   3.893  25.154  0.00  0.00    +0.210 HD
ENDBRANCH  86  87
ENDBRANCH  78  86
ENDBRANCH  73  74
ENDBRANCH  61  73
ENDBRANCH  59  60
ENDBRANCH  47  59
ENDBRANCH  45  46
ENDBRANCH   3  45
BRANCH   5  89
ATOM     89  C   UNL     1       0.450  -3.371  26.386  0.00  0.00    +0.197 C 
BRANCH  89  90
ATOM     90  O   UNL     1       1.487  -4.468  26.670  0.00  0.00    -0.346 OA
BRANCH  90  91
ATOM     91  C   UNL     1       1.146  -5.919  26.424  0.00  0.00    +0.282 C 
ATOM     92  C   UNL     1       2.143  -7.093  27.039  0.00  0.00    +0.202 C 
ATOM     93  C   UNL     1       3.352  -7.663  26.178  0.00  0.00    +0.186 C 
ATOM     94  C   UNL     1       2.823  -7.851  24.733  0.00  0.00    +0.177 C 
ATOM     95  C   UNL     1       1.989  -6.643  24.228  0.00  0.00    +0.178 C 
ATOM     96  O   UNL     1       0.874  -6.230  25.043  0.00  0.00    -0.341 OA
BRANCH  92  97
ATOM     97  O   UNL     1       1.287  -8.276  27.284  0.00  0.00    -0.384 OA
ATOM     98  H   UNL     1       1.326  -8.522  28.240  0.00  0.00    +0.210 HD
ENDBRANCH  92  97
BRANCH  94  99
ATOM     99  O   UNL     1       2.024  -9.055  24.683  0.00  0.00    -0.386 OA
ATOM    100  H   UNL     1       2.609  -9.793  24.412  0.00  0.00    +0.210 HD
ENDBRANCH  94  99
BRANCH  95 101
ATOM    101  C   UNL     1       2.901  -5.454  23.960  0.00  0.00    +0.190 C 
BRANCH 101 102
ATOM    102  O   UNL     1       2.138  -4.251  23.923  0.00  0.00    -0.392 OA
ATOM    103  H   UNL     1       2.645  -3.618  23.385  0.00  0.00    +0.210 HD
ENDBRANCH 101 102
ENDBRANCH  95 101
BRANCH  93 104
ATOM    104  O   UNL     1       4.648  -6.973  26.192  0.00  0.00    -0.340 OA
BRANCH 104 105
ATOM    105  C   UNL     1       4.879  -5.998  27.315  0.00  0.00    +0.282 C 
ATOM    106  C   UNL     1       6.295  -6.248  27.984  0.00  0.00    +0.201 C 
ATOM    107  C   UNL     1       6.388  -6.302  29.529  0.00  0.00    +0.179 C 
ATOM    108  C   UNL     1       5.239  -5.679  30.292  0.00  0.00    +0.177 C 
ATOM    109  C   UNL     1       3.867  -5.822  29.618  0.00  0.00    +0.178 C 
ATOM    110  O   UNL     1       3.767  -6.004  28.197  0.00  0.00    -0.341 OA
BRANCH 106 111
ATOM    111  O   UNL     1       7.190  -5.188  27.551  0.00  0.00    -0.384 OA
ATOM    112  H   UNL     1       8.037  -5.595  27.285  0.00  0.00    +0.210 HD
ENDBRANCH 106 111
BRANCH 107 113
ATOM    113  O   UNL     1       6.639  -7.625  30.015  0.00  0.00    -0.386 OA
ATOM    114  H   UNL     1       5.968  -7.863  30.659  0.00  0.00    +0.210 HD
ENDBRANCH 107 113
BRANCH 108 115
ATOM    115  O   UNL     1       5.517  -4.282  30.483  0.00  0.00    -0.386 OA
ATOM    116  H   UNL     1       4.927  -3.950  31.185  0.00  0.00    +0.210 HD
ENDBRANCH 108 115
BRANCH 109 117
ATOM    117  C   UNL     1       3.050  -6.994  30.198  0.00  0.00    +0.190 C 
BRANCH 117 118
ATOM    118  O   UNL     1       3.536  -8.237  29.679  0.00  0.00    -0.392 OA
ATOM    119  H   UNL     1       2.789  -8.662  29.218  0.00  0.00    +0.210 HD
ENDBRANCH 117 118
ENDBRANCH 109 117
ENDBRANCH 104 105
ENDBRANCH  93 104
ENDBRANCH  90  91
ENDBRANCH  89  90
ENDBRANCH   5  89
TORSDOF 47
ENDMDL
