MODEL 1
REMARK VINA RESULT:      -6.5      0.000      0.000
REMARK  Name = 
REMARK  7 active torsions:
REMARK  status: ('A' for Active; 'I' for Inactive)
REMARK    1  A    between atoms: C_1  and  N_2
REMARK    2  A    between atoms: N_2  and  S_3
REMARK    3  A    between atoms: S_3  and  C_6
REMARK    4  A    between atoms: C_6  and  C_7
REMARK    5  A    between atoms: C_7  and  C_8
REMARK    6  A    between atoms: C_14  and  C_15
REMARK    7  A    between atoms: N_18  and  C_19
REMARK                            x       y       z     vdW  Elec       q    Type
REMARK                         _______ _______ _______ _____ _____    ______ ____
ROOT
ATOM      1  C   UNL     1       7.033  -2.626  24.509  0.00  0.00    -0.045 A 
ATOM      2  C   UNL     1       7.129  -3.473  23.399  0.00  0.00    +0.006 A 
ATOM      3  C   UNL     1       7.897  -3.134  22.286  0.00  0.00    +0.026 A 
ATOM      4  C   UNL     1       8.564  -1.905  22.307  0.00  0.00    +0.047 A 
ATOM      5  N   UNL     1       9.340  -1.322  21.339  0.00  0.00    -0.360 N 
ATOM      6  H   UNL     1       9.540  -1.736  20.440  0.00  0.00    +0.165 HD
ATOM      7  C   UNL     1       9.745  -0.084  21.744  0.00  0.00    +0.087 A 
ATOM      8  C   UNL     1       9.216   0.171  23.000  0.00  0.00    -0.019 A 
ATOM      9  C   UNL     1       8.505  -1.018  23.384  0.00  0.00    +0.003 A 
ATOM     10  C   UNL     1       7.764  -1.418  24.519  0.00  0.00    +0.014 A 
ENDROOT
BRANCH   8  11
ATOM     11  C   UNL     1       9.342   1.511  23.675  0.00  0.00    +0.023 C 
ATOM     12  C   UNL     1      10.105   2.546  22.841  0.00  0.00    +0.023 C 
ATOM     13  C   UNL     1      10.417   3.765  23.714  0.00  0.00    +0.084 C 
ATOM     14  N   UNL     1       9.237   4.372  24.348  0.00  0.00    -0.305 NA
ATOM     15  C   UNL     1       8.476   5.197  23.418  0.00  0.00    +0.104 C 
ATOM     16  C   UNL     1       8.395   3.377  25.030  0.00  0.00    +0.084 C 
ATOM     17  C   UNL     1       8.047   2.139  24.186  0.00  0.00    +0.023 C 
ENDBRANCH   8  11
BRANCH   1  18
ATOM     18  C   UNL     1       6.132  -3.049  25.649  0.00  0.00    +0.059 C 
BRANCH  18  19
ATOM     19  C   UNL     1       6.822  -3.532  26.917  0.00  0.00    +0.189 C 
BRANCH  19  20
ATOM     20  S   UNL     1       6.788  -5.323  27.089  0.00  0.00    +0.029 S 
ATOM     21  O   UNL     1       6.802  -5.731  28.474  0.00  0.00    -0.158 OA
ATOM     22  O   UNL     1       5.839  -5.866  26.147  0.00  0.00    -0.158 OA
BRANCH  20  24
ATOM     23  C   UNL     1       9.329  -4.673  26.469  0.00  0.00    +0.127 C 
ATOM     24  N   UNL     1       8.318  -5.737  26.485  0.00  0.00    -0.198 NA
ATOM     25  H   UNL     1       8.623  -6.583  26.973  0.00  0.00    +0.147 HD
ENDBRANCH  20  24
ENDBRANCH  19  20
ENDBRANCH  18  19
ENDBRANCH   1  18
TORSDOF 5
ENDMDL
MODEL 2
REMARK VINA RESULT:      -6.4      4.721      7.999
REMARK  Name = 
REMARK  7 active torsions:
REMARK  status: ('A' for Active; 'I' for Inactive)
REMARK    1  A    between atoms: C_1  and  N_2
REMARK    2  A    between atoms: N_2  and  S_3
REMARK    3  A    between atoms: S_3  and  C_6
REMARK    4  A    between atoms: C_6  and  C_7
REMARK    5  A    between atoms: C_7  and  C_8
REMARK    6  A    between atoms: C_14  and  C_15
REMARK    7  A    between atoms: N_18  and  C_19
REMARK                            x       y       z     vdW  Elec       q    Type
REMARK                         _______ _______ _______ _____ _____    ______ ____
ROOT
ATOM      1  C   UNL     1       8.970   2.149  23.943  0.00  0.00    -0.045 A 
ATOM      2  C   UNL     1       9.523   2.335  22.670  0.00  0.00    +0.006 A 
ATOM      3  C   UNL     1       9.833   1.257  21.843  0.00  0.00    +0.026 A 
ATOM      4  C   UNL     1       9.585  -0.029  22.332  0.00  0.00    +0.047 A 
ATOM      5  N   UNL     1       9.833  -1.243  21.747  0.00  0.00    -0.360 N 
ATOM      6  H   UNL     1      10.246  -1.364  20.833  0.00  0.00    +0.165 HD
ATOM      7  C   UNL     1       9.500  -2.254  22.601  0.00  0.00    +0.087 A 
ATOM      8  C   UNL     1       9.035  -1.703  23.785  0.00  0.00    -0.019 A 
ATOM      9  C   UNL     1       9.037  -0.278  23.593  0.00  0.00    +0.003 A 
ATOM     10  C   UNL     1       8.682   0.838  24.383  0.00  0.00    +0.014 A 
ENDROOT
BRANCH   8  11
ATOM     11  C   UNL     1       8.724  -2.538  25.000  0.00  0.00    +0.023 C 
ATOM     12  C   UNL     1       7.236  -2.554  25.366  0.00  0.00    +0.023 C 
ATOM     13  C   UNL     1       7.065  -3.190  26.749  0.00  0.00    +0.084 C 
ATOM     14  N   UNL     1       7.648  -4.533  26.872  0.00  0.00    -0.305 NA
ATOM     15  C   UNL     1       6.805  -5.557  26.267  0.00  0.00    +0.104 C 
ATOM     16  C   UNL     1       9.034  -4.589  26.382  0.00  0.00    +0.084 C 
ATOM     17  C   UNL     1       9.251  -3.972  24.990  0.00  0.00    +0.023 C 
ENDBRANCH   8  11
BRANCH   1  18
ATOM     18  C   UNL     1       8.717   3.374  24.794  0.00  0.00    +0.059 C 
BRANCH  18  19
ATOM     19  C   UNL     1       7.917   4.497  24.150  0.00  0.00    +0.189 C 
BRANCH  19  20
ATOM     20  S   UNL     1       8.904   5.973  23.852  0.00  0.00    +0.029 S 
ATOM     21  O   UNL     1       8.411   7.108  24.596  0.00  0.00    -0.158 OA
ATOM     22  O   UNL     1      10.301   5.611  23.856  0.00  0.00    -0.158 OA
BRANCH  20  24
ATOM     23  C   UNL     1       7.101   6.238  21.866  0.00  0.00    +0.127 C 
ATOM     24  N   UNL     1       8.522   6.299  22.232  0.00  0.00    -0.198 NA
ATOM     25  H   UNL     1       8.970   7.183  21.982  0.00  0.00    +0.147 HD
ENDBRANCH  20  24
ENDBRANCH  19  20
ENDBRANCH  18  19
ENDBRANCH   1  18
TORSDOF 5
ENDMDL
MODEL 3
REMARK VINA RESULT:      -6.4      1.584      1.947
REMARK  Name = 
REMARK  7 active torsions:
REMARK  status: ('A' for Active; 'I' for Inactive)
REMARK    1  A    between atoms: C_1  and  N_2
REMARK    2  A    between atoms: N_2  and  S_3
REMARK    3  A    between atoms: S_3  and  C_6
REMARK    4  A    between atoms: C_6  and  C_7
REMARK    5  A    between atoms: C_7  and  C_8
REMARK    6  A    between atoms: C_14  and  C_15
REMARK    7  A    between atoms: N_18  and  C_19
REMARK                            x       y       z     vdW  Elec       q    Type
REMARK                         _______ _______ _______ _____ _____    ______ ____
ROOT
ATOM      1  C   UNL     1       8.849  -1.892  25.016  0.00  0.00    -0.045 A 
ATOM      2  C   UNL     1       9.237  -2.763  23.991  0.00  0.00    +0.006 A 
ATOM      3  C   UNL     1       9.513  -2.300  22.705  0.00  0.00    +0.026 A 
ATOM      4  C   UNL     1       9.378  -0.930  22.465  0.00  0.00    +0.047 A 
ATOM      5  N   UNL     1       9.547  -0.232  21.297  0.00  0.00    -0.360 N 
ATOM      6  H   UNL     1       9.809  -0.648  20.415  0.00  0.00    +0.165 HD
ATOM      7  C   UNL     1       9.248   1.085  21.489  0.00  0.00    +0.087 A 
ATOM      8  C   UNL     1       8.857   1.267  22.806  0.00  0.00    -0.019 A 
ATOM      9  C   UNL     1       8.994  -0.013  23.446  0.00  0.00    +0.003 A 
ATOM     10  C   UNL     1       8.776  -0.506  24.752  0.00  0.00    +0.014 A 
ENDROOT
BRANCH   8  11
ATOM     11  C   UNL     1       8.313   2.577  23.315  0.00  0.00    +0.023 C 
ATOM     12  C   UNL     1       9.352   3.422  24.060  0.00  0.00    +0.023 C 
ATOM     13  C   UNL     1       8.644   4.582  24.766  0.00  0.00    +0.084 C 
ATOM     14  N   UNL     1       7.827   5.421  23.878  0.00  0.00    -0.305 NA
ATOM     15  C   UNL     1       8.636   6.352  23.101  0.00  0.00    +0.104 C 
ATOM     16  C   UNL     1       6.923   4.626  23.033  0.00  0.00    +0.084 C 
ATOM     17  C   UNL     1       7.594   3.456  22.294  0.00  0.00    +0.023 C 
ENDBRANCH   8  11
BRANCH   1  18
ATOM     18  C   UNL     1       8.514  -2.488  26.366  0.00  0.00    +0.059 C 
BRANCH  18  19
ATOM     19  C   UNL     1       8.600  -4.003  26.482  0.00  0.00    +0.189 C 
BRANCH  19  20
ATOM     20  S   UNL     1       6.992  -4.775  26.721  0.00  0.00    +0.029 S 
ATOM     21  O   UNL     1       6.060  -3.885  27.374  0.00  0.00    -0.158 OA
ATOM     22  O   UNL     1       6.638  -5.501  25.526  0.00  0.00    -0.158 OA
BRANCH  20  24
ATOM     23  C   UNL     1       6.293  -6.338  28.804  0.00  0.00    +0.127 C 
ATOM     24  N   UNL     1       7.368  -5.957  27.879  0.00  0.00    -0.198 NA
ATOM     25  H   UNL     1       7.782  -6.751  27.385  0.00  0.00    +0.147 HD
ENDBRANCH  20  24
ENDBRANCH  19  20
ENDBRANCH  18  19
ENDBRANCH   1  18
TORSDOF 5
ENDMDL
MODEL 4
REMARK VINA RESULT:      -6.4      2.952      3.589
REMARK  Name = 
REMARK  7 active torsions:
REMARK  status: ('A' for Active; 'I' for Inactive)
REMARK    1  A    between atoms: C_1  and  N_2
REMARK    2  A    between atoms: N_2  and  S_3
REMARK    3  A    between atoms: S_3  and  C_6
REMARK    4  A    between atoms: C_6  and  C_7
REMARK    5  A    between atoms: C_7  and  C_8
REMARK    6  A    between atoms: C_14  and  C_15
REMARK    7  A    between atoms: N_18  and  C_19
REMARK                            x       y       z     vdW  Elec       q    Type
REMARK                         _______ _______ _______ _____ _____    ______ ____
ROOT
ATOM      1  C   UNL     1       7.509  -1.855  22.984  0.00  0.00    -0.045 A 
ATOM      2  C   UNL     1       8.731  -2.536  23.026  0.00  0.00    +0.006 A 
ATOM      3  C   UNL     1       9.912  -1.894  23.396  0.00  0.00    +0.026 A 
ATOM      4  C   UNL     1       9.840  -0.535  23.714  0.00  0.00    +0.047 A 
ATOM      5  N   UNL     1      10.845   0.329  24.065  0.00  0.00    -0.360 N 
ATOM      6  H   UNL     1      11.819   0.072  24.144  0.00  0.00    +0.165 HD
ATOM      7  C   UNL     1      10.347   1.589  24.225  0.00  0.00    +0.087 A 
ATOM      8  C   UNL     1       8.986   1.569  23.962  0.00  0.00    -0.019 A 
ATOM      9  C   UNL     1       8.651   0.198  23.690  0.00  0.00    +0.003 A 
ATOM     10  C   UNL     1       7.464  -0.496  23.365  0.00  0.00    +0.014 A 
ENDROOT
BRANCH   8  11
ATOM     11  C   UNL     1       8.155   2.823  23.901  0.00  0.00    +0.023 C 
ATOM     12  C   UNL     1       8.833   4.038  24.542  0.00  0.00    +0.023 C 
ATOM     13  C   UNL     1       7.813   5.173  24.675  0.00  0.00    +0.084 C 
ATOM     14  N   UNL     1       7.157   5.546  23.413  0.00  0.00    -0.305 NA
ATOM     15  C   UNL     1       8.011   6.376  22.573  0.00  0.00    +0.104 C 
ATOM     16  C   UNL     1       6.627   4.378  22.692  0.00  0.00    +0.084 C 
ATOM     17  C   UNL     1       7.623   3.218  22.524  0.00  0.00    +0.023 C 
ENDBRANCH   8  11
BRANCH   1  18
ATOM     18  C   UNL     1       6.287  -2.617  22.518  0.00  0.00    +0.059 C 
BRANCH  18  19
ATOM     19  C   UNL     1       6.089  -4.009  23.101  0.00  0.00    +0.189 C 
BRANCH  19  20
ATOM     20  S   UNL     1       6.235  -5.309  21.864  0.00  0.00    +0.029 S 
ATOM     21  O   UNL     1       5.911  -4.830  20.541  0.00  0.00    -0.158 OA
ATOM     22  O   UNL     1       7.433  -6.070  22.124  0.00  0.00    -0.158 OA
BRANCH  20  24
ATOM     23  C   UNL     1       3.931  -5.746  23.194  0.00  0.00    +0.127 C 
ATOM     24  N   UNL     1       4.947  -6.321  22.303  0.00  0.00    -0.198 NA
ATOM     25  H   UNL     1       4.559  -6.715  21.443  0.00  0.00    +0.147 HD
ENDBRANCH  20  24
ENDBRANCH  19  20
ENDBRANCH  18  19
ENDBRANCH   1  18
TORSDOF 5
ENDMDL
MODEL 5
REMARK VINA RESULT:      -6.3      4.032      7.452
REMARK  Name = 
REMARK  7 active torsions:
REMARK  status: ('A' for Active; 'I' for Inactive)
REMARK    1  A    between atoms: C_1  and  N_2
REMARK    2  A    between atoms: N_2  and  S_3
REMARK    3  A    between atoms: S_3  and  C_6
REMARK    4  A    between atoms: C_6  and  C_7
REMARK    5  A    between atoms: C_7  and  C_8
REMARK    6  A    between atoms: C_14  and  C_15
REMARK    7  A    between atoms: N_18  and  C_19
REMARK                            x       y       z     vdW  Elec       q    Type
REMARK                         _______ _______ _______ _____ _____    ______ ____
ROOT
ATOM      1  C   UNL     1       9.825   0.180  23.620  0.00  0.00    -0.045 A 
ATOM      2  C   UNL     1       9.909   0.083  22.227  0.00  0.00    +0.006 A 
ATOM      3  C   UNL     1       9.254  -0.927  21.524  0.00  0.00    +0.026 A 
ATOM      4  C   UNL     1       8.515  -1.856  22.261  0.00  0.00    +0.047 A 
ATOM      5  N   UNL     1       7.819  -2.955  21.826  0.00  0.00    -0.360 N 
ATOM      6  H   UNL     1       7.750  -3.242  20.860  0.00  0.00    +0.165 HD
ATOM      7  C   UNL     1       7.295  -3.631  22.888  0.00  0.00    +0.087 A 
ATOM      8  C   UNL     1       7.660  -2.980  24.056  0.00  0.00    -0.019 A 
ATOM      9  C   UNL     1       8.394  -1.812  23.652  0.00  0.00    +0.003 A 
ATOM     10  C   UNL     1       9.024  -0.743  24.328  0.00  0.00    +0.014 A 
ENDROOT
BRANCH   8  11
ATOM     11  C   UNL     1       7.374  -3.547  25.423  0.00  0.00    +0.023 C 
ATOM     12  C   UNL     1       5.930  -3.326  25.886  0.00  0.00    +0.023 C 
ATOM     13  C   UNL     1       5.818  -3.684  27.371  0.00  0.00    +0.084 C 
ATOM     14  N   UNL     1       6.270  -5.043  27.700  0.00  0.00    -0.305 NA
ATOM     15  C   UNL     1       5.278  -6.053  27.353  0.00  0.00    +0.104 C 
ATOM     16  C   UNL     1       7.595  -5.344  27.135  0.00  0.00    +0.084 C 
ATOM     17  C   UNL     1       7.750  -5.011  25.642  0.00  0.00    +0.023 C 
ENDBRANCH   8  11
BRANCH   1  18
ATOM     18  C   UNL     1      10.613   1.276  24.306  0.00  0.00    +0.059 C 
BRANCH  18  19
ATOM     19  C   UNL     1      10.716   2.603  23.568  0.00  0.00    +0.189 C 
BRANCH  19  20
ATOM     20  S   UNL     1       9.276   3.654  23.823  0.00  0.00    +0.029 S 
ATOM     21  O   UNL     1       8.393   3.121  24.833  0.00  0.00    -0.158 OA
ATOM     22  O   UNL     1       9.700   5.033  23.836  0.00  0.00    -0.158 OA
BRANCH  20  24
ATOM     23  C   UNL     1       7.218   2.653  22.398  0.00  0.00    +0.127 C 
ATOM     24  N   UNL     1       8.455   3.443  22.354  0.00  0.00    -0.198 NA
ATOM     25  H   UNL     1       8.334   4.367  21.933  0.00  0.00    +0.147 HD
ENDBRANCH  20  24
ENDBRANCH  19  20
ENDBRANCH  18  19
ENDBRANCH   1  18
TORSDOF 5
ENDMDL
MODEL 6
REMARK VINA RESULT:      -6.3      4.226      8.158
REMARK  Name = 
REMARK  7 active torsions:
REMARK  status: ('A' for Active; 'I' for Inactive)
REMARK    1  A    between atoms: C_1  and  N_2
REMARK    2  A    between atoms: N_2  and  S_3
REMARK    3  A    between atoms: S_3  and  C_6
REMARK    4  A    between atoms: C_6  and  C_7
REMARK    5  A    between atoms: C_7  and  C_8
REMARK    6  A    between atoms: C_14  and  C_15
REMARK    7  A    between atoms: N_18  and  C_19
REMARK                            x       y       z     vdW  Elec       q    Type
REMARK                         _______ _______ _______ _____ _____    ______ ____
ROOT
ATOM      1  C   UNL     1       7.995  -3.822  23.970  0.00  0.00    -0.045 A 
ATOM      2  C   UNL     1       9.068  -3.826  24.868  0.00  0.00    +0.006 A 
ATOM      3  C   UNL     1       9.009  -4.523  26.073  0.00  0.00    +0.026 A 
ATOM      4  C   UNL     1       7.830  -5.215  26.366  0.00  0.00    +0.047 A 
ATOM      5  N   UNL     1       7.502  -5.936  27.485  0.00  0.00    -0.360 N 
ATOM      6  H   UNL     1       8.110  -6.066  28.281  0.00  0.00    +0.165 HD
ATOM      7  C   UNL     1       6.219  -6.392  27.390  0.00  0.00    +0.087 A 
ATOM      8  C   UNL     1       5.676  -5.954  26.192  0.00  0.00    -0.019 A 
ATOM      9  C   UNL     1       6.726  -5.248  25.511  0.00  0.00    +0.003 A 
ATOM     10  C   UNL     1       6.840  -4.577  24.273  0.00  0.00    +0.014 A 
ENDROOT
BRANCH   8  11
ATOM     11  C   UNL     1       4.225  -6.154  25.840  0.00  0.00    +0.023 C 
ATOM     12  C   UNL     1       3.477  -4.844  25.566  0.00  0.00    +0.023 C 
ATOM     13  C   UNL     1       1.974  -5.130  25.494  0.00  0.00    +0.084 C 
ATOM     14  N   UNL     1       1.602  -6.159  24.513  0.00  0.00    -0.305 NA
ATOM     15  C   UNL     1       1.598  -5.645  23.149  0.00  0.00    +0.104 C 
ATOM     16  C   UNL     1       2.412  -7.380  24.648  0.00  0.00    +0.084 C 
ATOM     17  C   UNL     1       3.930  -7.142  24.713  0.00  0.00    +0.023 C 
ENDBRANCH   8  11
BRANCH   1  18
ATOM     18  C   UNL     1       8.125  -2.992  22.710  0.00  0.00    +0.059 C 
BRANCH  18  19
ATOM     19  C   UNL     1       8.228  -1.485  22.896  0.00  0.00    +0.189 C 
BRANCH  19  20
ATOM     20  S   UNL     1       9.844  -0.837  22.441  0.00  0.00    +0.029 S 
ATOM     21  O   UNL     1      10.808  -1.892  22.235  0.00  0.00    -0.158 OA
ATOM     22  O   UNL     1       9.669   0.229  21.485  0.00  0.00    -0.158 OA
BRANCH  20  24
ATOM     23  C   UNL     1       9.334  -0.100  24.984  0.00  0.00    +0.127 C 
ATOM     24  N   UNL     1      10.310  -0.081  23.887  0.00  0.00    -0.198 NA
ATOM     25  H   UNL     1      11.225  -0.455  24.149  0.00  0.00    +0.147 HD
ENDBRANCH  20  24
ENDBRANCH  19  20
ENDBRANCH  18  19
ENDBRANCH   1  18
TORSDOF 5
ENDMDL
MODEL 7
REMARK VINA RESULT:      -6.2      2.506      3.006
REMARK  Name = 
REMARK  7 active torsions:
REMARK  status: ('A' for Active; 'I' for Inactive)
REMARK    1  A    between atoms: C_1  and  N_2
REMARK    2  A    between atoms: N_2  and  S_3
REMARK    3  A    between atoms: S_3  and  C_6
REMARK    4  A    between atoms: C_6  and  C_7
REMARK    5  A    between atoms: C_7  and  C_8
REMARK    6  A    between atoms: C_14  and  C_15
REMARK    7  A    between atoms: N_18  and  C_19
REMARK                            x       y       z     vdW  Elec       q    Type
REMARK                         _______ _______ _______ _____ _____    ______ ____
ROOT
ATOM      1  C   UNL     1       7.350  -2.742  24.198  0.00  0.00    -0.045 A 
ATOM      2  C   UNL     1       8.601  -3.351  24.050  0.00  0.00    +0.006 A 
ATOM      3  C   UNL     1       9.763  -2.602  23.874  0.00  0.00    +0.026 A 
ATOM      4  C   UNL     1       9.638  -1.210  23.836  0.00  0.00    +0.047 A 
ATOM      5  N   UNL     1      10.603  -0.257  23.637  0.00  0.00    -0.360 N 
ATOM      6  H   UNL     1      11.582  -0.456  23.488  0.00  0.00    +0.165 HD
ATOM      7  C   UNL     1      10.038   0.985  23.607  0.00  0.00    +0.087 A 
ATOM      8  C   UNL     1       8.668   0.856  23.774  0.00  0.00    -0.019 A 
ATOM      9  C   UNL     1       8.418  -0.544  23.977  0.00  0.00    +0.003 A 
ATOM     10  C   UNL     1       7.268  -1.332  24.210  0.00  0.00    +0.014 A 
ENDROOT
BRANCH   8  11
ATOM     11  C   UNL     1       7.723   2.022  23.639  0.00  0.00    +0.023 C 
ATOM     12  C   UNL     1       8.261   3.319  24.254  0.00  0.00    +0.023 C 
ATOM     13  C   UNL     1       7.133   4.354  24.312  0.00  0.00    +0.084 C 
ATOM     14  N   UNL     1       6.487   4.617  23.019  0.00  0.00    -0.305 NA
ATOM     15  C   UNL     1       7.286   5.495  22.173  0.00  0.00    +0.104 C 
ATOM     16  C   UNL     1       6.095   3.379  22.327  0.00  0.00    +0.084 C 
ATOM     17  C   UNL     1       7.202   2.315  22.234  0.00  0.00    +0.023 C 
ENDBRANCH   8  11
BRANCH   1  18
ATOM     18  C   UNL     1       6.135  -3.635  24.328  0.00  0.00    +0.059 C 
BRANCH  18  19
ATOM     19  C   UNL     1       6.366  -5.129  24.152  0.00  0.00    +0.189 C 
BRANCH  19  20
ATOM     20  S   UNL     1       4.998  -5.951  23.321  0.00  0.00    +0.029 S 
ATOM     21  O   UNL     1       4.597  -7.156  24.008  0.00  0.00    -0.158 OA
ATOM     22  O   UNL     1       4.036  -4.958  22.907  0.00  0.00    -0.158 OA
BRANCH  20  24
ATOM     23  C   UNL     1       7.105  -5.968  21.639  0.00  0.00    +0.127 C 
ATOM     24  N   UNL     1       5.752  -6.478  21.896  0.00  0.00    -0.198 NA
ATOM     25  H   UNL     1       5.690  -7.499  21.874  0.00  0.00    +0.147 HD
ENDBRANCH  20  24
ENDBRANCH  19  20
ENDBRANCH  18  19
ENDBRANCH   1  18
TORSDOF 5
ENDMDL
MODEL 8
REMARK VINA RESULT:      -6.1      2.023      2.997
REMARK  Name = 
REMARK  7 active torsions:
REMARK  status: ('A' for Active; 'I' for Inactive)
REMARK    1  A    between atoms: C_1  and  N_2
REMARK    2  A    between atoms: N_2  and  S_3
REMARK    3  A    between atoms: S_3  and  C_6
REMARK    4  A    between atoms: C_6  and  C_7
REMARK    5  A    between atoms: C_7  and  C_8
REMARK    6  A    between atoms: C_14  and  C_15
REMARK    7  A    between atoms: N_18  and  C_19
REMARK                            x       y       z     vdW  Elec       q    Type
REMARK                         _______ _______ _______ _____ _____    ______ ____
ROOT
ATOM      1  C   UNL     1       9.352  -1.424  23.968  0.00  0.00    -0.045 A 
ATOM      2  C   UNL     1       9.634  -1.639  22.614  0.00  0.00    +0.006 A 
ATOM      3  C   UNL     1       9.816  -0.577  21.729  0.00  0.00    +0.026 A 
ATOM      4  C   UNL     1       9.693   0.719  22.236  0.00  0.00    +0.047 A 
ATOM      5  N   UNL     1       9.783   1.920  21.581  0.00  0.00    -0.360 N 
ATOM      6  H   UNL     1       9.963   2.020  20.592  0.00  0.00    +0.165 HD
ATOM      7  C   UNL     1       9.531   2.947  22.443  0.00  0.00    +0.087 A 
ATOM      8  C   UNL     1       9.253   2.420  23.695  0.00  0.00    -0.019 A 
ATOM      9  C   UNL     1       9.412   0.996  23.576  0.00  0.00    +0.003 A 
ATOM     10  C   UNL     1       9.290  -0.101  24.457  0.00  0.00    +0.014 A 
ENDROOT
BRANCH   8  11
ATOM     11  C   UNL     1       8.783   3.272  24.846  0.00  0.00    +0.023 C 
ATOM     12  C   UNL     1       8.799   4.773  24.541  0.00  0.00    +0.023 C 
ATOM     13  C   UNL     1       8.576   5.553  25.840  0.00  0.00    +0.084 C 
ATOM     14  N   UNL     1       7.353   5.180  26.566  0.00  0.00    -0.305 NA
ATOM     15  C   UNL     1       6.159   5.770  25.973  0.00  0.00    +0.104 C 
ATOM     16  C   UNL     1       7.229   3.724  26.740  0.00  0.00    +0.084 C 
ATOM     17  C   UNL     1       7.434   2.901  25.458  0.00  0.00    +0.023 C 
ENDBRANCH   8  11
BRANCH   1  18
ATOM     18  C   UNL     1       9.115  -2.635  24.845  0.00  0.00    +0.059 C 
BRANCH  18  19
ATOM     19  C   UNL     1       7.733  -3.267  24.773  0.00  0.00    +0.189 C 
BRANCH  19  20
ATOM     20  S   UNL     1       7.791  -5.066  24.739  0.00  0.00    +0.029 S 
ATOM     21  O   UNL     1       9.080  -5.554  24.307  0.00  0.00    -0.158 OA
ATOM     22  O   UNL     1       7.144  -5.579  25.922  0.00  0.00    -0.158 OA
BRANCH  20  24
ATOM     23  C   UNL     1       7.090  -4.849  22.145  0.00  0.00    +0.127 C 
ATOM     24  N   UNL     1       6.732  -5.402  23.458  0.00  0.00    -0.198 NA
ATOM     25  H   UNL     1       6.574  -6.412  23.445  0.00  0.00    +0.147 HD
ENDBRANCH  20  24
ENDBRANCH  19  20
ENDBRANCH  18  19
ENDBRANCH   1  18
TORSDOF 5
ENDMDL
MODEL 9
REMARK VINA RESULT:      -6.1      4.173      8.069
REMARK  Name = 
REMARK  7 active torsions:
REMARK  status: ('A' for Active; 'I' for Inactive)
REMARK    1  A    between atoms: C_1  and  N_2
REMARK    2  A    between atoms: N_2  and  S_3
REMARK    3  A    between atoms: S_3  and  C_6
REMARK    4  A    between atoms: C_6  and  C_7
REMARK    5  A    between atoms: C_7  and  C_8
REMARK    6  A    between atoms: C_14  and  C_15
REMARK    7  A    between atoms: N_18  and  C_19
REMARK                            x       y       z     vdW  Elec       q    Type
REMARK                         _______ _______ _______ _____ _____    ______ ____
ROOT
ATOM      1  C   UNL     1       8.689  -2.386  22.847  0.00  0.00    -0.045 A 
ATOM      2  C   UNL     1       9.660  -2.226  23.842  0.00  0.00    +0.006 A 
ATOM      3  C   UNL     1       9.633  -2.976  25.016  0.00  0.00    +0.026 A 
ATOM      4  C   UNL     1       8.590  -3.892  25.178  0.00  0.00    +0.047 A 
ATOM      5  N   UNL     1       8.312  -4.713  26.240  0.00  0.00    -0.360 N 
ATOM      6  H   UNL     1       8.862  -4.760  27.086  0.00  0.00    +0.165 HD
ATOM      7  C   UNL     1       7.156  -5.401  26.013  0.00  0.00    +0.087 A 
ATOM      8  C   UNL     1       6.644  -5.021  24.781  0.00  0.00    -0.019 A 
ATOM      9  C   UNL     1       7.592  -4.096  24.222  0.00  0.00    +0.003 A 
ATOM     10  C   UNL     1       7.681  -3.361  23.019  0.00  0.00    +0.014 A 
ENDROOT
BRANCH   8  11
ATOM     11  C   UNL     1       5.296  -5.478  24.289  0.00  0.00    +0.023 C 
ATOM     12  C   UNL     1       4.712  -6.640  25.098  0.00  0.00    +0.023 C 
ATOM     13  C   UNL     1       3.493  -7.204  24.361  0.00  0.00    +0.084 C 
ATOM     14  N   UNL     1       2.457  -6.207  24.056  0.00  0.00    -0.305 NA
ATOM     15  C   UNL     1       1.640  -5.887  25.220  0.00  0.00    +0.104 C 
ATOM     16  C   UNL     1       3.011  -5.004  23.415  0.00  0.00    +0.084 C 
ATOM     17  C   UNL     1       4.230  -4.396  24.128  0.00  0.00    +0.023 C 
ENDBRANCH   8  11
BRANCH   1  18
ATOM     18  C   UNL     1       8.764  -1.491  21.629  0.00  0.00    +0.059 C 
BRANCH  18  19
ATOM     19  C   UNL     1       9.722  -0.311  21.710  0.00  0.00    +0.189 C 
BRANCH  19  20
ATOM     20  S   UNL     1       8.897   1.225  22.158  0.00  0.00    +0.029 S 
ATOM     21  O   UNL     1       7.891   1.597  21.191  0.00  0.00    -0.158 OA
ATOM     22  O   UNL     1       8.620   1.213  23.574  0.00  0.00    -0.158 OA
BRANCH  20  24
ATOM     23  C   UNL     1      10.770   2.880  23.169  0.00  0.00    +0.127 C 
ATOM     24  N   UNL     1      10.155   2.343  21.948  0.00  0.00    -0.198 NA
ATOM     25  H   UNL     1      10.829   1.931  21.299  0.00  0.00    +0.147 HD
ENDBRANCH  20  24
ENDBRANCH  19  20
ENDBRANCH  18  19
ENDBRANCH   1  18
TORSDOF 5
ENDMDL
