MODEL 1
REMARK VINA RESULT:      -7.5      0.000      0.000
REMARK  Name = 
REMARK  7 active torsions:
REMARK  status: ('A' for Active; 'I' for Inactive)
REMARK    1  A    between atoms: C_1  and  C_2
REMARK    2  A    between atoms: C_2  and  C_3
REMARK    3  A    between atoms: N_5  and  S_6
REMARK    4  A    between atoms: S_6  and  C_9
REMARK    5  A    between atoms: C_12  and  C_15
REMARK    6  A    between atoms: C_16  and  C_17
REMARK    7  A    between atoms: C_20  and  C_21
REMARK                            x       y       z     vdW  Elec       q    Type
REMARK                         _______ _______ _______ _____ _____    ______ ____
ROOT
ATOM      1  C   UNL     1       9.451   0.131  23.345  0.00  0.00    +0.109 A 
ATOM      2  C   UNL     1       9.330   0.779  22.119  0.00  0.00    +0.029 A 
ATOM      3  C   UNL     1       9.025   2.145  22.092  0.00  0.00    +0.010 A 
ATOM      4  C   UNL     1       8.770   2.855  23.279  0.00  0.00    -0.012 A 
ATOM      5  C   UNL     1       9.036   2.212  24.496  0.00  0.00    +0.010 A 
ATOM      6  C   UNL     1       9.404   0.858  24.532  0.00  0.00    +0.029 A 
ENDROOT
BRANCH   4   7
ATOM      7  C   UNL     1       8.107   4.164  23.227  0.00  0.00    +0.052 A 
ATOM      8  C   UNL     1       8.614   5.490  23.533  0.00  0.00    +0.121 A 
ATOM      9  N   UNL     1       7.653   6.407  23.337  0.00  0.00    -0.077 NA
ATOM     10  O   UNL     1       6.559   5.740  22.869  0.00  0.00    -0.359 OA
ATOM     11  C   UNL     1       6.817   4.410  22.780  0.00  0.00    +0.142 A 
ATOM     12  C   UNL     1       5.676   3.641  22.239  0.00  0.00    +0.090 C 
BRANCH   8  13
ATOM     13  C   UNL     1       9.934   5.937  24.006  0.00  0.00    +0.004 A 
ATOM     14  C   UNL     1      11.122   5.571  23.356  0.00  0.00    +0.010 A 
ATOM     15  C   UNL     1      12.367   5.891  23.904  0.00  0.00    +0.001 A 
ATOM     16  C   UNL     1      12.444   6.652  25.068  0.00  0.00    +0.000 A 
ATOM     17  C   UNL     1      11.276   7.107  25.674  0.00  0.00    +0.001 A 
ATOM     18  C   UNL     1      10.031   6.745  25.151  0.00  0.00    +0.010 A 
ENDBRANCH   8  13
ENDBRANCH   4   7
BRANCH   1  19
ATOM     19  S   UNL     1       9.592  -1.639  23.406  0.00  0.00    +0.074 S 
ATOM     20  O   UNL     1      10.716  -2.063  22.606  0.00  0.00    -0.150 OA
ATOM     21  O   UNL     1       9.472  -2.038  24.797  0.00  0.00    -0.150 OA
BRANCH  19  23
ATOM     22  C   UNL     1       7.711  -3.466  22.648  0.00  0.00    +0.232 C 
ATOM     23  N   UNL     1       8.171  -2.140  22.692  0.00  0.00    -0.185 N 
ATOM     24  H   UNL     1       7.657  -1.383  22.255  0.00  0.00    +0.177 HD
ATOM     25  O   UNL     1       8.327  -4.405  23.123  0.00  0.00    -0.274 OA
BRANCH  22  27
ATOM     26  C   UNL     1       6.226  -5.142  21.576  0.00  0.00    +0.013 C 
ATOM     27  C   UNL     1       6.421  -3.669  21.887  0.00  0.00    +0.094 C 
ENDBRANCH  22  27
ENDBRANCH  19  23
ENDBRANCH   1  19
TORSDOF 5
ENDMDL
MODEL 2
REMARK VINA RESULT:      -7.5      1.518      1.772
REMARK  Name = 
REMARK  7 active torsions:
REMARK  status: ('A' for Active; 'I' for Inactive)
REMARK    1  A    between atoms: C_1  and  C_2
REMARK    2  A    between atoms: C_2  and  C_3
REMARK    3  A    between atoms: N_5  and  S_6
REMARK    4  A    between atoms: S_6  and  C_9
REMARK    5  A    between atoms: C_12  and  C_15
REMARK    6  A    between atoms: C_16  and  C_17
REMARK    7  A    between atoms: C_20  and  C_21
REMARK                            x       y       z     vdW  Elec       q    Type
REMARK                         _______ _______ _______ _____ _____    ______ ____
ROOT
ATOM      1  C   UNL     1       9.322   0.024  23.082  0.00  0.00    +0.109 A 
ATOM      2  C   UNL     1       9.362   0.813  21.937  0.00  0.00    +0.029 A 
ATOM      3  C   UNL     1       9.035   2.172  22.029  0.00  0.00    +0.010 A 
ATOM      4  C   UNL     1       8.599   2.733  23.243  0.00  0.00    -0.012 A 
ATOM      5  C   UNL     1       8.703   1.948  24.400  0.00  0.00    +0.010 A 
ATOM      6  C   UNL     1       9.091   0.602  24.328  0.00  0.00    +0.029 A 
ENDROOT
BRANCH   4   7
ATOM      7  C   UNL     1       7.922   4.035  23.252  0.00  0.00    +0.052 A 
ATOM      8  C   UNL     1       8.431   5.360  23.563  0.00  0.00    +0.121 A 
ATOM      9  N   UNL     1       7.453   6.271  23.433  0.00  0.00    -0.077 NA
ATOM     10  O   UNL     1       6.343   5.602  23.004  0.00  0.00    -0.359 OA
ATOM     11  C   UNL     1       6.610   4.278  22.872  0.00  0.00    +0.142 A 
ATOM     12  C   UNL     1       5.451   3.509  22.370  0.00  0.00    +0.090 C 
BRANCH   8  13
ATOM     13  C   UNL     1       9.768   5.809  23.981  0.00  0.00    +0.004 A 
ATOM     14  C   UNL     1      10.936   5.370  23.343  0.00  0.00    +0.010 A 
ATOM     15  C   UNL     1      12.198   5.700  23.848  0.00  0.00    +0.001 A 
ATOM     16  C   UNL     1      12.309   6.544  24.950  0.00  0.00    +0.000 A 
ATOM     17  C   UNL     1      11.162   7.068  25.538  0.00  0.00    +0.001 A 
ATOM     18  C   UNL     1       9.901   6.698  25.062  0.00  0.00    +0.010 A 
ENDBRANCH   8  13
ENDBRANCH   4   7
BRANCH   1  19
ATOM     19  S   UNL     1       9.491  -1.741  22.953  0.00  0.00    +0.074 S 
ATOM     20  O   UNL     1       8.467  -2.262  22.079  0.00  0.00    -0.150 OA
ATOM     21  O   UNL     1      10.894  -2.028  22.716  0.00  0.00    -0.150 OA
BRANCH  19  23
ATOM     22  C   UNL     1       9.115  -3.586  24.929  0.00  0.00    +0.232 C 
ATOM     23  N   UNL     1       9.208  -2.247  24.517  0.00  0.00    -0.185 N 
ATOM     24  H   UNL     1       9.081  -1.478  25.167  0.00  0.00    +0.177 HD
ATOM     25  O   UNL     1       9.217  -4.531  24.165  0.00  0.00    -0.274 OA
BRANCH  22  27
ATOM     26  C   UNL     1       8.145  -5.139  26.606  0.00  0.00    +0.013 C 
ATOM     27  C   UNL     1       8.791  -3.781  26.392  0.00  0.00    +0.094 C 
ENDBRANCH  22  27
ENDBRANCH  19  23
ENDBRANCH   1  19
TORSDOF 5
ENDMDL
MODEL 3
REMARK VINA RESULT:      -7.2      1.865      4.105
REMARK  Name = 
REMARK  7 active torsions:
REMARK  status: ('A' for Active; 'I' for Inactive)
REMARK    1  A    between atoms: C_1  and  C_2
REMARK    2  A    between atoms: C_2  and  C_3
REMARK    3  A    between atoms: N_5  and  S_6
REMARK    4  A    between atoms: S_6  and  C_9
REMARK    5  A    between atoms: C_12  and  C_15
REMARK    6  A    between atoms: C_16  and  C_17
REMARK    7  A    between atoms: C_20  and  C_21
REMARK                            x       y       z     vdW  Elec       q    Type
REMARK                         _______ _______ _______ _____ _____    ______ ____
ROOT
ATOM      1  C   UNL     1       9.664   0.063  23.278  0.00  0.00    +0.109 A 
ATOM      2  C   UNL     1      10.090   0.855  22.215  0.00  0.00    +0.029 A 
ATOM      3  C   UNL     1      10.126   2.246  22.368  0.00  0.00    +0.010 A 
ATOM      4  C   UNL     1       9.671   2.858  23.549  0.00  0.00    -0.012 A 
ATOM      5  C   UNL     1       9.382   2.032  24.644  0.00  0.00    +0.010 A 
ATOM      6  C   UNL     1       9.404   0.634  24.521  0.00  0.00    +0.029 A 
ENDROOT
BRANCH   4   7
ATOM      7  C   UNL     1       9.371   4.295  23.567  0.00  0.00    +0.052 A 
ATOM      8  C   UNL     1       8.097   4.992  23.590  0.00  0.00    +0.121 A 
ATOM      9  N   UNL     1       8.297   6.319  23.609  0.00  0.00    -0.077 NA
ATOM     10  O   UNL     1       9.648   6.515  23.648  0.00  0.00    -0.359 OA
ATOM     11  C   UNL     1      10.299   5.324  23.644  0.00  0.00    +0.142 A 
ATOM     12  C   UNL     1      11.767   5.475  23.727  0.00  0.00    +0.090 C 
BRANCH   8  13
ATOM     13  C   UNL     1       6.716   4.484  23.584  0.00  0.00    +0.004 A 
ATOM     14  C   UNL     1       5.823   4.739  24.634  0.00  0.00    +0.010 A 
ATOM     15  C   UNL     1       4.565   4.129  24.672  0.00  0.00    +0.001 A 
ATOM     16  C   UNL     1       4.150   3.320  23.617  0.00  0.00    +0.000 A 
ATOM     17  C   UNL     1       4.985   3.133  22.519  0.00  0.00    +0.001 A 
ATOM     18  C   UNL     1       6.261   3.704  22.506  0.00  0.00    +0.010 A 
ENDBRANCH   8  13
ENDBRANCH   4   7
BRANCH   1  19
ATOM     19  S   UNL     1       9.376  -1.674  23.034  0.00  0.00    +0.074 S 
ATOM     20  O   UNL     1       8.179  -1.861  22.250  0.00  0.00    -0.150 OA
ATOM     21  O   UNL     1      10.636  -2.271  22.629  0.00  0.00    -0.150 OA
BRANCH  19  23
ATOM     22  C   UNL     1       9.000  -3.568  24.963  0.00  0.00    +0.232 C 
ATOM     23  N   UNL     1       9.123  -2.220  24.590  0.00  0.00    -0.185 N 
ATOM     24  H   UNL     1       9.040  -1.469  25.266  0.00  0.00    +0.177 HD
ATOM     25  O   UNL     1       9.050  -4.491  24.168  0.00  0.00    -0.274 OA
BRANCH  22  27
ATOM     26  C   UNL     1       7.861  -5.044  26.602  0.00  0.00    +0.013 C 
ATOM     27  C   UNL     1       8.713  -3.799  26.429  0.00  0.00    +0.094 C 
ENDBRANCH  22  27
ENDBRANCH  19  23
ENDBRANCH   1  19
TORSDOF 5
ENDMDL
MODEL 4
REMARK VINA RESULT:      -7.1      1.631      3.746
REMARK  Name = 
REMARK  7 active torsions:
REMARK  status: ('A' for Active; 'I' for Inactive)
REMARK    1  A    between atoms: C_1  and  C_2
REMARK    2  A    between atoms: C_2  and  C_3
REMARK    3  A    between atoms: N_5  and  S_6
REMARK    4  A    between atoms: S_6  and  C_9
REMARK    5  A    between atoms: C_12  and  C_15
REMARK    6  A    between atoms: C_16  and  C_17
REMARK    7  A    between atoms: C_20  and  C_21
REMARK                            x       y       z     vdW  Elec       q    Type
REMARK                         _______ _______ _______ _____ _____    ______ ____
ROOT
ATOM      1  C   UNL     1       9.639  -0.668  23.768  0.00  0.00    +0.109 A 
ATOM      2  C   UNL     1       9.145  -0.055  22.621  0.00  0.00    +0.029 A 
ATOM      3  C   UNL     1       9.322   1.323  22.448  0.00  0.00    +0.010 A 
ATOM      4  C   UNL     1       9.927   2.107  23.447  0.00  0.00    -0.012 A 
ATOM      5  C   UNL     1      10.534   1.442  24.521  0.00  0.00    +0.010 A 
ATOM      6  C   UNL     1      10.416   0.052  24.671  0.00  0.00    +0.029 A 
ENDROOT
BRANCH   4   7
ATOM      7  C   UNL     1       9.783   3.568  23.425  0.00  0.00    +0.052 A 
ATOM      8  C   UNL     1       8.593   4.399  23.497  0.00  0.00    +0.121 A 
ATOM      9  N   UNL     1       8.934   5.696  23.451  0.00  0.00    -0.077 NA
ATOM     10  O   UNL     1      10.297   5.746  23.401  0.00  0.00    -0.359 OA
ATOM     11  C   UNL     1      10.817   4.492  23.405  0.00  0.00    +0.142 A 
ATOM     12  C   UNL     1      12.295   4.486  23.393  0.00  0.00    +0.090 C 
BRANCH   8  13
ATOM     13  C   UNL     1       7.168   4.043  23.595  0.00  0.00    +0.004 A 
ATOM     14  C   UNL     1       6.463   4.117  24.804  0.00  0.00    +0.010 A 
ATOM     15  C   UNL     1       5.152   3.641  24.900  0.00  0.00    +0.001 A 
ATOM     16  C   UNL     1       4.499   3.160  23.767  0.00  0.00    +0.000 A 
ATOM     17  C   UNL     1       5.151   3.170  22.538  0.00  0.00    +0.001 A 
ATOM     18  C   UNL     1       6.478   3.601  22.454  0.00  0.00    +0.010 A 
ENDBRANCH   8  13
ENDBRANCH   4   7
BRANCH   1  19
ATOM     19  S   UNL     1       9.217  -2.357  24.127  0.00  0.00    +0.074 S 
ATOM     20  O   UNL     1      10.364  -3.202  23.899  0.00  0.00    -0.150 OA
ATOM     21  O   UNL     1       8.520  -2.370  25.401  0.00  0.00    -0.150 OA
BRANCH  19  23
ATOM     22  C   UNL     1       7.433  -3.936  22.793  0.00  0.00    +0.232 C 
ATOM     23  N   UNL     1       8.040  -2.685  22.991  0.00  0.00    -0.185 N 
ATOM     24  H   UNL     1       7.806  -1.881  22.418  0.00  0.00    +0.177 HD
ATOM     25  O   UNL     1       7.725  -4.931  23.434  0.00  0.00    -0.274 OA
BRANCH  22  27
ATOM     26  C   UNL     1       6.225  -5.426  21.218  0.00  0.00    +0.013 C 
ATOM     27  C   UNL     1       6.438  -3.988  21.657  0.00  0.00    +0.094 C 
ENDBRANCH  22  27
ENDBRANCH  19  23
ENDBRANCH   1  19
TORSDOF 5
ENDMDL
MODEL 5
REMARK VINA RESULT:      -7.1      2.219      4.027
REMARK  Name = 
REMARK  7 active torsions:
REMARK  status: ('A' for Active; 'I' for Inactive)
REMARK    1  A    between atoms: C_1  and  C_2
REMARK    2  A    between atoms: C_2  and  C_3
REMARK    3  A    between atoms: N_5  and  S_6
REMARK    4  A    between atoms: S_6  and  C_9
REMARK    5  A    between atoms: C_12  and  C_15
REMARK    6  A    between atoms: C_16  and  C_17
REMARK    7  A    between atoms: C_20  and  C_21
REMARK                            x       y       z     vdW  Elec       q    Type
REMARK                         _______ _______ _______ _____ _____    ______ ____
ROOT
ATOM      1  C   UNL     1       9.945  -0.239  23.038  0.00  0.00    +0.109 A 
ATOM      2  C   UNL     1       9.687   0.583  21.945  0.00  0.00    +0.029 A 
ATOM      3  C   UNL     1       9.956   1.953  22.038  0.00  0.00    +0.010 A 
ATOM      4  C   UNL     1      10.416   2.522  23.239  0.00  0.00    -0.012 A 
ATOM      5  C   UNL     1      10.797   1.652  24.271  0.00  0.00    +0.010 A 
ATOM      6  C   UNL     1      10.589   0.269  24.163  0.00  0.00    +0.029 A 
ENDROOT
BRANCH   4   7
ATOM      7  C   UNL     1      10.348   3.975  23.441  0.00  0.00    +0.052 A 
ATOM      8  C   UNL     1       9.215   4.832  23.745  0.00  0.00    +0.121 A 
ATOM      9  N   UNL     1       9.618   6.107  23.852  0.00  0.00    -0.077 NA
ATOM     10  O   UNL     1      10.972   6.111  23.679  0.00  0.00    -0.359 OA
ATOM     11  C   UNL     1      11.423   4.851  23.453  0.00  0.00    +0.142 A 
ATOM     12  C   UNL     1      12.892   4.789  23.299  0.00  0.00    +0.090 C 
BRANCH   8  13
ATOM     13  C   UNL     1       7.788   4.521  23.928  0.00  0.00    +0.004 A 
ATOM     14  C   UNL     1       6.797   5.043  23.085  0.00  0.00    +0.010 A 
ATOM     15  C   UNL     1       5.441   4.848  23.363  0.00  0.00    +0.001 A 
ATOM     16  C   UNL     1       5.057   4.058  24.445  0.00  0.00    +0.000 A 
ATOM     17  C   UNL     1       6.028   3.451  25.236  0.00  0.00    +0.001 A 
ATOM     18  C   UNL     1       7.383   3.688  24.985  0.00  0.00    +0.010 A 
ENDBRANCH   8  13
ENDBRANCH   4   7
BRANCH   1  19
ATOM     19  S   UNL     1       9.388  -1.927  23.034  0.00  0.00    +0.074 S 
ATOM     20  O   UNL     1       8.569  -2.164  21.869  0.00  0.00    -0.150 OA
ATOM     21  O   UNL     1      10.537  -2.766  23.324  0.00  0.00    -0.150 OA
BRANCH  19  23
ATOM     22  C   UNL     1       7.227  -1.326  24.591  0.00  0.00    +0.232 C 
ATOM     23  N   UNL     1       8.446  -1.999  24.409  0.00  0.00    -0.185 N 
ATOM     24  H   UNL     1       8.852  -2.573  25.140  0.00  0.00    +0.177 HD
ATOM     25  O   UNL     1       6.735  -0.592  23.750  0.00  0.00    -0.274 OA
BRANCH  22  27
ATOM     26  C   UNL     1       7.049  -0.398  26.886  0.00  0.00    +0.013 C 
ATOM     27  C   UNL     1       6.596  -1.507  25.952  0.00  0.00    +0.094 C 
ENDBRANCH  22  27
ENDBRANCH  19  23
ENDBRANCH   1  19
TORSDOF 5
ENDMDL
MODEL 6
REMARK VINA RESULT:      -7.0      3.810      5.607
REMARK  Name = 
REMARK  7 active torsions:
REMARK  status: ('A' for Active; 'I' for Inactive)
REMARK    1  A    between atoms: C_1  and  C_2
REMARK    2  A    between atoms: C_2  and  C_3
REMARK    3  A    between atoms: N_5  and  S_6
REMARK    4  A    between atoms: S_6  and  C_9
REMARK    5  A    between atoms: C_12  and  C_15
REMARK    6  A    between atoms: C_16  and  C_17
REMARK    7  A    between atoms: C_20  and  C_21
REMARK                            x       y       z     vdW  Elec       q    Type
REMARK                         _______ _______ _______ _____ _____    ______ ____
ROOT
ATOM      1  C   UNL     1       6.891  -4.216  22.963  0.00  0.00    +0.109 A 
ATOM      2  C   UNL     1       6.596  -2.911  22.579  0.00  0.00    +0.029 A 
ATOM      3  C   UNL     1       6.776  -1.869  23.497  0.00  0.00    +0.010 A 
ATOM      4  C   UNL     1       7.179  -2.128  24.819  0.00  0.00    -0.012 A 
ATOM      5  C   UNL     1       7.599  -3.429  25.131  0.00  0.00    +0.010 A 
ATOM      6  C   UNL     1       7.482  -4.470  24.197  0.00  0.00    +0.029 A 
ENDROOT
BRANCH   4   7
ATOM      7  C   UNL     1       7.014  -1.101  25.855  0.00  0.00    +0.052 A 
ATOM      8  C   UNL     1       7.667   0.186  26.018  0.00  0.00    +0.121 A 
ATOM      9  N   UNL     1       7.198   0.805  27.113  0.00  0.00    -0.077 NA
ATOM     10  O   UNL     1       6.234  -0.003  27.642  0.00  0.00    -0.359 OA
ATOM     11  C   UNL     1       6.098  -1.129  26.896  0.00  0.00    +0.142 A 
ATOM     12  C   UNL     1       5.036  -2.024  27.401  0.00  0.00    +0.090 C 
BRANCH   8  13
ATOM     13  C   UNL     1       8.704   0.854  25.215  0.00  0.00    +0.004 A 
ATOM     14  C   UNL     1       9.940   0.253  24.944  0.00  0.00    +0.010 A 
ATOM     15  C   UNL     1      10.959   0.962  24.300  0.00  0.00    +0.001 A 
ATOM     16  C   UNL     1      10.726   2.258  23.845  0.00  0.00    +0.000 A 
ATOM     17  C   UNL     1       9.473   2.837  24.020  0.00  0.00    +0.001 A 
ATOM     18  C   UNL     1       8.472   2.144  24.706  0.00  0.00    +0.010 A 
ENDBRANCH   8  13
ENDBRANCH   4   7
BRANCH   1  19
ATOM     19  S   UNL     1       6.443  -5.575  21.909  0.00  0.00    +0.074 S 
ATOM     20  O   UNL     1       5.819  -5.073  20.709  0.00  0.00    -0.150 OA
ATOM     21  O   UNL     1       7.586  -6.468  21.840  0.00  0.00    -0.150 OA
BRANCH  19  23
ATOM     22  C   UNL     1       4.041  -5.908  23.163  0.00  0.00    +0.232 C 
ATOM     23  N   UNL     1       5.317  -6.391  22.831  0.00  0.00    -0.185 N 
ATOM     24  H   UNL     1       5.651  -7.290  23.163  0.00  0.00    +0.177 HD
ATOM     25  O   UNL     1       3.628  -4.814  22.819  0.00  0.00    -0.274 OA
BRANCH  22  27
ATOM     26  C   UNL     1       4.049  -7.202  25.282  0.00  0.00    +0.013 C 
ATOM     27  C   UNL     1       3.232  -6.814  24.063  0.00  0.00    +0.094 C 
ENDBRANCH  22  27
ENDBRANCH  19  23
ENDBRANCH   1  19
TORSDOF 5
ENDMDL
MODEL 7
REMARK VINA RESULT:      -6.8      3.320      4.967
REMARK  Name = 
REMARK  7 active torsions:
REMARK  status: ('A' for Active; 'I' for Inactive)
REMARK    1  A    between atoms: C_1  and  C_2
REMARK    2  A    between atoms: C_2  and  C_3
REMARK    3  A    between atoms: N_5  and  S_6
REMARK    4  A    between atoms: S_6  and  C_9
REMARK    5  A    between atoms: C_12  and  C_15
REMARK    6  A    between atoms: C_16  and  C_17
REMARK    7  A    between atoms: C_20  and  C_21
REMARK                            x       y       z     vdW  Elec       q    Type
REMARK                         _______ _______ _______ _____ _____    ______ ____
ROOT
ATOM      1  C   UNL     1       7.583  -3.464  26.178  0.00  0.00    +0.109 A 
ATOM      2  C   UNL     1       8.764  -2.749  26.349  0.00  0.00    +0.029 A 
ATOM      3  C   UNL     1       8.702  -1.378  26.626  0.00  0.00    +0.010 A 
ATOM      4  C   UNL     1       7.471  -0.700  26.664  0.00  0.00    -0.012 A 
ATOM      5  C   UNL     1       6.300  -1.470  26.627  0.00  0.00    +0.010 A 
ATOM      6  C   UNL     1       6.352  -2.856  26.412  0.00  0.00    +0.029 A 
ENDROOT
BRANCH   4   7
ATOM      7  C   UNL     1       7.433   0.765  26.591  0.00  0.00    +0.052 A 
ATOM      8  C   UNL     1       7.836   1.666  25.525  0.00  0.00    +0.121 A 
ATOM      9  N   UNL     1       7.615   2.939  25.889  0.00  0.00    -0.077 NA
ATOM     10  O   UNL     1       7.040   2.902  27.126  0.00  0.00    -0.359 OA
ATOM     11  C   UNL     1       6.907   1.620  27.549  0.00  0.00    +0.142 A 
ATOM     12  C   UNL     1       6.250   1.518  28.869  0.00  0.00    +0.090 C 
BRANCH   8  13
ATOM     13  C   UNL     1       8.422   1.399  24.201  0.00  0.00    +0.004 A 
ATOM     14  C   UNL     1       7.955   0.370  23.373  0.00  0.00    +0.010 A 
ATOM     15  C   UNL     1       8.618   0.047  22.185  0.00  0.00    +0.001 A 
ATOM     16  C   UNL     1       9.710   0.804  21.767  0.00  0.00    +0.000 A 
ATOM     17  C   UNL     1      10.128   1.891  22.529  0.00  0.00    +0.001 A 
ATOM     18  C   UNL     1       9.495   2.182  23.740  0.00  0.00    +0.010 A 
ENDBRANCH   8  13
ENDBRANCH   4   7
BRANCH   1  19
ATOM     19  S   UNL     1       7.635  -5.139  25.586  0.00  0.00    +0.074 S 
ATOM     20  O   UNL     1       9.003  -5.520  25.330  0.00  0.00    -0.150 OA
ATOM     21  O   UNL     1       6.787  -5.935  26.457  0.00  0.00    -0.150 OA
BRANCH  19  23
ATOM     22  C   UNL     1       7.172  -4.252  23.046  0.00  0.00    +0.232 C 
ATOM     23  N   UNL     1       6.798  -5.040  24.147  0.00  0.00    -0.185 N 
ATOM     24  H   UNL     1       5.952  -5.599  24.139  0.00  0.00    +0.177 HD
ATOM     25  O   UNL     1       8.157  -3.534  23.041  0.00  0.00    -0.274 OA
BRANCH  22  27
ATOM     26  C   UNL     1       6.184  -5.679  21.272  0.00  0.00    +0.013 C 
ATOM     27  C   UNL     1       6.212  -4.288  21.880  0.00  0.00    +0.094 C 
ENDBRANCH  22  27
ENDBRANCH  19  23
ENDBRANCH   1  19
TORSDOF 5
ENDMDL
MODEL 8
REMARK VINA RESULT:      -6.6      3.712      7.317
REMARK  Name = 
REMARK  7 active torsions:
REMARK  status: ('A' for Active; 'I' for Inactive)
REMARK    1  A    between atoms: C_1  and  C_2
REMARK    2  A    between atoms: C_2  and  C_3
REMARK    3  A    between atoms: N_5  and  S_6
REMARK    4  A    between atoms: S_6  and  C_9
REMARK    5  A    between atoms: C_12  and  C_15
REMARK    6  A    between atoms: C_16  and  C_17
REMARK    7  A    between atoms: C_20  and  C_21
REMARK                            x       y       z     vdW  Elec       q    Type
REMARK                         _______ _______ _______ _____ _____    ______ ____
ROOT
ATOM      1  C   UNL     1       5.554   0.065  26.747  0.00  0.00    +0.109 A 
ATOM      2  C   UNL     1       5.182  -0.997  25.929  0.00  0.00    +0.029 A 
ATOM      3  C   UNL     1       6.148  -1.931  25.534  0.00  0.00    +0.010 A 
ATOM      4  C   UNL     1       7.499  -1.772  25.893  0.00  0.00    -0.012 A 
ATOM      5  C   UNL     1       7.814  -0.777  26.828  0.00  0.00    +0.010 A 
ATOM      6  C   UNL     1       6.840   0.127  27.279  0.00  0.00    +0.029 A 
ENDROOT
BRANCH   4   7
ATOM      7  C   UNL     1       8.542  -2.529  25.190  0.00  0.00    +0.052 A 
ATOM      8  C   UNL     1       9.525  -2.094  24.212  0.00  0.00    +0.121 A 
ATOM      9  N   UNL     1      10.292  -3.130  23.838  0.00  0.00    -0.077 NA
ATOM     10  O   UNL     1       9.883  -4.209  24.567  0.00  0.00    -0.359 OA
ATOM     11  C   UNL     1       8.858  -3.865  25.387  0.00  0.00    +0.142 A 
ATOM     12  C   UNL     1       8.400  -4.989  26.232  0.00  0.00    +0.090 C 
BRANCH   8  13
ATOM     13  C   UNL     1       9.772  -0.775  23.609  0.00  0.00    +0.004 A 
ATOM     14  C   UNL     1      10.294   0.297  24.347  0.00  0.00    +0.010 A 
ATOM     15  C   UNL     1      10.387   1.575  23.789  0.00  0.00    +0.001 A 
ATOM     16  C   UNL     1      10.036   1.783  22.457  0.00  0.00    +0.000 A 
ATOM     17  C   UNL     1       9.607   0.711  21.681  0.00  0.00    +0.001 A 
ATOM     18  C   UNL     1       9.469  -0.557  22.254  0.00  0.00    +0.010 A 
ENDBRANCH   8  13
ENDBRANCH   4   7
BRANCH   1  19
ATOM     19  S   UNL     1       4.412   1.390  27.060  0.00  0.00    +0.074 S 
ATOM     20  O   UNL     1       3.140   1.088  26.447  0.00  0.00    -0.150 OA
ATOM     21  O   UNL     1       4.502   1.719  28.471  0.00  0.00    -0.150 OA
BRANCH  19  23
ATOM     22  C   UNL     1       5.210   2.824  24.879  0.00  0.00    +0.232 C 
ATOM     23  N   UNL     1       5.126   2.676  26.272  0.00  0.00    -0.185 N 
ATOM     24  H   UNL     1       5.529   3.356  26.907  0.00  0.00    +0.177 HD
ATOM     25  O   UNL     1       4.777   2.002  24.089  0.00  0.00    -0.274 OA
BRANCH  22  27
ATOM     26  C   UNL     1       6.811   3.711  23.201  0.00  0.00    +0.013 C 
ATOM     27  C   UNL     1       5.962   4.050  24.413  0.00  0.00    +0.094 C 
ENDBRANCH  22  27
ENDBRANCH  19  23
ENDBRANCH   1  19
TORSDOF 5
ENDMDL
MODEL 9
REMARK VINA RESULT:      -6.5      3.099      4.549
REMARK  Name = 
REMARK  7 active torsions:
REMARK  status: ('A' for Active; 'I' for Inactive)
REMARK    1  A    between atoms: C_1  and  C_2
REMARK    2  A    between atoms: C_2  and  C_3
REMARK    3  A    between atoms: N_5  and  S_6
REMARK    4  A    between atoms: S_6  and  C_9
REMARK    5  A    between atoms: C_12  and  C_15
REMARK    6  A    between atoms: C_16  and  C_17
REMARK    7  A    between atoms: C_20  and  C_21
REMARK                            x       y       z     vdW  Elec       q    Type
REMARK                         _______ _______ _______ _____ _____    ______ ____
ROOT
ATOM      1  C   UNL     1       7.008  -3.086  25.392  0.00  0.00    +0.109 A 
ATOM      2  C   UNL     1       8.254  -2.618  25.799  0.00  0.00    +0.029 A 
ATOM      3  C   UNL     1       8.732  -1.406  25.287  0.00  0.00    +0.010 A 
ATOM      4  C   UNL     1       8.008  -0.693  24.315  0.00  0.00    -0.012 A 
ATOM      5  C   UNL     1       6.702  -1.116  24.031  0.00  0.00    +0.010 A 
ATOM      6  C   UNL     1       6.188  -2.297  24.589  0.00  0.00    +0.029 A 
ENDROOT
BRANCH   4   7
ATOM      7  C   UNL     1       8.666   0.358  23.529  0.00  0.00    +0.052 A 
ATOM      8  C   UNL     1       8.801   1.782  23.785  0.00  0.00    +0.121 A 
ATOM      9  N   UNL     1       9.495   2.364  22.794  0.00  0.00    -0.077 NA
ATOM     10  O   UNL     1       9.858   1.372  21.929  0.00  0.00    -0.359 OA
ATOM     11  C   UNL     1       9.391   0.173  22.360  0.00  0.00    +0.142 A 
ATOM     12  C   UNL     1       9.791  -0.946  21.481  0.00  0.00    +0.090 C 
BRANCH   8  13
ATOM     13  C   UNL     1       8.311   2.617  24.892  0.00  0.00    +0.004 A 
ATOM     14  C   UNL     1       7.566   2.085  25.954  0.00  0.00    +0.010 A 
ATOM     15  C   UNL     1       6.993   2.920  26.918  0.00  0.00    +0.001 A 
ATOM     16  C   UNL     1       7.225   4.293  26.880  0.00  0.00    +0.000 A 
ATOM     17  C   UNL     1       8.042   4.827  25.889  0.00  0.00    +0.001 A 
ATOM     18  C   UNL     1       8.575   3.997  24.898  0.00  0.00    +0.010 A 
ENDBRANCH   8  13
ENDBRANCH   4   7
BRANCH   1  19
ATOM     19  S   UNL     1       6.486  -4.726  25.833  0.00  0.00    +0.074 S 
ATOM     20  O   UNL     1       7.560  -5.410  26.513  0.00  0.00    -0.150 OA
ATOM     21  O   UNL     1       5.169  -4.618  26.434  0.00  0.00    -0.150 OA
BRANCH  19  23
ATOM     22  C   UNL     1       7.199  -5.623  23.354  0.00  0.00    +0.232 C 
ATOM     23  N   UNL     1       6.221  -5.433  24.345  0.00  0.00    -0.185 N 
ATOM     24  H   UNL     1       5.255  -5.705  24.200  0.00  0.00    +0.177 HD
ATOM     25  O   UNL     1       8.358  -5.267  23.480  0.00  0.00    -0.274 OA
BRANCH  22  27
ATOM     26  C   UNL     1       6.274  -5.137  21.102  0.00  0.00    +0.013 C 
ATOM     27  C   UNL     1       6.692  -6.233  22.068  0.00  0.00    +0.094 C 
ENDBRANCH  22  27
ENDBRANCH  19  23
ENDBRANCH   1  19
TORSDOF 5
ENDMDL
