MODEL 1
REMARK VINA RESULT:      -7.0      0.000      0.000
REMARK  Name = 
REMARK  5 active torsions:
REMARK  status: ('A' for Active; 'I' for Inactive)
REMARK    1  A    between atoms: C_1  and  C_2
REMARK    2  A    between atoms: C_2  and  O_3
REMARK    3  A    between atoms: C_2  and  C_4
REMARK    4  A    between atoms: C_2  and  C_24
REMARK    5  A    between atoms: N_6  and  C_7
REMARK                            x       y       z     vdW  Elec       q    Type
REMARK                         _______ _______ _______ _____ _____    ______ ____
ROOT
ATOM      1  C   UNL     1       8.090  -1.651  22.937  0.00  0.00    +0.046 A 
ATOM      2  C   UNL     1       7.717  -0.431  23.563  0.00  0.00    +0.069 A 
ATOM      3  C   UNL     1       7.088  -0.512  24.912  0.00  0.00    +0.204 C 
ATOM      4  C   UNL     1       5.969   0.328  25.320  0.00  0.00    +0.064 A 
ATOM      5  S   UNL     1       4.966  -0.297  26.580  0.00  0.00    -0.093 S 
ATOM      6  C   UNL     1       4.007   1.103  26.633  0.00  0.00    +0.046 A 
ATOM      7  C   UNL     1       4.417   2.031  25.708  0.00  0.00    +0.013 A 
ATOM      8  C   UNL     1       5.545   1.591  24.925  0.00  0.00    -0.008 A 
ATOM      9  C   UNL     1       6.162   2.463  23.885  0.00  0.00    +0.208 C 
ATOM     10  S   UNL     1       7.922   2.343  23.744  0.00  0.00    +0.002 S 
ATOM     11  O   UNL     1       8.538   2.324  25.057  0.00  0.00    -0.169 OA
ATOM     12  O   UNL     1       8.325   3.333  22.756  0.00  0.00    -0.169 OA
ATOM     13  O   UNL     1       7.587  -1.356  25.663  0.00  0.00    -0.286 OA
ATOM     14  C   UNL     1       8.230   0.757  23.023  0.00  0.00    +0.101 A 
ATOM     15  C   UNL     1       9.101   0.729  21.915  0.00  0.00    +0.028 A 
ATOM     16  C   UNL     1       9.505  -0.479  21.360  0.00  0.00    +0.004 A 
ATOM     17  C   UNL     1       9.009  -1.667  21.882  0.00  0.00    +0.024 A 
ENDROOT
BRANCH   1  19
ATOM     18  C   UNL     1       6.412  -3.443  22.800  0.00  0.00    +0.258 C 
ATOM     19  N   UNL     1       7.599  -2.928  23.306  0.00  0.00    -0.282 N 
ATOM     20  H   UNL     1       8.305  -3.607  23.559  0.00  0.00    +0.155 HD
ATOM     21  O   UNL     1       5.749  -2.843  21.951  0.00  0.00    -0.272 OA
BRANCH  18  23
ATOM     22  C   UNL     1       4.635  -5.322  23.039  0.00  0.00    +0.061 C 
ATOM     23  C   UNL     1       6.103  -4.905  23.179  0.00  0.00    +0.234 C 
BRANCH  23  24
ATOM     24  C   UNL     1       7.015  -5.815  22.329  0.00  0.00    +0.427 C 
ATOM     25  F   UNL     1       8.198  -6.021  22.965  0.00  0.00    -0.167 F 
ATOM     26  F   UNL     1       7.305  -5.328  21.105  0.00  0.00    -0.167 F 
ATOM     27  F   UNL     1       6.467  -7.041  22.133  0.00  0.00    -0.167 F 
ENDBRANCH  23  24
BRANCH  23  28
ATOM     28  O   UNL     1       6.389  -4.998  24.602  0.00  0.00    -0.373 OA
ATOM     29  H   UNL     1       5.697  -4.477  25.059  0.00  0.00    +0.211 HD
ENDBRANCH  23  28
ENDBRANCH  18  23
ENDBRANCH   1  19
TORSDOF 4
ENDMDL
MODEL 2
REMARK VINA RESULT:      -7.0      2.100      2.426
REMARK  Name = 
REMARK  5 active torsions:
REMARK  status: ('A' for Active; 'I' for Inactive)
REMARK    1  A    between atoms: C_1  and  C_2
REMARK    2  A    between atoms: C_2  and  O_3
REMARK    3  A    between atoms: C_2  and  C_4
REMARK    4  A    between atoms: C_2  and  C_24
REMARK    5  A    between atoms: N_6  and  C_7
REMARK                            x       y       z     vdW  Elec       q    Type
REMARK                         _______ _______ _______ _____ _____    ______ ____
ROOT
ATOM      1  C   UNL     1       9.072  -1.156  23.300  0.00  0.00    +0.046 A 
ATOM      2  C   UNL     1       8.602   0.063  23.861  0.00  0.00    +0.069 A 
ATOM      3  C   UNL     1       8.522   0.152  25.347  0.00  0.00    +0.204 C 
ATOM      4  C   UNL     1       7.417   0.798  26.046  0.00  0.00    +0.064 A 
ATOM      5  S   UNL     1       7.127   0.269  27.664  0.00  0.00    -0.093 S 
ATOM      6  C   UNL     1       5.885   1.402  27.906  0.00  0.00    +0.046 A 
ATOM      7  C   UNL     1       5.673   2.166  26.785  0.00  0.00    +0.013 A 
ATOM      8  C   UNL     1       6.543   1.818  25.689  0.00  0.00    -0.008 A 
ATOM      9  C   UNL     1       6.493   2.546  24.389  0.00  0.00    +0.208 C 
ATOM     10  S   UNL     1       8.056   2.783  23.595  0.00  0.00    +0.002 S 
ATOM     11  O   UNL     1       9.060   3.193  24.557  0.00  0.00    -0.169 OA
ATOM     12  O   UNL     1       7.798   3.589  22.410  0.00  0.00    -0.169 OA
ATOM     13  O   UNL     1       9.465  -0.373  25.946  0.00  0.00    -0.286 OA
ATOM     14  C   UNL     1       8.539   1.181  23.018  0.00  0.00    +0.101 A 
ATOM     15  C   UNL     1       8.951   1.096  21.672  0.00  0.00    +0.028 A 
ATOM     16  C   UNL     1       9.468  -0.089  21.163  0.00  0.00    +0.004 A 
ATOM     17  C   UNL     1       9.540  -1.208  21.983  0.00  0.00    +0.024 A 
ENDROOT
BRANCH   1  19
ATOM     18  C   UNL     1       8.094  -3.325  23.919  0.00  0.00    +0.258 C 
ATOM     19  N   UNL     1       9.121  -2.393  23.989  0.00  0.00    -0.282 N 
ATOM     20  H   UNL     1      10.049  -2.766  24.143  0.00  0.00    +0.155 HD
ATOM     21  O   UNL     1       7.106  -3.156  23.201  0.00  0.00    -0.272 OA
BRANCH  18  23
ATOM     22  C   UNL     1       9.753  -4.815  25.250  0.00  0.00    +0.061 C 
ATOM     23  C   UNL     1       8.374  -4.681  24.598  0.00  0.00    +0.234 C 
BRANCH  23  24
ATOM     24  C   UNL     1       7.253  -4.933  25.628  0.00  0.00    +0.427 C 
ATOM     25  F   UNL     1       6.222  -5.601  25.048  0.00  0.00    -0.167 F 
ATOM     26  F   UNL     1       6.737  -3.814  26.176  0.00  0.00    -0.167 F 
ATOM     27  F   UNL     1       7.678  -5.704  26.661  0.00  0.00    -0.167 F 
ENDBRANCH  23  24
BRANCH  23  28
ATOM     28  O   UNL     1       8.369  -5.656  23.517  0.00  0.00    -0.373 OA
ATOM     29  H   UNL     1       7.633  -6.274  23.706  0.00  0.00    +0.211 HD
ENDBRANCH  23  28
ENDBRANCH  18  23
ENDBRANCH   1  19
TORSDOF 4
ENDMDL
MODEL 3
REMARK VINA RESULT:      -7.0      3.413      6.252
REMARK  Name = 
REMARK  5 active torsions:
REMARK  status: ('A' for Active; 'I' for Inactive)
REMARK    1  A    between atoms: C_1  and  C_2
REMARK    2  A    between atoms: C_2  and  O_3
REMARK    3  A    between atoms: C_2  and  C_4
REMARK    4  A    between atoms: C_2  and  C_24
REMARK    5  A    between atoms: N_6  and  C_7
REMARK                            x       y       z     vdW  Elec       q    Type
REMARK                         _______ _______ _______ _____ _____    ______ ____
ROOT
ATOM      1  C   UNL     1       6.590  -3.769  23.004  0.00  0.00    +0.046 A 
ATOM      2  C   UNL     1       5.691  -4.307  23.964  0.00  0.00    +0.069 A 
ATOM      3  C   UNL     1       5.053  -3.356  24.919  0.00  0.00    +0.204 C 
ATOM      4  C   UNL     1       4.854  -3.661  26.331  0.00  0.00    +0.064 A 
ATOM      5  S   UNL     1       4.733  -2.305  27.393  0.00  0.00    -0.093 S 
ATOM      6  C   UNL     1       4.430  -3.281  28.749  0.00  0.00    +0.046 A 
ATOM      7  C   UNL     1       4.432  -4.615  28.422  0.00  0.00    +0.013 A 
ATOM      8  C   UNL     1       4.693  -4.855  27.024  0.00  0.00    -0.008 A 
ATOM      9  C   UNL     1       4.710  -6.234  26.458  0.00  0.00    +0.208 C 
ATOM     10  S   UNL     1       4.049  -6.389  24.824  0.00  0.00    +0.002 S 
ATOM     11  O   UNL     1       2.823  -5.625  24.696  0.00  0.00    -0.169 OA
ATOM     12  O   UNL     1       4.069  -7.809  24.504  0.00  0.00    -0.169 OA
ATOM     13  O   UNL     1       4.708  -2.280  24.422  0.00  0.00    -0.286 OA
ATOM     14  C   UNL     1       5.235  -5.617  23.761  0.00  0.00    +0.101 A 
ATOM     15  C   UNL     1       5.640  -6.356  22.631  0.00  0.00    +0.028 A 
ATOM     16  C   UNL     1       6.468  -5.787  21.671  0.00  0.00    +0.004 A 
ATOM     17  C   UNL     1       6.929  -4.489  21.854  0.00  0.00    +0.024 A 
ENDROOT
BRANCH   1  19
ATOM     18  C   UNL     1       8.467  -2.321  23.656  0.00  0.00    +0.258 C 
ATOM     19  N   UNL     1       7.206  -2.496  23.101  0.00  0.00    -0.282 N 
ATOM     20  H   UNL     1       6.938  -1.830  22.389  0.00  0.00    +0.155 HD
ATOM     21  O   UNL     1       9.151  -3.272  24.040  0.00  0.00    -0.272 OA
BRANCH  18  23
ATOM     22  C   UNL     1       9.908  -0.446  24.730  0.00  0.00    +0.061 C 
ATOM     23  C   UNL     1       9.055  -0.900  23.542  0.00  0.00    +0.234 C 
BRANCH  23  24
ATOM     24  C   UNL     1       9.862  -0.829  22.228  0.00  0.00    +0.427 C 
ATOM     25  F   UNL     1      10.303   0.438  22.015  0.00  0.00    -0.167 F 
ATOM     26  F   UNL     1       9.172  -1.196  21.129  0.00  0.00    -0.167 F 
ATOM     27  F   UNL     1      10.966  -1.618  22.268  0.00  0.00    -0.167 F 
ENDBRANCH  23  24
BRANCH  23  28
ATOM     28  O   UNL     1       7.904  -0.010  23.540  0.00  0.00    -0.373 OA
ATOM     29  H   UNL     1       8.205   0.833  23.937  0.00  0.00    +0.211 HD
ENDBRANCH  23  28
ENDBRANCH  18  23
ENDBRANCH   1  19
TORSDOF 4
ENDMDL
MODEL 4
REMARK VINA RESULT:      -6.9      1.220      1.489
REMARK  Name = 
REMARK  5 active torsions:
REMARK  status: ('A' for Active; 'I' for Inactive)
REMARK    1  A    between atoms: C_1  and  C_2
REMARK    2  A    between atoms: C_2  and  O_3
REMARK    3  A    between atoms: C_2  and  C_4
REMARK    4  A    between atoms: C_2  and  C_24
REMARK    5  A    between atoms: N_6  and  C_7
REMARK                            x       y       z     vdW  Elec       q    Type
REMARK                         _______ _______ _______ _____ _____    ______ ____
ROOT
ATOM      1  C   UNL     1       8.198  -1.623  22.690  0.00  0.00    +0.046 A 
ATOM      2  C   UNL     1       7.823  -0.474  23.439  0.00  0.00    +0.069 A 
ATOM      3  C   UNL     1       7.265  -0.693  24.804  0.00  0.00    +0.204 C 
ATOM      4  C   UNL     1       6.145   0.073  25.338  0.00  0.00    +0.064 A 
ATOM      5  S   UNL     1       5.225  -0.692  26.583  0.00  0.00    -0.093 S 
ATOM      6  C   UNL     1       4.231   0.667  26.806  0.00  0.00    +0.046 A 
ATOM      7  C   UNL     1       4.568   1.685  25.948  0.00  0.00    +0.013 A 
ATOM      8  C   UNL     1       5.667   1.351  25.077  0.00  0.00    -0.008 A 
ATOM      9  C   UNL     1       6.207   2.330  24.089  0.00  0.00    +0.208 C 
ATOM     10  S   UNL     1       7.960   2.279  23.855  0.00  0.00    +0.002 S 
ATOM     11  O   UNL     1       8.642   2.165  25.130  0.00  0.00    -0.169 OA
ATOM     12  O   UNL     1       8.285   3.363  22.940  0.00  0.00    -0.169 OA
ATOM     13  O   UNL     1       7.825  -1.582  25.453  0.00  0.00    -0.286 OA
ATOM     14  C   UNL     1       8.275   0.772  22.982  0.00  0.00    +0.101 A 
ATOM     15  C   UNL     1       9.090   0.869  21.836  0.00  0.00    +0.028 A 
ATOM     16  C   UNL     1       9.499  -0.273  21.158  0.00  0.00    +0.004 A 
ATOM     17  C   UNL     1       9.062  -1.517  21.596  0.00  0.00    +0.024 A 
ENDROOT
BRANCH   1  19
ATOM     18  C   UNL     1       6.492  -3.392  22.627  0.00  0.00    +0.258 C 
ATOM     19  N   UNL     1       7.761  -2.942  22.967  0.00  0.00    -0.282 N 
ATOM     20  H   UNL     1       8.489  -3.643  22.990  0.00  0.00    +0.155 HD
ATOM     21  O   UNL     1       5.693  -2.687  22.006  0.00  0.00    -0.272 OA
BRANCH  18  23
ATOM     22  C   UNL     1       7.211  -5.843  22.155  0.00  0.00    +0.061 C 
ATOM     23  C   UNL     1       6.232  -4.895  22.855  0.00  0.00    +0.234 C 
BRANCH  23  24
ATOM     24  C   UNL     1       6.220  -5.145  24.378  0.00  0.00    +0.427 C 
ATOM     25  F   UNL     1       5.706  -4.068  25.027  0.00  0.00    -0.167 F 
ATOM     26  F   UNL     1       7.433  -5.386  24.914  0.00  0.00    -0.167 F 
ATOM     27  F   UNL     1       5.438  -6.204  24.711  0.00  0.00    -0.167 F 
ENDBRANCH  23  24
BRANCH  23  28
ATOM     28  O   UNL     1       4.942  -5.157  22.235  0.00  0.00    -0.373 OA
ATOM     29  H   UNL     1       4.382  -4.376  22.423  0.00  0.00    +0.211 HD
ENDBRANCH  23  28
ENDBRANCH  18  23
ENDBRANCH   1  19
TORSDOF 4
ENDMDL
MODEL 5
REMARK VINA RESULT:      -6.6      3.906      6.769
REMARK  Name = 
REMARK  5 active torsions:
REMARK  status: ('A' for Active; 'I' for Inactive)
REMARK    1  A    between atoms: C_1  and  C_2
REMARK    2  A    between atoms: C_2  and  O_3
REMARK    3  A    between atoms: C_2  and  C_4
REMARK    4  A    between atoms: C_2  and  C_24
REMARK    5  A    between atoms: N_6  and  C_7
REMARK                            x       y       z     vdW  Elec       q    Type
REMARK                         _______ _______ _______ _____ _____    ______ ____
ROOT
ATOM      1  C   UNL     1       7.423  -1.509  25.604  0.00  0.00    +0.046 A 
ATOM      2  C   UNL     1       6.700  -2.711  25.370  0.00  0.00    +0.069 A 
ATOM      3  C   UNL     1       7.351  -3.752  24.524  0.00  0.00    +0.204 C 
ATOM      4  C   UNL     1       6.626  -4.537  23.531  0.00  0.00    +0.064 A 
ATOM      5  S   UNL     1       7.568  -5.182  22.236  0.00  0.00    -0.093 S 
ATOM      6  C   UNL     1       6.242  -6.001  21.561  0.00  0.00    +0.046 A 
ATOM      7  C   UNL     1       5.095  -5.787  22.285  0.00  0.00    +0.013 A 
ATOM      8  C   UNL     1       5.296  -4.925  23.423  0.00  0.00    -0.008 A 
ATOM      9  C   UNL     1       4.182  -4.589  24.356  0.00  0.00    +0.208 C 
ATOM     10  S   UNL     1       4.638  -4.454  26.060  0.00  0.00    +0.002 S 
ATOM     11  O   UNL     1       5.527  -5.535  26.437  0.00  0.00    -0.169 OA
ATOM     12  O   UNL     1       3.405  -4.222  26.799  0.00  0.00    -0.169 OA
ATOM     13  O   UNL     1       8.560  -3.898  24.725  0.00  0.00    -0.286 OA
ATOM     14  C   UNL     1       5.583  -2.962  26.179  0.00  0.00    +0.101 A 
ATOM     15  C   UNL     1       5.213  -2.063  27.199  0.00  0.00    +0.028 A 
ATOM     16  C   UNL     1       5.972  -0.928  27.454  0.00  0.00    +0.004 A 
ATOM     17  C   UNL     1       7.083  -0.662  26.663  0.00  0.00    +0.024 A 
ENDROOT
BRANCH   1  19
ATOM     18  C   UNL     1       8.368  -0.227  23.731  0.00  0.00    +0.258 C 
ATOM     19  N   UNL     1       8.522  -1.066  24.827  0.00  0.00    -0.282 N 
ATOM     20  H   UNL     1       9.400  -0.991  25.323  0.00  0.00    +0.155 HD
ATOM     21  O   UNL     1       7.270   0.231  23.408  0.00  0.00    -0.272 OA
BRANCH  18  23
ATOM     22  C   UNL     1       9.532   0.867  21.683  0.00  0.00    +0.061 C 
ATOM     23  C   UNL     1       9.675   0.286  23.094  0.00  0.00    +0.234 C 
BRANCH  23  24
ATOM     24  C   UNL     1      10.291   1.325  24.055  0.00  0.00    +0.427 C 
ATOM     25  F   UNL     1      11.211   0.733  24.860  0.00  0.00    -0.167 F 
ATOM     26  F   UNL     1       9.400   1.938  24.860  0.00  0.00    -0.167 F 
ATOM     27  F   UNL     1      10.943   2.310  23.386  0.00  0.00    -0.167 F 
ENDBRANCH  23  24
BRANCH  23  28
ATOM     28  O   UNL     1      10.511  -0.894  22.935  0.00  0.00    -0.373 OA
ATOM     29  H   UNL     1      10.340  -1.234  22.033  0.00  0.00    +0.211 HD
ENDBRANCH  23  28
ENDBRANCH  18  23
ENDBRANCH   1  19
TORSDOF 4
ENDMDL
MODEL 6
REMARK VINA RESULT:      -6.6      2.393      2.739
REMARK  Name = 
REMARK  5 active torsions:
REMARK  status: ('A' for Active; 'I' for Inactive)
REMARK    1  A    between atoms: C_1  and  C_2
REMARK    2  A    between atoms: C_2  and  O_3
REMARK    3  A    between atoms: C_2  and  C_4
REMARK    4  A    between atoms: C_2  and  C_24
REMARK    5  A    between atoms: N_6  and  C_7
REMARK                            x       y       z     vdW  Elec       q    Type
REMARK                         _______ _______ _______ _____ _____    ______ ____
ROOT
ATOM      1  C   UNL     1       7.950  -2.052  23.858  0.00  0.00    +0.046 A 
ATOM      2  C   UNL     1       8.312  -0.726  24.222  0.00  0.00    +0.069 A 
ATOM      3  C   UNL     1       8.237  -0.363  25.666  0.00  0.00    +0.204 C 
ATOM      4  C   UNL     1       7.740   0.924  26.138  0.00  0.00    +0.064 A 
ATOM      5  S   UNL     1       7.112   0.954  27.746  0.00  0.00    -0.093 S 
ATOM      6  C   UNL     1       6.829   2.628  27.699  0.00  0.00    +0.046 A 
ATOM      7  C   UNL     1       7.186   3.167  26.487  0.00  0.00    +0.013 A 
ATOM      8  C   UNL     1       7.702   2.188  25.562  0.00  0.00    -0.008 A 
ATOM      9  C   UNL     1       8.172   2.572  24.200  0.00  0.00    +0.208 C 
ATOM     10  S   UNL     1       9.579   1.679  23.607  0.00  0.00    +0.002 S 
ATOM     11  O   UNL     1      10.578   1.549  24.651  0.00  0.00    -0.169 OA
ATOM     12  O   UNL     1       9.930   2.267  22.322  0.00  0.00    -0.169 OA
ATOM     13  O   UNL     1       8.625  -1.244  26.439  0.00  0.00    -0.286 OA
ATOM     14  C   UNL     1       8.992   0.044  23.268  0.00  0.00    +0.101 A 
ATOM     15  C   UNL     1       9.323  -0.493  22.007  0.00  0.00    +0.028 A 
ATOM     16  C   UNL     1       9.018  -1.813  21.697  0.00  0.00    +0.004 A 
ATOM     17  C   UNL     1       8.345  -2.593  22.630  0.00  0.00    +0.024 A 
ENDROOT
BRANCH   1  19
ATOM     18  C   UNL     1       7.719  -4.110  25.183  0.00  0.00    +0.258 C 
ATOM     19  N   UNL     1       7.192  -2.932  24.670  0.00  0.00    -0.282 N 
ATOM     20  H   UNL     1       6.465  -2.494  25.219  0.00  0.00    +0.155 HD
ATOM     21  O   UNL     1       8.899  -4.427  25.012  0.00  0.00    -0.272 OA
BRANCH  18  23
ATOM     22  C   UNL     1       6.229  -4.026  27.308  0.00  0.00    +0.061 C 
ATOM     23  C   UNL     1       6.815  -4.871  26.173  0.00  0.00    +0.234 C 
BRANCH  23  24
ATOM     24  C   UNL     1       5.694  -5.551  25.360  0.00  0.00    +0.427 C 
ATOM     25  F   UNL     1       4.597  -4.751  25.309  0.00  0.00    -0.167 F 
ATOM     26  F   UNL     1       5.291  -6.740  25.851  0.00  0.00    -0.167 F 
ATOM     27  F   UNL     1       6.066  -5.775  24.073  0.00  0.00    -0.167 F 
ENDBRANCH  23  24
BRANCH  23  28
ATOM     28  O   UNL     1       7.691  -5.831  26.828  0.00  0.00    -0.373 OA
ATOM     29  H   UNL     1       8.523  -5.354  27.029  0.00  0.00    +0.211 HD
ENDBRANCH  23  28
ENDBRANCH  18  23
ENDBRANCH   1  19
TORSDOF 4
ENDMDL
MODEL 7
REMARK VINA RESULT:      -6.5      3.111      4.297
REMARK  Name = 
REMARK  5 active torsions:
REMARK  status: ('A' for Active; 'I' for Inactive)
REMARK    1  A    between atoms: C_1  and  C_2
REMARK    2  A    between atoms: C_2  and  O_3
REMARK    3  A    between atoms: C_2  and  C_4
REMARK    4  A    between atoms: C_2  and  C_24
REMARK    5  A    between atoms: N_6  and  C_7
REMARK                            x       y       z     vdW  Elec       q    Type
REMARK                         _______ _______ _______ _____ _____    ______ ____
ROOT
ATOM      1  C   UNL     1       9.964   2.246  23.750  0.00  0.00    +0.046 A 
ATOM      2  C   UNL     1       8.968   3.217  24.044  0.00  0.00    +0.069 A 
ATOM      3  C   UNL     1       7.724   2.745  24.719  0.00  0.00    +0.204 C 
ATOM      4  C   UNL     1       6.396   3.237  24.372  0.00  0.00    +0.064 A 
ATOM      5  S   UNL     1       5.076   2.184  24.733  0.00  0.00    -0.093 S 
ATOM      6  C   UNL     1       3.918   3.314  24.219  0.00  0.00    +0.046 A 
ATOM      7  C   UNL     1       4.506   4.469  23.766  0.00  0.00    +0.013 A 
ATOM      8  C   UNL     1       5.946   4.436  23.832  0.00  0.00    -0.008 A 
ATOM      9  C   UNL     1       6.775   5.602  23.412  0.00  0.00    +0.208 C 
ATOM     10  S   UNL     1       8.228   5.883  24.381  0.00  0.00    +0.002 S 
ATOM     11  O   UNL     1       7.936   5.740  25.794  0.00  0.00    -0.169 OA
ATOM     12  O   UNL     1       8.831   7.107  23.874  0.00  0.00    -0.169 OA
ATOM     13  O   UNL     1       7.905   1.897  25.597  0.00  0.00    -0.286 OA
ATOM     14  C   UNL     1       9.336   4.567  23.963  0.00  0.00    +0.101 A 
ATOM     15  C   UNL     1      10.653   4.938  23.625  0.00  0.00    +0.028 A 
ATOM     16  C   UNL     1      11.628   3.972  23.406  0.00  0.00    +0.004 A 
ATOM     17  C   UNL     1      11.283   2.628  23.483  0.00  0.00    +0.024 A 
ENDROOT
BRANCH   1  19
ATOM     18  C   UNL     1       9.383   0.188  22.538  0.00  0.00    +0.258 C 
ATOM     19  N   UNL     1       9.738   0.848  23.707  0.00  0.00    -0.282 N 
ATOM     20  H   UNL     1      10.258   0.305  24.383  0.00  0.00    +0.155 HD
ATOM     21  O   UNL     1       9.305   0.772  21.455  0.00  0.00    -0.272 OA
BRANCH  18  23
ATOM     22  C   UNL     1      10.203  -1.973  23.723  0.00  0.00    +0.061 C 
ATOM     23  C   UNL     1       9.330  -1.350  22.629  0.00  0.00    +0.234 C 
BRANCH  23  24
ATOM     24  C   UNL     1       7.853  -1.761  22.804  0.00  0.00    +0.427 C 
ATOM     25  F   UNL     1       7.428  -2.465  21.723  0.00  0.00    -0.167 F 
ATOM     26  F   UNL     1       7.001  -0.727  22.962  0.00  0.00    -0.167 F 
ATOM     27  F   UNL     1       7.676  -2.569  23.882  0.00  0.00    -0.167 F 
ENDBRANCH  23  24
BRANCH  23  28
ATOM     28  O   UNL     1       9.897  -1.826  21.376  0.00  0.00    -0.373 OA
ATOM     29  H   UNL     1       9.904  -1.058  20.766  0.00  0.00    +0.211 HD
ENDBRANCH  23  28
ENDBRANCH  18  23
ENDBRANCH   1  19
TORSDOF 4
ENDMDL
MODEL 8
REMARK VINA RESULT:      -6.4      2.187      2.812
REMARK  Name = 
REMARK  5 active torsions:
REMARK  status: ('A' for Active; 'I' for Inactive)
REMARK    1  A    between atoms: C_1  and  C_2
REMARK    2  A    between atoms: C_2  and  O_3
REMARK    3  A    between atoms: C_2  and  C_4
REMARK    4  A    between atoms: C_2  and  C_24
REMARK    5  A    between atoms: N_6  and  C_7
REMARK                            x       y       z     vdW  Elec       q    Type
REMARK                         _______ _______ _______ _____ _____    ______ ____
ROOT
ATOM      1  C   UNL     1       8.682   0.047  24.367  0.00  0.00    +0.046 A 
ATOM      2  C   UNL     1       8.322   1.421  24.311  0.00  0.00    +0.069 A 
ATOM      3  C   UNL     1       6.934   1.786  24.716  0.00  0.00    +0.204 C 
ATOM      4  C   UNL     1       6.138   2.785  24.012  0.00  0.00    +0.064 A 
ATOM      5  S   UNL     1       4.424   2.632  24.157  0.00  0.00    -0.093 S 
ATOM      6  C   UNL     1       4.133   4.048  23.266  0.00  0.00    +0.046 A 
ATOM      7  C   UNL     1       5.304   4.630  22.846  0.00  0.00    +0.013 A 
ATOM      8  C   UNL     1       6.478   3.901  23.257  0.00  0.00    -0.008 A 
ATOM      9  C   UNL     1       7.851   4.380  22.927  0.00  0.00    +0.208 C 
ATOM     10  S   UNL     1       9.070   4.103  24.179  0.00  0.00    +0.002 S 
ATOM     11  O   UNL     1       8.540   4.430  25.488  0.00  0.00    -0.169 OA
ATOM     12  O   UNL     1      10.298   4.724  23.704  0.00  0.00    -0.169 OA
ATOM     13  O   UNL     1       6.505   1.171  25.696  0.00  0.00    -0.286 OA
ATOM     14  C   UNL     1       9.358   2.356  24.178  0.00  0.00    +0.101 A 
ATOM     15  C   UNL     1      10.704   1.941  24.127  0.00  0.00    +0.028 A 
ATOM     16  C   UNL     1      11.037   0.598  24.250  0.00  0.00    +0.004 A 
ATOM     17  C   UNL     1      10.025  -0.344  24.384  0.00  0.00    +0.024 A 
ENDROOT
BRANCH   1  19
ATOM     18  C   UNL     1       7.463  -1.808  23.309  0.00  0.00    +0.258 C 
ATOM     19  N   UNL     1       7.759  -1.027  24.419  0.00  0.00    -0.282 N 
ATOM     20  H   UNL     1       7.676  -1.483  25.317  0.00  0.00    +0.155 HD
ATOM     21  O   UNL     1       8.035  -1.651  22.228  0.00  0.00    -0.272 OA
BRANCH  18  23
ATOM     22  C   UNL     1       5.405  -3.217  22.584  0.00  0.00    +0.061 C 
ATOM     23  C   UNL     1       6.560  -3.029  23.573  0.00  0.00    +0.234 C 
BRANCH  23  24
ATOM     24  C   UNL     1       7.461  -4.282  23.610  0.00  0.00    +0.427 C 
ATOM     25  F   UNL     1       7.621  -4.783  22.357  0.00  0.00    -0.167 F 
ATOM     26  F   UNL     1       6.991  -5.285  24.379  0.00  0.00    -0.167 F 
ATOM     27  F   UNL     1       8.706  -3.997  24.071  0.00  0.00    -0.167 F 
ENDBRANCH  23  24
BRANCH  23  28
ATOM     28  O   UNL     1       5.922  -2.762  24.853  0.00  0.00    -0.373 OA
ATOM     29  H   UNL     1       6.532  -2.178  25.350  0.00  0.00    +0.211 HD
ENDBRANCH  23  28
ENDBRANCH  18  23
ENDBRANCH   1  19
TORSDOF 4
ENDMDL
MODEL 9
REMARK VINA RESULT:      -6.4      1.873      2.214
REMARK  Name = 
REMARK  5 active torsions:
REMARK  status: ('A' for Active; 'I' for Inactive)
REMARK    1  A    between atoms: C_1  and  C_2
REMARK    2  A    between atoms: C_2  and  O_3
REMARK    3  A    between atoms: C_2  and  C_4
REMARK    4  A    between atoms: C_2  and  C_24
REMARK    5  A    between atoms: N_6  and  C_7
REMARK                            x       y       z     vdW  Elec       q    Type
REMARK                         _______ _______ _______ _____ _____    ______ ____
ROOT
ATOM      1  C   UNL     1       8.404  -1.772  24.065  0.00  0.00    +0.046 A 
ATOM      2  C   UNL     1       8.333  -0.369  23.845  0.00  0.00    +0.069 A 
ATOM      3  C   UNL     1       7.332   0.403  24.635  0.00  0.00    +0.204 C 
ATOM      4  C   UNL     1       6.535   1.485  24.069  0.00  0.00    +0.064 A 
ATOM      5  S   UNL     1       5.034   1.817  24.855  0.00  0.00    -0.093 S 
ATOM      6  C   UNL     1       4.695   3.139  23.844  0.00  0.00    +0.046 A 
ATOM      7  C   UNL     1       5.686   3.329  22.913  0.00  0.00    +0.013 A 
ATOM      8  C   UNL     1       6.755   2.367  23.018  0.00  0.00    -0.008 A 
ATOM      9  C   UNL     1       7.942   2.416  22.117  0.00  0.00    +0.208 C 
ATOM     10  S   UNL     1       9.481   1.977  22.870  0.00  0.00    +0.002 S 
ATOM     11  O   UNL     1       9.604   2.592  24.177  0.00  0.00    -0.169 OA
ATOM     12  O   UNL     1      10.509   2.183  21.860  0.00  0.00    -0.169 OA
ATOM     13  O   UNL     1       7.222   0.050  25.813  0.00  0.00    -0.286 OA
ATOM     14  C   UNL     1       9.390   0.230  23.146  0.00  0.00    +0.101 A 
ATOM     15  C   UNL     1      10.488  -0.534  22.702  0.00  0.00    +0.028 A 
ATOM     16  C   UNL     1      10.568  -1.892  22.985  0.00  0.00    +0.004 A 
ATOM     17  C   UNL     1       9.531  -2.504  23.678  0.00  0.00    +0.024 A 
ENDROOT
BRANCH   1  19
ATOM     18  C   UNL     1       6.325  -3.080  23.965  0.00  0.00    +0.258 C 
ATOM     19  N   UNL     1       7.387  -2.543  24.680  0.00  0.00    -0.282 N 
ATOM     20  H   UNL     1       7.671  -3.055  25.504  0.00  0.00    +0.155 HD
ATOM     21  O   UNL     1       6.240  -2.970  22.739  0.00  0.00    -0.272 OA
BRANCH  18  23
ATOM     22  C   UNL     1       3.966  -4.137  24.215  0.00  0.00    +0.061 C 
ATOM     23  C   UNL     1       5.395  -4.022  24.755  0.00  0.00    +0.234 C 
BRANCH  23  24
ATOM     24  C   UNL     1       6.071  -5.408  24.818  0.00  0.00    +0.427 C 
ATOM     25  F   UNL     1       6.551  -5.641  26.067  0.00  0.00    -0.167 F 
ATOM     26  F   UNL     1       7.103  -5.565  23.964  0.00  0.00    -0.167 F 
ATOM     27  F   UNL     1       5.197  -6.411  24.550  0.00  0.00    -0.167 F 
ENDBRANCH  23  24
BRANCH  23  28
ATOM     28  O   UNL     1       5.256  -3.408  26.067  0.00  0.00    -0.373 OA
ATOM     29  H   UNL     1       4.301  -3.428  26.282  0.00  0.00    +0.211 HD
ENDBRANCH  23  28
ENDBRANCH  18  23
ENDBRANCH   1  19
TORSDOF 4
ENDMDL
