MODEL 1
REMARK VINA RESULT:      -7.2      0.000      0.000
REMARK  Name = 
REMARK  16 active torsions:
REMARK  status: ('A' for Active; 'I' for Inactive)
REMARK    1  A    between atoms: N_6  and  C_9
REMARK    2  A    between atoms: C_12  and  C_14
REMARK    3  A    between atoms: C_14  and  O_15
REMARK    4  A    between atoms: O_15  and  P_16
REMARK    5  A    between atoms: P_16  and  O_17
REMARK    6  A    between atoms: P_16  and  O_19
REMARK    7  A    between atoms: O_19  and  P_20
REMARK    8  A    between atoms: P_20  and  O_21
REMARK    9  A    between atoms: P_20  and  O_23
REMARK   10  A    between atoms: O_23  and  C_24
REMARK   11  A    between atoms: C_24  and  C_25
REMARK   12  A    between atoms: C_25  and  O_27
REMARK   13  A    between atoms: C_25  and  C_28
REMARK   14  A    between atoms: C_28  and  O_29
REMARK   15  A    between atoms: C_30  and  O_32
REMARK   16  A    between atoms: C_33  and  O_35
REMARK                            x       y       z     vdW  Elec       q    Type
REMARK                         _______ _______ _______ _____ _____    ______ ____
ROOT
ATOM      1  C   UNL     1       7.565  -4.756  24.574  0.00  0.00    +0.255 C 
ATOM      2  C   UNL     1       6.941  -4.797  23.164  0.00  0.00    +0.195 C 
ATOM      3  C   UNL     1       6.299  -3.419  22.982  0.00  0.00    +0.178 C 
ATOM      4  C   UNL     1       6.662  -2.641  24.247  0.00  0.00    +0.178 C 
ATOM      5  O   UNL     1       7.737  -3.353  24.872  0.00  0.00    -0.346 OA
ENDROOT
BRANCH   1  12
ATOM      6  N   UNL     1       5.057  -7.190  28.863  0.00  0.00    -0.343 N 
ATOM      7  H   UNL     1       4.046  -7.237  28.884  0.00  0.00    +0.144 HD
ATOM      8  H   UNL     1       5.470  -6.909  29.748  0.00  0.00    +0.144 HD
ATOM      9  C   UNL     1       5.650  -6.588  27.790  0.00  0.00    +0.123 A 
ATOM     10  C   UNL     1       4.954  -6.581  26.494  0.00  0.00    +0.061 A 
ATOM     11  C   UNL     1       5.581  -5.959  25.496  0.00  0.00    +0.096 A 
ATOM     12  N   UNL     1       6.827  -5.395  25.668  0.00  0.00    -0.270 N 
ATOM     13  C   UNL     1       7.459  -5.426  26.925  0.00  0.00    +0.352 A 
ATOM     14  O   UNL     1       8.576  -4.941  27.093  0.00  0.00    -0.244 OA
ATOM     15  N   UNL     1       6.805  -6.033  27.974  0.00  0.00    -0.178 NA
ENDBRANCH   1  12
BRANCH   3  16
ATOM     16  O   UNL     1       4.879  -3.529  22.861  0.00  0.00    -0.386 OA
ATOM     17  H   UNL     1       4.677  -3.461  21.910  0.00  0.00    +0.210 HD
ENDBRANCH   3  16
BRANCH   2  18
ATOM     18  O   UNL     1       7.951  -4.984  22.151  0.00  0.00    -0.385 OA
ATOM     19  H   UNL     1       7.514  -5.256  21.325  0.00  0.00    +0.210 HD
ENDBRANCH   2  18
BRANCH   4  20
ATOM     20  C   UNL     1       7.065  -1.186  23.975  0.00  0.00    +0.206 C 
BRANCH  20  21
ATOM     21  O   UNL     1       8.141  -1.109  23.033  0.00  0.00    -0.284 OA
BRANCH  21  22
ATOM     22  P   UNL     1       9.564  -0.426  23.549  0.00  0.00    +0.483 P 
ATOM     23  O   UNL     1       9.505  -0.343  25.077  0.00  0.00    -0.227 OA
BRANCH  22  24
ATOM     24  O   UNL     1      10.235  -2.010  23.732  0.00  0.00    -0.302 OA
ATOM     25  H   UNL     1      11.015  -1.866  24.303  0.00  0.00    +0.222 HD
ENDBRANCH  22  24
BRANCH  22  26
ATOM     26  O   UNL     1       8.893   1.159  23.367  0.00  0.00    -0.186 OA
BRANCH  26  27
ATOM     27  P   UNL     1      10.162   2.333  23.437  0.00  0.00    +0.483 P 
ATOM     28  O   UNL     1       9.259   3.295  24.211  0.00  0.00    -0.227 OA
BRANCH  27  29
ATOM     29  O   UNL     1       9.811   2.621  21.865  0.00  0.00    -0.302 OA
ATOM     30  H   UNL     1       9.040   3.220  21.824  0.00  0.00    +0.222 HD
ENDBRANCH  27  29
BRANCH  27  31
ATOM     31  O   UNL     1      11.430   3.507  23.506  0.00  0.00    -0.284 OA
BRANCH  31  32
ATOM     32  C   UNL     1      10.974   4.864  23.636  0.00  0.00    +0.206 C 
BRANCH  32  33
ATOM     33  C   UNL     1      12.074   5.894  23.429  0.00  0.00    +0.166 C 
BRANCH  33  34
ATOM     34  O   UNL     1      12.719   6.142  24.686  0.00  0.00    -0.387 OA
ATOM     35  H   UNL     1      12.024   6.507  25.265  0.00  0.00    +0.210 HD
ENDBRANCH  33  34
BRANCH  33  36
ATOM     36  C   UNL     1      13.115   5.344  22.442  0.00  0.00    +0.189 C 
BRANCH  36  37
ATOM     37  O   UNL     1      14.305   4.960  23.133  0.00  0.00    -0.392 OA
ATOM     38  H   UNL     1      14.015   4.326  23.818  0.00  0.00    +0.210 HD
ENDBRANCH  36  37
ENDBRANCH  33  36
ENDBRANCH  32  33
ENDBRANCH  31  32
ENDBRANCH  27  31
ENDBRANCH  26  27
ENDBRANCH  22  26
ENDBRANCH  21  22
ENDBRANCH  20  21
ENDBRANCH   4  20
TORSDOF 16
ENDMDL
MODEL 2
REMARK VINA RESULT:      -7.1      1.573      2.120
REMARK  Name = 
REMARK  16 active torsions:
REMARK  status: ('A' for Active; 'I' for Inactive)
REMARK    1  A    between atoms: N_6  and  C_9
REMARK    2  A    between atoms: C_12  and  C_14
REMARK    3  A    between atoms: C_14  and  O_15
REMARK    4  A    between atoms: O_15  and  P_16
REMARK    5  A    between atoms: P_16  and  O_17
REMARK    6  A    between atoms: P_16  and  O_19
REMARK    7  A    between atoms: O_19  and  P_20
REMARK    8  A    between atoms: P_20  and  O_21
REMARK    9  A    between atoms: P_20  and  O_23
REMARK   10  A    between atoms: O_23  and  C_24
REMARK   11  A    between atoms: C_24  and  C_25
REMARK   12  A    between atoms: C_25  and  O_27
REMARK   13  A    between atoms: C_25  and  C_28
REMARK   14  A    between atoms: C_28  and  O_29
REMARK   15  A    between atoms: C_30  and  O_32
REMARK   16  A    between atoms: C_33  and  O_35
REMARK                            x       y       z     vdW  Elec       q    Type
REMARK                         _______ _______ _______ _____ _____    ______ ____
ROOT
ATOM      1  C   UNL     1       8.273  -4.952  26.154  0.00  0.00    +0.255 C 
ATOM      2  C   UNL     1       9.071  -4.944  24.835  0.00  0.00    +0.195 C 
ATOM      3  C   UNL     1       8.883  -3.532  24.275  0.00  0.00    +0.178 C 
ATOM      4  C   UNL     1       8.069  -2.789  25.335  0.00  0.00    +0.178 C 
ATOM      5  O   UNL     1       8.157  -3.564  26.536  0.00  0.00    -0.346 OA
ENDROOT
BRANCH   1  12
ATOM      6  N   UNL     1       3.321  -7.410  26.385  0.00  0.00    -0.343 N 
ATOM      7  H   UNL     1       2.595  -7.123  25.741  0.00  0.00    +0.144 HD
ATOM      8  H   UNL     1       2.998  -7.513  27.342  0.00  0.00    +0.144 HD
ATOM      9  C   UNL     1       4.535  -6.789  26.303  0.00  0.00    +0.123 A 
ATOM     10  C   UNL     1       4.969  -6.227  25.015  0.00  0.00    +0.061 A 
ATOM     11  C   UNL     1       6.155  -5.620  25.011  0.00  0.00    +0.096 A 
ATOM     12  N   UNL     1       6.940  -5.563  26.144  0.00  0.00    -0.270 N 
ATOM     13  C   UNL     1       6.487  -6.116  27.356  0.00  0.00    +0.352 A 
ATOM     14  O   UNL     1       7.178  -6.089  28.371  0.00  0.00    -0.244 OA
ATOM     15  N   UNL     1       5.246  -6.715  27.382  0.00  0.00    -0.178 NA
ENDBRANCH   1  12
BRANCH   3  16
ATOM     16  O   UNL     1       8.168  -3.564  23.037  0.00  0.00    -0.386 OA
ATOM     17  H   UNL     1       7.690  -2.718  22.972  0.00  0.00    +0.210 HD
ENDBRANCH   3  16
BRANCH   2  18
ATOM     18  O   UNL     1      10.475  -5.173  25.073  0.00  0.00    -0.385 OA
ATOM     19  H   UNL     1      10.749  -4.645  25.844  0.00  0.00    +0.210 HD
ENDBRANCH   2  18
BRANCH   4  20
ATOM     20  C   UNL     1       8.554  -1.354  25.583  0.00  0.00    +0.206 C 
BRANCH  20  21
ATOM     21  O   UNL     1       7.504  -0.404  25.368  0.00  0.00    -0.284 OA
BRANCH  21  22
ATOM     22  P   UNL     1       7.502   0.426  23.930  0.00  0.00    +0.483 P 
ATOM     23  O   UNL     1       7.516  -0.610  22.803  0.00  0.00    -0.227 OA
BRANCH  22  24
ATOM     24  O   UNL     1       5.775   0.331  23.900  0.00  0.00    -0.302 OA
ATOM     25  H   UNL     1       5.490   1.237  24.132  0.00  0.00    +0.222 HD
ENDBRANCH  22  24
BRANCH  22  26
ATOM     26  O   UNL     1       9.230   0.521  23.960  0.00  0.00    -0.186 OA
BRANCH  26  27
ATOM     27  P   UNL     1       9.718   2.175  23.830  0.00  0.00    +0.483 P 
ATOM     28  O   UNL     1       8.263   2.616  23.668  0.00  0.00    -0.227 OA
BRANCH  27  29
ATOM     29  O   UNL     1      10.197   1.784  22.316  0.00  0.00    -0.302 OA
ATOM     30  H   UNL     1      10.273   2.607  21.792  0.00  0.00    +0.222 HD
ENDBRANCH  27  29
BRANCH  27  31
ATOM     31  O   UNL     1      10.208   3.829  23.701  0.00  0.00    -0.284 OA
BRANCH  31  32
ATOM     32  C   UNL     1      11.599   4.012  23.392  0.00  0.00    +0.206 C 
BRANCH  32  33
ATOM     33  C   UNL     1      11.986   5.468  23.181  0.00  0.00    +0.166 C 
BRANCH  33  34
ATOM     34  O   UNL     1      12.218   6.076  24.459  0.00  0.00    -0.387 OA
ATOM     35  H   UNL     1      12.505   5.348  25.043  0.00  0.00    +0.210 HD
ENDBRANCH  33  34
BRANCH  33  36
ATOM     36  C   UNL     1      13.281   5.541  22.358  0.00  0.00    +0.189 C 
BRANCH  36  37
ATOM     37  O   UNL     1      14.375   4.992  23.096  0.00  0.00    -0.392 OA
ATOM     38  H   UNL     1      15.180   5.331  22.659  0.00  0.00    +0.210 HD
ENDBRANCH  36  37
ENDBRANCH  33  36
ENDBRANCH  32  33
ENDBRANCH  31  32
ENDBRANCH  27  31
ENDBRANCH  26  27
ENDBRANCH  22  26
ENDBRANCH  21  22
ENDBRANCH  20  21
ENDBRANCH   4  20
TORSDOF 16
ENDMDL
MODEL 3
REMARK VINA RESULT:      -7.1      1.916      2.403
REMARK  Name = 
REMARK  16 active torsions:
REMARK  status: ('A' for Active; 'I' for Inactive)
REMARK    1  A    between atoms: N_6  and  C_9
REMARK    2  A    between atoms: C_12  and  C_14
REMARK    3  A    between atoms: C_14  and  O_15
REMARK    4  A    between atoms: O_15  and  P_16
REMARK    5  A    between atoms: P_16  and  O_17
REMARK    6  A    between atoms: P_16  and  O_19
REMARK    7  A    between atoms: O_19  and  P_20
REMARK    8  A    between atoms: P_20  and  O_21
REMARK    9  A    between atoms: P_20  and  O_23
REMARK   10  A    between atoms: O_23  and  C_24
REMARK   11  A    between atoms: C_24  and  C_25
REMARK   12  A    between atoms: C_25  and  O_27
REMARK   13  A    between atoms: C_25  and  C_28
REMARK   14  A    between atoms: C_28  and  O_29
REMARK   15  A    between atoms: C_30  and  O_32
REMARK   16  A    between atoms: C_33  and  O_35
REMARK                            x       y       z     vdW  Elec       q    Type
REMARK                         _______ _______ _______ _____ _____    ______ ____
ROOT
ATOM      1  C   UNL     1       7.578  -5.094  24.164  0.00  0.00    +0.255 C 
ATOM      2  C   UNL     1       6.758  -5.341  22.882  0.00  0.00    +0.195 C 
ATOM      3  C   UNL     1       6.234  -3.958  22.483  0.00  0.00    +0.178 C 
ATOM      4  C   UNL     1       6.849  -2.993  23.497  0.00  0.00    +0.178 C 
ATOM      5  O   UNL     1       7.927  -3.694  24.128  0.00  0.00    -0.346 OA
ENDROOT
BRANCH   1  12
ATOM      6  N   UNL     1       5.482  -6.291  29.144  0.00  0.00    -0.343 N 
ATOM      7  H   UNL     1       4.492  -6.164  29.308  0.00  0.00    +0.144 HD
ATOM      8  H   UNL     1       6.068  -5.932  29.893  0.00  0.00    +0.144 HD
ATOM      9  C   UNL     1       5.972  -5.992  27.904  0.00  0.00    +0.123 A 
ATOM     10  C   UNL     1       5.083  -6.095  26.736  0.00  0.00    +0.061 A 
ATOM     11  C   UNL     1       5.621  -5.771  25.561  0.00  0.00    +0.096 A 
ATOM     12  N   UNL     1       6.945  -5.401  25.451  0.00  0.00    -0.270 N 
ATOM     13  C   UNL     1       7.761  -5.317  26.594  0.00  0.00    +0.352 A 
ATOM     14  O   UNL     1       8.947  -5.004  26.514  0.00  0.00    -0.244 OA
ATOM     15  N   UNL     1       7.208  -5.614  27.821  0.00  0.00    -0.178 NA
ENDBRANCH   1  12
BRANCH   3  16
ATOM     16  O   UNL     1       4.807  -3.910  22.559  0.00  0.00    -0.386 OA
ATOM     17  H   UNL     1       4.473  -4.399  21.785  0.00  0.00    +0.210 HD
ENDBRANCH   3  16
BRANCH   2  18
ATOM     18  O   UNL     1       7.588  -5.854  21.821  0.00  0.00    -0.385 OA
ATOM     19  H   UNL     1       7.107  -6.571  21.371  0.00  0.00    +0.210 HD
ENDBRANCH   2  18
BRANCH   4  20
ATOM     20  C   UNL     1       7.349  -1.685  22.869  0.00  0.00    +0.206 C 
BRANCH  20  21
ATOM     21  O   UNL     1       8.431  -1.922  21.961  0.00  0.00    -0.284 OA
BRANCH  21  22
ATOM     22  P   UNL     1       9.892  -1.212  22.306  0.00  0.00    +0.483 P 
ATOM     23  O   UNL     1       9.769  -0.559  23.685  0.00  0.00    -0.227 OA
BRANCH  22  24
ATOM     24  O   UNL     1      10.382  -2.660  23.114  0.00  0.00    -0.302 OA
ATOM     25  H   UNL     1      10.527  -2.373  24.036  0.00  0.00    +0.222 HD
ENDBRANCH  22  24
BRANCH  22  26
ATOM     26  O   UNL     1       9.401   0.238  21.498  0.00  0.00    -0.186 OA
BRANCH  26  27
ATOM     27  P   UNL     1       9.314   1.533  22.641  0.00  0.00    +0.483 P 
ATOM     28  O   UNL     1       7.872   1.832  22.228  0.00  0.00    -0.227 OA
BRANCH  27  29
ATOM     29  O   UNL     1      10.226   2.370  21.571  0.00  0.00    -0.302 OA
ATOM     30  H   UNL     1      11.084   1.912  21.469  0.00  0.00    +0.222 HD
ENDBRANCH  27  29
BRANCH  27  31
ATOM     31  O   UNL     1       9.229   2.829  23.784  0.00  0.00    -0.284 OA
BRANCH  31  32
ATOM     32  C   UNL     1       8.009   3.587  23.729  0.00  0.00    +0.206 C 
BRANCH  32  33
ATOM     33  C   UNL     1       8.218   5.042  23.338  0.00  0.00    +0.166 C 
BRANCH  33  34
ATOM     34  O   UNL     1       9.600   5.241  23.014  0.00  0.00    -0.387 OA
ATOM     35  H   UNL     1       9.639   5.246  22.039  0.00  0.00    +0.210 HD
ENDBRANCH  33  34
BRANCH  33  36
ATOM     36  C   UNL     1       7.369   5.368  22.099  0.00  0.00    +0.189 C 
BRANCH  36  37
ATOM     37  O   UNL     1       6.364   4.371  21.905  0.00  0.00    -0.392 OA
ATOM     38  H   UNL     1       6.551   3.681  22.571  0.00  0.00    +0.210 HD
ENDBRANCH  36  37
ENDBRANCH  33  36
ENDBRANCH  32  33
ENDBRANCH  31  32
ENDBRANCH  27  31
ENDBRANCH  26  27
ENDBRANCH  22  26
ENDBRANCH  21  22
ENDBRANCH  20  21
ENDBRANCH   4  20
TORSDOF 16
ENDMDL
MODEL 4
REMARK VINA RESULT:      -7.0      2.457      3.251
REMARK  Name = 
REMARK  16 active torsions:
REMARK  status: ('A' for Active; 'I' for Inactive)
REMARK    1  A    between atoms: N_6  and  C_9
REMARK    2  A    between atoms: C_12  and  C_14
REMARK    3  A    between atoms: C_14  and  O_15
REMARK    4  A    between atoms: O_15  and  P_16
REMARK    5  A    between atoms: P_16  and  O_17
REMARK    6  A    between atoms: P_16  and  O_19
REMARK    7  A    between atoms: O_19  and  P_20
REMARK    8  A    between atoms: P_20  and  O_21
REMARK    9  A    between atoms: P_20  and  O_23
REMARK   10  A    between atoms: O_23  and  C_24
REMARK   11  A    between atoms: C_24  and  C_25
REMARK   12  A    between atoms: C_25  and  O_27
REMARK   13  A    between atoms: C_25  and  C_28
REMARK   14  A    between atoms: C_28  and  O_29
REMARK   15  A    between atoms: C_30  and  O_32
REMARK   16  A    between atoms: C_33  and  O_35
REMARK                            x       y       z     vdW  Elec       q    Type
REMARK                         _______ _______ _______ _____ _____    ______ ____
ROOT
ATOM      1  C   UNL     1       8.060  -4.885  26.027  0.00  0.00    +0.255 C 
ATOM      2  C   UNL     1       8.857  -4.911  24.708  0.00  0.00    +0.195 C 
ATOM      3  C   UNL     1       8.601  -3.542  24.071  0.00  0.00    +0.178 C 
ATOM      4  C   UNL     1       7.753  -2.782  25.092  0.00  0.00    +0.178 C 
ATOM      5  O   UNL     1       7.878  -3.486  26.333  0.00  0.00    -0.346 OA
ENDROOT
BRANCH   1  12
ATOM      6  N   UNL     1       3.239  -7.576  26.393  0.00  0.00    -0.343 N 
ATOM      7  H   UNL     1       2.481  -7.322  25.774  0.00  0.00    +0.144 HD
ATOM      8  H   UNL     1       2.951  -7.699  27.360  0.00  0.00    +0.144 HD
ATOM      9  C   UNL     1       4.419  -6.898  26.278  0.00  0.00    +0.123 A 
ATOM     10  C   UNL     1       4.787  -6.310  24.981  0.00  0.00    +0.061 A 
ATOM     11  C   UNL     1       5.943  -5.647  24.945  0.00  0.00    +0.096 A 
ATOM     12  N   UNL     1       6.758  -5.559  26.054  0.00  0.00    -0.270 N 
ATOM     13  C   UNL     1       6.368  -6.138  27.275  0.00  0.00    +0.352 A 
ATOM     14  O   UNL     1       7.089  -6.082  28.270  0.00  0.00    -0.244 OA
ATOM     15  N   UNL     1       5.159  -6.795  27.336  0.00  0.00    -0.178 NA
ENDBRANCH   1  12
BRANCH   3  16
ATOM     16  O   UNL     1       7.889  -3.676  22.839  0.00  0.00    -0.386 OA
ATOM     17  H   UNL     1       7.372  -2.858  22.728  0.00  0.00    +0.210 HD
ENDBRANCH   3  16
BRANCH   2  18
ATOM     18  O   UNL     1      10.270  -5.060  24.954  0.00  0.00    -0.385 OA
ATOM     19  H   UNL     1      10.751  -4.427  24.391  0.00  0.00    +0.210 HD
ENDBRANCH   2  18
BRANCH   4  20
ATOM     20  C   UNL     1       8.169  -1.314  25.259  0.00  0.00    +0.206 C 
BRANCH  20  21
ATOM     21  O   UNL     1       9.051  -0.899  24.211  0.00  0.00    -0.284 OA
BRANCH  21  22
ATOM     22  P   UNL     1      10.167   0.279  24.569  0.00  0.00    +0.483 P 
ATOM     23  O   UNL     1       9.411   1.606  24.683  0.00  0.00    -0.227 OA
BRANCH  22  24
ATOM     24  O   UNL     1       9.852   0.036  26.253  0.00  0.00    -0.302 OA
ATOM     25  H   UNL     1       9.550   0.914  26.560  0.00  0.00    +0.222 HD
ENDBRANCH  22  24
BRANCH  22  26
ATOM     26  O   UNL     1      10.481   0.522  22.885  0.00  0.00    -0.186 OA
BRANCH  26  27
ATOM     27  P   UNL     1       9.213   1.474  22.193  0.00  0.00    +0.483 P 
ATOM     28  O   UNL     1       9.055   0.472  21.048  0.00  0.00    -0.227 OA
BRANCH  27  29
ATOM     29  O   UNL     1      10.407   2.475  21.696  0.00  0.00    -0.302 OA
ATOM     30  H   UNL     1      10.243   2.716  20.763  0.00  0.00    +0.222 HD
ENDBRANCH  27  29
BRANCH  27  31
ATOM     31  O   UNL     1       7.946   2.427  21.502  0.00  0.00    -0.284 OA
BRANCH  31  32
ATOM     32  C   UNL     1       6.727   2.430  22.262  0.00  0.00    +0.206 C 
BRANCH  32  33
ATOM     33  C   UNL     1       6.624   3.594  23.236  0.00  0.00    +0.166 C 
BRANCH  33  34
ATOM     34  O   UNL     1       6.890   3.114  24.561  0.00  0.00    -0.387 OA
ATOM     35  H   UNL     1       6.277   3.604  25.141  0.00  0.00    +0.210 HD
ENDBRANCH  33  34
BRANCH  33  36
ATOM     36  C   UNL     1       7.673   4.658  22.878  0.00  0.00    +0.189 C 
BRANCH  36  37
ATOM     37  O   UNL     1       7.351   5.277  21.631  0.00  0.00    -0.392 OA
ATOM     38  H   UNL     1       6.375   5.258  21.576  0.00  0.00    +0.210 HD
ENDBRANCH  36  37
ENDBRANCH  33  36
ENDBRANCH  32  33
ENDBRANCH  31  32
ENDBRANCH  27  31
ENDBRANCH  26  27
ENDBRANCH  22  26
ENDBRANCH  21  22
ENDBRANCH  20  21
ENDBRANCH   4  20
TORSDOF 16
ENDMDL
MODEL 5
REMARK VINA RESULT:      -7.0      4.465      8.655
REMARK  Name = 
REMARK  16 active torsions:
REMARK  status: ('A' for Active; 'I' for Inactive)
REMARK    1  A    between atoms: N_6  and  C_9
REMARK    2  A    between atoms: C_12  and  C_14
REMARK    3  A    between atoms: C_14  and  O_15
REMARK    4  A    between atoms: O_15  and  P_16
REMARK    5  A    between atoms: P_16  and  O_17
REMARK    6  A    between atoms: P_16  and  O_19
REMARK    7  A    between atoms: O_19  and  P_20
REMARK    8  A    between atoms: P_20  and  O_21
REMARK    9  A    between atoms: P_20  and  O_23
REMARK   10  A    between atoms: O_23  and  C_24
REMARK   11  A    between atoms: C_24  and  C_25
REMARK   12  A    between atoms: C_25  and  O_27
REMARK   13  A    between atoms: C_25  and  C_28
REMARK   14  A    between atoms: C_28  and  O_29
REMARK   15  A    between atoms: C_30  and  O_32
REMARK   16  A    between atoms: C_33  and  O_35
REMARK                            x       y       z     vdW  Elec       q    Type
REMARK                         _______ _______ _______ _____ _____    ______ ____
ROOT
ATOM      1  C   UNL     1       8.231   0.552  23.938  0.00  0.00    +0.255 C 
ATOM      2  C   UNL     1       7.676  -0.058  22.635  0.00  0.00    +0.195 C 
ATOM      3  C   UNL     1       8.652  -1.185  22.285  0.00  0.00    +0.178 C 
ATOM      4  C   UNL     1       9.652  -1.217  23.442  0.00  0.00    +0.178 C 
ATOM      5  O   UNL     1       9.058  -0.480  24.517  0.00  0.00    -0.346 OA
ENDROOT
BRANCH   1  12
ATOM      6  N   UNL     1      10.883   5.393  23.549  0.00  0.00    -0.343 N 
ATOM      7  H   UNL     1      11.887   5.419  23.666  0.00  0.00    +0.144 HD
ATOM      8  H   UNL     1      10.395   6.129  24.053  0.00  0.00    +0.144 HD
ATOM      9  C   UNL     1      10.254   4.184  23.646  0.00  0.00    +0.123 A 
ATOM     10  C   UNL     1      10.996   2.960  23.309  0.00  0.00    +0.061 A 
ATOM     11  C   UNL     1      10.329   1.814  23.444  0.00  0.00    +0.096 A 
ATOM     12  N   UNL     1       9.007   1.792  23.837  0.00  0.00    -0.270 N 
ATOM     13  C   UNL     1       8.334   2.988  24.148  0.00  0.00    +0.352 A 
ATOM     14  O   UNL     1       7.152   2.989  24.485  0.00  0.00    -0.244 OA
ATOM     15  N   UNL     1       9.024   4.176  24.048  0.00  0.00    -0.178 NA
ENDBRANCH   1  12
BRANCH   3  16
ATOM     16  O   UNL     1       9.328  -0.913  21.055  0.00  0.00    -0.386 OA
ATOM     17  H   UNL     1       9.223   0.041  20.888  0.00  0.00    +0.210 HD
ENDBRANCH   3  16
BRANCH   2  18
ATOM     18  O   UNL     1       6.363  -0.618  22.838  0.00  0.00    -0.385 OA
ATOM     19  H   UNL     1       6.175  -1.238  22.112  0.00  0.00    +0.210 HD
ENDBRANCH   2  18
BRANCH   4  20
ATOM     20  C   UNL     1      10.015  -2.637  23.896  0.00  0.00    +0.206 C 
BRANCH  20  21
ATOM     21  O   UNL     1       8.845  -3.399  24.213  0.00  0.00    -0.284 OA
BRANCH  21  22
ATOM     22  P   UNL     1       8.847  -4.249  25.640  0.00  0.00    +0.483 P 
ATOM     23  O   UNL     1       7.955  -5.478  25.442  0.00  0.00    -0.227 OA
BRANCH  22  24
ATOM     24  O   UNL     1      10.166  -5.200  25.048  0.00  0.00    -0.302 OA
ATOM     25  H   UNL     1      10.277  -4.892  24.127  0.00  0.00    +0.222 HD
ENDBRANCH  22  24
BRANCH  22  26
ATOM     26  O   UNL     1       7.527  -3.299  26.231  0.00  0.00    -0.186 OA
BRANCH  26  27
ATOM     27  P   UNL     1       6.272  -3.252  25.041  0.00  0.00    +0.483 P 
ATOM     28  O   UNL     1       5.937  -1.808  25.418  0.00  0.00    -0.227 OA
BRANCH  27  29
ATOM     29  O   UNL     1       5.411  -4.159  26.096  0.00  0.00    -0.302 OA
ATOM     30  H   UNL     1       5.849  -4.118  26.969  0.00  0.00    +0.222 HD
ENDBRANCH  27  29
BRANCH  27  31
ATOM     31  O   UNL     1       5.017  -3.206  23.851  0.00  0.00    -0.284 OA
BRANCH  31  32
ATOM     32  C   UNL     1       5.367  -3.816  22.598  0.00  0.00    +0.206 C 
BRANCH  32  33
ATOM     33  C   UNL     1       5.705  -5.294  22.718  0.00  0.00    +0.166 C 
BRANCH  33  34
ATOM     34  O   UNL     1       4.590  -6.064  22.249  0.00  0.00    -0.387 OA
ATOM     35  H   UNL     1       4.144  -5.498  21.590  0.00  0.00    +0.210 HD
ENDBRANCH  33  34
BRANCH  33  36
ATOM     36  C   UNL     1       6.927  -5.614  21.843  0.00  0.00    +0.189 C 
BRANCH  36  37
ATOM     37  O   UNL     1       8.076  -5.857  22.658  0.00  0.00    -0.392 OA
ATOM     38  H   UNL     1       7.851  -5.496  23.538  0.00  0.00    +0.210 HD
ENDBRANCH  36  37
ENDBRANCH  33  36
ENDBRANCH  32  33
ENDBRANCH  31  32
ENDBRANCH  27  31
ENDBRANCH  26  27
ENDBRANCH  22  26
ENDBRANCH  21  22
ENDBRANCH  20  21
ENDBRANCH   4  20
TORSDOF 16
ENDMDL
MODEL 6
REMARK VINA RESULT:      -7.0      4.501      9.187
REMARK  Name = 
REMARK  16 active torsions:
REMARK  status: ('A' for Active; 'I' for Inactive)
REMARK    1  A    between atoms: N_6  and  C_9
REMARK    2  A    between atoms: C_12  and  C_14
REMARK    3  A    between atoms: C_14  and  O_15
REMARK    4  A    between atoms: O_15  and  P_16
REMARK    5  A    between atoms: P_16  and  O_17
REMARK    6  A    between atoms: P_16  and  O_19
REMARK    7  A    between atoms: O_19  and  P_20
REMARK    8  A    between atoms: P_20  and  O_21
REMARK    9  A    between atoms: P_20  and  O_23
REMARK   10  A    between atoms: O_23  and  C_24
REMARK   11  A    between atoms: C_24  and  C_25
REMARK   12  A    between atoms: C_25  and  O_27
REMARK   13  A    between atoms: C_25  and  C_28
REMARK   14  A    between atoms: C_28  and  O_29
REMARK   15  A    between atoms: C_30  and  O_32
REMARK   16  A    between atoms: C_33  and  O_35
REMARK                            x       y       z     vdW  Elec       q    Type
REMARK                         _______ _______ _______ _____ _____    ______ ____
ROOT
ATOM      1  C   UNL     1       9.112  -1.919  23.205  0.00  0.00    +0.255 C 
ATOM      2  C   UNL     1       9.145  -2.728  24.518  0.00  0.00    +0.195 C 
ATOM      3  C   UNL     1       7.690  -2.753  24.996  0.00  0.00    +0.178 C 
ATOM      4  C   UNL     1       6.899  -2.042  23.897  0.00  0.00    +0.178 C 
ATOM      5  O   UNL     1       7.746  -2.000  22.743  0.00  0.00    -0.346 OA
ENDROOT
BRANCH   1  12
ATOM      6  N   UNL     1      10.727   3.372  23.093  0.00  0.00    -0.343 N 
ATOM      7  H   UNL     1      10.558   3.959  23.899  0.00  0.00    +0.144 HD
ATOM      8  H   UNL     1      10.493   3.817  22.209  0.00  0.00    +0.144 HD
ATOM      9  C   UNL     1      10.322   2.069  23.149  0.00  0.00    +0.123 A 
ATOM     10  C   UNL     1      10.236   1.399  24.456  0.00  0.00    +0.061 A 
ATOM     11  C   UNL     1       9.816   0.134  24.439  0.00  0.00    +0.096 A 
ATOM     12  N   UNL     1       9.521  -0.512  23.258  0.00  0.00    -0.270 N 
ATOM     13  C   UNL     1       9.618   0.166  22.029  0.00  0.00    +0.352 A 
ATOM     14  O   UNL     1       9.374  -0.398  20.964  0.00  0.00    -0.244 OA
ATOM     15  N   UNL     1      10.017   1.485  22.035  0.00  0.00    -0.178 NA
ENDBRANCH   1  12
BRANCH   3  16
ATOM     16  O   UNL     1       7.548  -2.058  26.236  0.00  0.00    -0.386 OA
ATOM     17  H   UNL     1       7.451  -1.114  26.015  0.00  0.00    +0.210 HD
ENDBRANCH   3  16
BRANCH   2  18
ATOM     18  O   UNL     1       9.589  -4.080  24.287  0.00  0.00    -0.385 OA
ATOM     19  H   UNL     1      10.451  -4.201  24.722  0.00  0.00    +0.210 HD
ENDBRANCH   2  18
BRANCH   4  20
ATOM     20  C   UNL     1       5.567  -2.726  23.564  0.00  0.00    +0.206 C 
BRANCH  20  21
ATOM     21  O   UNL     1       5.654  -3.475  22.346  0.00  0.00    -0.284 OA
BRANCH  21  22
ATOM     22  P   UNL     1       5.786  -5.126  22.468  0.00  0.00    +0.483 P 
ATOM     23  O   UNL     1       5.740  -5.695  21.047  0.00  0.00    -0.227 OA
BRANCH  22  24
ATOM     24  O   UNL     1       7.499  -4.982  22.280  0.00  0.00    -0.302 OA
ATOM     25  H   UNL     1       7.624  -4.968  21.310  0.00  0.00    +0.222 HD
ENDBRANCH  22  24
BRANCH  22  26
ATOM     26  O   UNL     1       4.071  -5.269  22.657  0.00  0.00    -0.186 OA
BRANCH  26  27
ATOM     27  P   UNL     1       3.723  -6.191  24.078  0.00  0.00    +0.483 P 
ATOM     28  O   UNL     1       3.171  -4.948  24.777  0.00  0.00    -0.227 OA
BRANCH  27  29
ATOM     29  O   UNL     1       5.334  -6.134  24.358  0.00  0.00    -0.302 OA
ATOM     30  H   UNL     1       5.506  -6.486  25.253  0.00  0.00    +0.222 HD
ENDBRANCH  27  29
BRANCH  27  31
ATOM     31  O   UNL     1       3.375  -7.114  25.500  0.00  0.00    -0.284 OA
BRANCH  31  32
ATOM     32  C   UNL     1       3.081  -6.321  26.662  0.00  0.00    +0.206 C 
BRANCH  32  33
ATOM     33  C   UNL     1       4.162  -6.391  27.731  0.00  0.00    +0.166 C 
BRANCH  33  34
ATOM     34  O   UNL     1       5.221  -7.238  27.264  0.00  0.00    -0.387 OA
ATOM     35  H   UNL     1       5.633  -6.753  26.525  0.00  0.00    +0.210 HD
ENDBRANCH  33  34
BRANCH  33  36
ATOM     36  C   UNL     1       4.729  -4.985  27.980  0.00  0.00    +0.189 C 
BRANCH  36  37
ATOM     37  O   UNL     1       5.448  -4.525  26.833  0.00  0.00    -0.392 OA
ATOM     38  H   UNL     1       5.849  -3.676  27.101  0.00  0.00    +0.210 HD
ENDBRANCH  36  37
ENDBRANCH  33  36
ENDBRANCH  32  33
ENDBRANCH  31  32
ENDBRANCH  27  31
ENDBRANCH  26  27
ENDBRANCH  22  26
ENDBRANCH  21  22
ENDBRANCH  20  21
ENDBRANCH   4  20
TORSDOF 16
ENDMDL
MODEL 7
REMARK VINA RESULT:      -6.9      1.967      2.528
REMARK  Name = 
REMARK  16 active torsions:
REMARK  status: ('A' for Active; 'I' for Inactive)
REMARK    1  A    between atoms: N_6  and  C_9
REMARK    2  A    between atoms: C_12  and  C_14
REMARK    3  A    between atoms: C_14  and  O_15
REMARK    4  A    between atoms: O_15  and  P_16
REMARK    5  A    between atoms: P_16  and  O_17
REMARK    6  A    between atoms: P_16  and  O_19
REMARK    7  A    between atoms: O_19  and  P_20
REMARK    8  A    between atoms: P_20  and  O_21
REMARK    9  A    between atoms: P_20  and  O_23
REMARK   10  A    between atoms: O_23  and  C_24
REMARK   11  A    between atoms: C_24  and  C_25
REMARK   12  A    between atoms: C_25  and  O_27
REMARK   13  A    between atoms: C_25  and  C_28
REMARK   14  A    between atoms: C_28  and  O_29
REMARK   15  A    between atoms: C_30  and  O_32
REMARK   16  A    between atoms: C_33  and  O_35
REMARK                            x       y       z     vdW  Elec       q    Type
REMARK                         _______ _______ _______ _____ _____    ______ ____
ROOT
ATOM      1  C   UNL     1       7.894  -4.922  25.939  0.00  0.00    +0.255 C 
ATOM      2  C   UNL     1       8.637  -5.215  24.619  0.00  0.00    +0.195 C 
ATOM      3  C   UNL     1       8.413  -3.966  23.761  0.00  0.00    +0.178 C 
ATOM      4  C   UNL     1       7.638  -3.001  24.659  0.00  0.00    +0.178 C 
ATOM      5  O   UNL     1       7.782  -3.483  26.000  0.00  0.00    -0.346 OA
ENDROOT
BRANCH   1  12
ATOM      6  N   UNL     1       2.975  -7.250  26.935  0.00  0.00    -0.343 N 
ATOM      7  H   UNL     1       2.226  -7.134  26.265  0.00  0.00    +0.144 HD
ATOM      8  H   UNL     1       2.683  -7.112  27.899  0.00  0.00    +0.144 HD
ATOM      9  C   UNL     1       4.180  -6.668  26.662  0.00  0.00    +0.123 A 
ATOM     10  C   UNL     1       4.569  -6.444  25.261  0.00  0.00    +0.061 A 
ATOM     11  C   UNL     1       5.748  -5.855  25.067  0.00  0.00    +0.096 A 
ATOM     12  N   UNL     1       6.567  -5.518  26.124  0.00  0.00    -0.270 N 
ATOM     13  C   UNL     1       6.158  -5.752  27.449  0.00  0.00    +0.352 A 
ATOM     14  O   UNL     1       6.880  -5.471  28.403  0.00  0.00    -0.244 OA
ATOM     15  N   UNL     1       4.924  -6.327  27.665  0.00  0.00    -0.178 NA
ENDBRANCH   1  12
BRANCH   3  16
ATOM     16  O   UNL     1       7.647  -4.279  22.595  0.00  0.00    -0.386 OA
ATOM     17  H   UNL     1       6.991  -3.566  22.496  0.00  0.00    +0.210 HD
ENDBRANCH   3  16
BRANCH   2  18
ATOM     18  O   UNL     1      10.051  -5.386  24.843  0.00  0.00    -0.385 OA
ATOM     19  H   UNL     1      10.372  -6.099  24.263  0.00  0.00    +0.210 HD
ENDBRANCH   2  18
BRANCH   4  20
ATOM     20  C   UNL     1       8.120  -1.548  24.553  0.00  0.00    +0.206 C 
BRANCH  20  21
ATOM     21  O   UNL     1       8.213  -1.128  23.187  0.00  0.00    -0.284 OA
BRANCH  21  22
ATOM     22  P   UNL     1       9.689  -0.589  22.649  0.00  0.00    +0.483 P 
ATOM     23  O   UNL     1      10.709  -1.698  22.924  0.00  0.00    -0.227 OA
BRANCH  22  24
ATOM     24  O   UNL     1       9.386  -1.344  21.122  0.00  0.00    -0.302 OA
ATOM     25  H   UNL     1      10.280  -1.518  20.768  0.00  0.00    +0.222 HD
ENDBRANCH  22  24
BRANCH  22  26
ATOM     26  O   UNL     1       9.993   0.166  24.176  0.00  0.00    -0.186 OA
BRANCH  26  27
ATOM     27  P   UNL     1      10.067   1.881  23.966  0.00  0.00    +0.483 P 
ATOM     28  O   UNL     1       8.643   2.032  24.503  0.00  0.00    -0.227 OA
BRANCH  27  29
ATOM     29  O   UNL     1       9.871   1.568  22.373  0.00  0.00    -0.302 OA
ATOM     30  H   UNL     1       9.362   0.738  22.279  0.00  0.00    +0.222 HD
ENDBRANCH  27  29
BRANCH  27  31
ATOM     31  O   UNL     1      10.142   3.597  23.755  0.00  0.00    -0.284 OA
BRANCH  31  32
ATOM     32  C   UNL     1       9.077   4.318  24.394  0.00  0.00    +0.206 C 
BRANCH  32  33
ATOM     33  C   UNL     1       8.590   5.516  23.592  0.00  0.00    +0.166 C 
BRANCH  33  34
ATOM     34  O   UNL     1       9.692   6.055  22.850  0.00  0.00    -0.387 OA
ATOM     35  H   UNL     1      10.458   6.009  23.453  0.00  0.00    +0.210 HD
ENDBRANCH  33  34
BRANCH  33  36
ATOM     36  C   UNL     1       7.504   5.065  22.604  0.00  0.00    +0.189 C 
BRANCH  36  37
ATOM     37  O   UNL     1       7.834   3.791  22.046  0.00  0.00    -0.392 OA
ATOM     38  H   UNL     1       7.026   3.249  22.140  0.00  0.00    +0.210 HD
ENDBRANCH  36  37
ENDBRANCH  33  36
ENDBRANCH  32  33
ENDBRANCH  31  32
ENDBRANCH  27  31
ENDBRANCH  26  27
ENDBRANCH  22  26
ENDBRANCH  21  22
ENDBRANCH  20  21
ENDBRANCH   4  20
TORSDOF 16
ENDMDL
MODEL 8
REMARK VINA RESULT:      -6.9      2.995      4.263
REMARK  Name = 
REMARK  16 active torsions:
REMARK  status: ('A' for Active; 'I' for Inactive)
REMARK    1  A    between atoms: N_6  and  C_9
REMARK    2  A    between atoms: C_12  and  C_14
REMARK    3  A    between atoms: C_14  and  O_15
REMARK    4  A    between atoms: O_15  and  P_16
REMARK    5  A    between atoms: P_16  and  O_17
REMARK    6  A    between atoms: P_16  and  O_19
REMARK    7  A    between atoms: O_19  and  P_20
REMARK    8  A    between atoms: P_20  and  O_21
REMARK    9  A    between atoms: P_20  and  O_23
REMARK   10  A    between atoms: O_23  and  C_24
REMARK   11  A    between atoms: C_24  and  C_25
REMARK   12  A    between atoms: C_25  and  O_27
REMARK   13  A    between atoms: C_25  and  C_28
REMARK   14  A    between atoms: C_28  and  O_29
REMARK   15  A    between atoms: C_30  and  O_32
REMARK   16  A    between atoms: C_33  and  O_35
REMARK                            x       y       z     vdW  Elec       q    Type
REMARK                         _______ _______ _______ _____ _____    ______ ____
ROOT
ATOM      1  C   UNL     1       7.791  -5.155  25.836  0.00  0.00    +0.255 C 
ATOM      2  C   UNL     1       9.123  -5.017  25.070  0.00  0.00    +0.195 C 
ATOM      3  C   UNL     1       9.297  -3.510  24.861  0.00  0.00    +0.178 C 
ATOM      4  C   UNL     1       8.114  -2.869  25.588  0.00  0.00    +0.178 C 
ATOM      5  O   UNL     1       7.577  -3.871  26.460  0.00  0.00    -0.346 OA
ENDROOT
BRANCH   1  12
ATOM      6  N   UNL     1       3.216  -6.768  23.175  0.00  0.00    -0.343 N 
ATOM      7  H   UNL     1       2.896  -6.239  22.374  0.00  0.00    +0.144 HD
ATOM      8  H   UNL     1       2.473  -7.015  23.822  0.00  0.00    +0.144 HD
ATOM      9  C   UNL     1       4.351  -6.350  23.810  0.00  0.00    +0.123 A 
ATOM     10  C   UNL     1       5.369  -5.610  23.050  0.00  0.00    +0.061 A 
ATOM     11  C   UNL     1       6.442  -5.216  23.736  0.00  0.00    +0.096 A 
ATOM     12  N   UNL     1       6.596  -5.526  25.071  0.00  0.00    -0.270 N 
ATOM     13  C   UNL     1       5.598  -6.237  25.760  0.00  0.00    +0.352 A 
ATOM     14  O   UNL     1       5.725  -6.535  26.946  0.00  0.00    -0.244 OA
ATOM     15  N   UNL     1       4.467  -6.619  25.071  0.00  0.00    -0.178 NA
ENDBRANCH   1  12
BRANCH   3  16
ATOM     16  O   UNL     1       9.260  -3.180  23.471  0.00  0.00    -0.386 OA
ATOM     17  H   UNL     1       8.851  -3.939  23.017  0.00  0.00    +0.210 HD
ENDBRANCH   3  16
BRANCH   2  18
ATOM     18  O   UNL     1      10.228  -5.516  25.851  0.00  0.00    -0.385 OA
ATOM     19  H   UNL     1      11.028  -5.506  25.296  0.00  0.00    +0.210 HD
ENDBRANCH   2  18
BRANCH   4  20
ATOM     20  C   UNL     1       8.494  -1.611  26.379  0.00  0.00    +0.206 C 
BRANCH  20  21
ATOM     21  O   UNL     1       7.849  -0.447  25.850  0.00  0.00    -0.284 OA
BRANCH  21  22
ATOM     22  P   UNL     1       7.135   0.593  26.930  0.00  0.00    +0.483 P 
ATOM     23  O   UNL     1       6.132  -0.220  27.754  0.00  0.00    -0.227 OA
BRANCH  22  24
ATOM     24  O   UNL     1       8.334   0.167  28.101  0.00  0.00    -0.302 OA
ATOM     25  H   UNL     1       9.171   0.201  27.598  0.00  0.00    +0.222 HD
ENDBRANCH  22  24
BRANCH  22  26
ATOM     26  O   UNL     1       5.935   1.019  25.758  0.00  0.00    -0.186 OA
BRANCH  26  27
ATOM     27  P   UNL     1       6.572   0.781  24.168  0.00  0.00    +0.483 P 
ATOM     28  O   UNL     1       5.698   1.911  23.623  0.00  0.00    -0.227 OA
BRANCH  27  29
ATOM     29  O   UNL     1       5.609  -0.540  24.116  0.00  0.00    -0.302 OA
ATOM     30  H   UNL     1       5.610  -0.960  24.999  0.00  0.00    +0.222 HD
ENDBRANCH  27  29
BRANCH  27  31
ATOM     31  O   UNL     1       7.210   0.541  22.578  0.00  0.00    -0.284 OA
BRANCH  31  32
ATOM     32  C   UNL     1       7.957   1.656  22.066  0.00  0.00    +0.206 C 
BRANCH  32  33
ATOM     33  C   UNL     1       9.277   1.257  21.423  0.00  0.00    +0.166 C 
BRANCH  33  34
ATOM     34  O   UNL     1      10.228   2.310  21.626  0.00  0.00    -0.387 OA
ATOM     35  H   UNL     1      10.092   2.610  22.544  0.00  0.00    +0.210 HD
ENDBRANCH  33  34
BRANCH  33  36
ATOM     36  C   UNL     1       9.808  -0.021  22.091  0.00  0.00    +0.189 C 
BRANCH  36  37
ATOM     37  O   UNL     1       9.537  -1.162  21.274  0.00  0.00    -0.392 OA
ATOM     38  H   UNL     1       8.979  -1.748  21.822  0.00  0.00    +0.210 HD
ENDBRANCH  36  37
ENDBRANCH  33  36
ENDBRANCH  32  33
ENDBRANCH  31  32
ENDBRANCH  27  31
ENDBRANCH  26  27
ENDBRANCH  22  26
ENDBRANCH  21  22
ENDBRANCH  20  21
ENDBRANCH   4  20
TORSDOF 16
ENDMDL
MODEL 9
REMARK VINA RESULT:      -6.8      4.540      8.640
REMARK  Name = 
REMARK  16 active torsions:
REMARK  status: ('A' for Active; 'I' for Inactive)
REMARK    1  A    between atoms: N_6  and  C_9
REMARK    2  A    between atoms: C_12  and  C_14
REMARK    3  A    between atoms: C_14  and  O_15
REMARK    4  A    between atoms: O_15  and  P_16
REMARK    5  A    between atoms: P_16  and  O_17
REMARK    6  A    between atoms: P_16  and  O_19
REMARK    7  A    between atoms: O_19  and  P_20
REMARK    8  A    between atoms: P_20  and  O_21
REMARK    9  A    between atoms: P_20  and  O_23
REMARK   10  A    between atoms: O_23  and  C_24
REMARK   11  A    between atoms: C_24  and  C_25
REMARK   12  A    between atoms: C_25  and  O_27
REMARK   13  A    between atoms: C_25  and  C_28
REMARK   14  A    between atoms: C_28  and  O_29
REMARK   15  A    between atoms: C_30  and  O_32
REMARK   16  A    between atoms: C_33  and  O_35
REMARK                            x       y       z     vdW  Elec       q    Type
REMARK                         _______ _______ _______ _____ _____    ______ ____
ROOT
ATOM      1  C   UNL     1       7.846  -0.786  23.591  0.00  0.00    +0.255 C 
ATOM      2  C   UNL     1       8.378  -2.021  22.836  0.00  0.00    +0.195 C 
ATOM      3  C   UNL     1       9.007  -2.900  23.922  0.00  0.00    +0.178 C 
ATOM      4  C   UNL     1       8.725  -2.170  25.236  0.00  0.00    +0.178 C 
ATOM      5  O   UNL     1       7.693  -1.215  24.961  0.00  0.00    -0.346 OA
ENDROOT
BRANCH   1  12
ATOM      6  N   UNL     1      10.708   3.935  23.220  0.00  0.00    -0.343 N 
ATOM      7  H   UNL     1      11.399   4.153  23.926  0.00  0.00    +0.144 HD
ATOM      8  H   UNL     1      10.108   4.720  22.982  0.00  0.00    +0.144 HD
ATOM      9  C   UNL     1      10.020   2.761  23.334  0.00  0.00    +0.123 A 
ATOM     10  C   UNL     1      10.646   1.625  24.027  0.00  0.00    +0.061 A 
ATOM     11  C   UNL     1       9.910   0.517  24.118  0.00  0.00    +0.096 A 
ATOM     12  N   UNL     1       8.654   0.438  23.556  0.00  0.00    -0.270 N 
ATOM     13  C   UNL     1       8.093   1.548  22.899  0.00  0.00    +0.352 A 
ATOM     14  O   UNL     1       6.980   1.492  22.379  0.00  0.00    -0.244 OA
ATOM     15  N   UNL     1       8.828   2.712  22.830  0.00  0.00    -0.178 NA
ENDBRANCH   1  12
BRANCH   3  16
ATOM     16  O   UNL     1      10.416  -3.030  23.721  0.00  0.00    -0.386 OA
ATOM     17  H   UNL     1      10.609  -2.636  22.852  0.00  0.00    +0.210 HD
ENDBRANCH   3  16
BRANCH   2  18
ATOM     18  O   UNL     1       7.306  -2.748  22.203  0.00  0.00    -0.385 OA
ATOM     19  H   UNL     1       6.893  -3.330  22.866  0.00  0.00    +0.210 HD
ENDBRANCH   2  18
BRANCH   4  20
ATOM     20  C   UNL     1       8.304  -3.106  26.376  0.00  0.00    +0.206 C 
BRANCH  20  21
ATOM     21  O   UNL     1       7.384  -4.105  25.920  0.00  0.00    -0.284 OA
BRANCH  21  22
ATOM     22  P   UNL     1       6.496  -4.912  27.068  0.00  0.00    +0.483 P 
ATOM     23  O   UNL     1       6.026  -6.228  26.442  0.00  0.00    -0.227 OA
BRANCH  22  24
ATOM     24  O   UNL     1       7.930  -5.742  27.564  0.00  0.00    -0.302 OA
ATOM     25  H   UNL     1       7.879  -5.730  28.540  0.00  0.00    +0.222 HD
ENDBRANCH  22  24
BRANCH  22  26
ATOM     26  O   UNL     1       5.062  -4.081  26.572  0.00  0.00    -0.186 OA
BRANCH  26  27
ATOM     27  P   UNL     1       4.906  -4.177  24.852  0.00  0.00    +0.483 P 
ATOM     28  O   UNL     1       4.155  -2.845  24.822  0.00  0.00    -0.227 OA
BRANCH  27  29
ATOM     29  O   UNL     1       3.746  -5.292  25.146  0.00  0.00    -0.302 OA
ATOM     30  H   UNL     1       3.226  -5.003  25.922  0.00  0.00    +0.222 HD
ENDBRANCH  27  29
BRANCH  27  31
ATOM     31  O   UNL     1       4.750  -4.275  23.132  0.00  0.00    -0.284 OA
BRANCH  31  32
ATOM     32  C   UNL     1       4.734  -5.615  22.614  0.00  0.00    +0.206 C 
BRANCH  32  33
ATOM     33  C   UNL     1       5.694  -5.827  21.453  0.00  0.00    +0.166 C 
BRANCH  33  34
ATOM     34  O   UNL     1       5.900  -4.573  20.788  0.00  0.00    -0.387 OA
ATOM     35  H   UNL     1       5.062  -4.084  20.894  0.00  0.00    +0.210 HD
ENDBRANCH  33  34
BRANCH  33  36
ATOM     36  C   UNL     1       7.044  -6.330  21.987  0.00  0.00    +0.189 C 
BRANCH  36  37
ATOM     37  O   UNL     1       7.498  -5.501  23.058  0.00  0.00    -0.392 OA
ATOM     38  H   UNL     1       6.701  -5.041  23.387  0.00  0.00    +0.210 HD
ENDBRANCH  36  37
ENDBRANCH  33  36
ENDBRANCH  32  33
ENDBRANCH  31  32
ENDBRANCH  27  31
ENDBRANCH  26  27
ENDBRANCH  22  26
ENDBRANCH  21  22
ENDBRANCH  20  21
ENDBRANCH   4  20
TORSDOF 16
ENDMDL
