MODEL 1
REMARK VINA RESULT:      -6.0      0.000      0.000
REMARK  Name = 
REMARK  6 active torsions:
REMARK  status: ('A' for Active; 'I' for Inactive)
REMARK    1  A    between atoms: C_1  and  C_2
REMARK    2  A    between atoms: C_2  and  C_3
REMARK    3  A    between atoms: C_2  and  C_4
REMARK    4  A    between atoms: C_2  and  C_5
REMARK    5  A    between atoms: N_7  and  C_8
REMARK    6  A    between atoms: C_9  and  C_14
REMARK                            x       y       z     vdW  Elec       q    Type
REMARK                         _______ _______ _______ _____ _____    ______ ____
ROOT
ATOM      1  C   UNL     1       6.919  -3.419  23.440  0.00  0.00    +0.064 A 
ATOM      2  C   UNL     1       6.539  -3.162  22.122  0.00  0.00    +0.027 A 
ATOM      3  C   UNL     1       6.249  -4.222  21.266  0.00  0.00    +0.022 A 
ATOM      4  C   UNL     1       6.328  -5.514  21.759  0.00  0.00    +0.112 A 
ATOM      5  N   UNL     1       6.680  -5.814  23.027  0.00  0.00    -0.248 NA
ATOM      6  C   UNL     1       6.948  -4.757  23.857  0.00  0.00    +0.147 A 
ENDROOT
BRANCH   6   7
ATOM      7  C   UNL     1       7.127  -5.141  25.298  0.00  0.00    +0.270 C 
ATOM      8  N   UNL     1       5.941  -5.485  25.902  0.00  0.00    -0.259 N 
ATOM      9  H   UNL     1       5.099  -5.499  25.343  0.00  0.00    +0.157 HD
ATOM     10  C   UNL     1       5.865  -5.904  27.196  0.00  0.00    +0.165 A 
ATOM     11  S   UNL     1       4.337  -6.528  27.641  0.00  0.00    -0.061 S 
ATOM     12  C   UNL     1       4.962  -6.890  29.199  0.00  0.00    +0.068 A 
ATOM     13  C   UNL     1       6.270  -6.461  29.280  0.00  0.00    +0.120 A 
ATOM     14  N   UNL     1       6.786  -5.904  28.127  0.00  0.00    -0.233 NA
ATOM     15  O   UNL     1       8.245  -5.106  25.804  0.00  0.00    -0.268 OA
ENDBRANCH   6   7
BRANCH   1  17
ATOM     16  C   UNL     1       8.615  -1.912  24.332  0.00  0.00    +0.223 C 
ATOM     17  N   UNL     1       7.289  -2.309  24.229  0.00  0.00    -0.283 N 
ATOM     18  H   UNL     1       6.590  -1.599  24.381  0.00  0.00    +0.155 HD
ATOM     19  O   UNL     1       9.529  -2.471  23.727  0.00  0.00    -0.275 OA
BRANCH  16  21
ATOM     20  C   UNL     1       7.739   0.368  24.940  0.00  0.00    +0.020 C 
ATOM     21  C   UNL     1       8.847  -0.666  25.215  0.00  0.00    +0.039 C 
ATOM     22  C   UNL     1       8.797  -1.034  26.709  0.00  0.00    +0.020 C 
ATOM     23  C   UNL     1      10.207  -0.039  24.877  0.00  0.00    +0.020 C 
ENDBRANCH  16  21
ENDBRANCH   1  17
TORSDOF 3
ENDMDL
MODEL 2
REMARK VINA RESULT:      -5.7      4.985      8.111
REMARK  Name = 
REMARK  6 active torsions:
REMARK  status: ('A' for Active; 'I' for Inactive)
REMARK    1  A    between atoms: C_1  and  C_2
REMARK    2  A    between atoms: C_2  and  C_3
REMARK    3  A    between atoms: C_2  and  C_4
REMARK    4  A    between atoms: C_2  and  C_5
REMARK    5  A    between atoms: N_7  and  C_8
REMARK    6  A    between atoms: C_9  and  C_14
REMARK                            x       y       z     vdW  Elec       q    Type
REMARK                         _______ _______ _______ _____ _____    ______ ____
ROOT
ATOM      1  C   UNL     1       9.320   4.280  23.894  0.00  0.00    +0.064 A 
ATOM      2  C   UNL     1       9.586   5.641  24.051  0.00  0.00    +0.027 A 
ATOM      3  C   UNL     1      10.883   6.118  23.871  0.00  0.00    +0.022 A 
ATOM      4  C   UNL     1      11.877   5.220  23.518  0.00  0.00    +0.112 A 
ATOM      5  N   UNL     1      11.668   3.897  23.345  0.00  0.00    -0.248 NA
ATOM      6  C   UNL     1      10.383   3.450  23.513  0.00  0.00    +0.147 A 
ENDROOT
BRANCH   6   7
ATOM      7  C   UNL     1      10.175   2.020  23.105  0.00  0.00    +0.270 C 
ATOM      8  N   UNL     1       9.942   1.195  24.180  0.00  0.00    -0.259 N 
ATOM      9  H   UNL     1       9.884   1.605  25.102  0.00  0.00    +0.157 HD
ATOM     10  C   UNL     1       9.689  -0.137  24.047  0.00  0.00    +0.165 A 
ATOM     11  S   UNL     1       9.168  -0.897  25.487  0.00  0.00    -0.061 S 
ATOM     12  C   UNL     1       8.983  -2.367  24.620  0.00  0.00    +0.068 A 
ATOM     13  C   UNL     1       9.382  -2.182  23.313  0.00  0.00    +0.120 A 
ATOM     14  N   UNL     1       9.777  -0.901  22.987  0.00  0.00    -0.233 NA
ATOM     15  O   UNL     1      10.241   1.709  21.920  0.00  0.00    -0.268 OA
ENDBRANCH   6   7
BRANCH   1  17
ATOM     16  C   UNL     1       7.044   3.764  23.185  0.00  0.00    +0.223 C 
ATOM     17  N   UNL     1       8.007   3.846  24.182  0.00  0.00    -0.283 N 
ATOM     18  H   UNL     1       7.886   3.244  24.980  0.00  0.00    +0.155 HD
ATOM     19  O   UNL     1       7.280   4.027  22.006  0.00  0.00    -0.275 OA
BRANCH  16  21
ATOM     20  C   UNL     1       5.796   1.781  24.102  0.00  0.00    +0.020 C 
ATOM     21  C   UNL     1       5.668   3.251  23.662  0.00  0.00    +0.039 C 
ATOM     22  C   UNL     1       5.163   4.068  24.864  0.00  0.00    +0.020 C 
ATOM     23  C   UNL     1       4.657   3.339  22.509  0.00  0.00    +0.020 C 
ENDBRANCH  16  21
ENDBRANCH   1  17
TORSDOF 3
ENDMDL
MODEL 3
REMARK VINA RESULT:      -5.7      3.473      5.843
REMARK  Name = 
REMARK  6 active torsions:
REMARK  status: ('A' for Active; 'I' for Inactive)
REMARK    1  A    between atoms: C_1  and  C_2
REMARK    2  A    between atoms: C_2  and  C_3
REMARK    3  A    between atoms: C_2  and  C_4
REMARK    4  A    between atoms: C_2  and  C_5
REMARK    5  A    between atoms: N_7  and  C_8
REMARK    6  A    between atoms: C_9  and  C_14
REMARK                            x       y       z     vdW  Elec       q    Type
REMARK                         _______ _______ _______ _____ _____    ______ ____
ROOT
ATOM      1  C   UNL     1       8.651  -0.965  23.255  0.00  0.00    +0.064 A 
ATOM      2  C   UNL     1       9.167  -0.894  21.961  0.00  0.00    +0.027 A 
ATOM      3  C   UNL     1       9.617   0.326  21.460  0.00  0.00    +0.022 A 
ATOM      4  C   UNL     1       9.556   1.442  22.279  0.00  0.00    +0.112 A 
ATOM      5  N   UNL     1       9.075   1.423  23.541  0.00  0.00    -0.248 NA
ATOM      6  C   UNL     1       8.651   0.211  24.019  0.00  0.00    +0.147 A 
ENDROOT
BRANCH   6   7
ATOM      7  C   UNL     1       8.327   0.211  25.485  0.00  0.00    +0.270 C 
ATOM      8  N   UNL     1       7.389   1.160  25.816  0.00  0.00    -0.259 N 
ATOM      9  H   UNL     1       6.980   1.715  25.077  0.00  0.00    +0.157 HD
ATOM     10  C   UNL     1       6.913   1.318  27.083  0.00  0.00    +0.165 A 
ATOM     11  S   UNL     1       5.570   2.369  27.200  0.00  0.00    -0.061 S 
ATOM     12  C   UNL     1       5.485   2.041  28.882  0.00  0.00    +0.068 A 
ATOM     13  C   UNL     1       6.517   1.198  29.238  0.00  0.00    +0.120 A 
ATOM     14  N   UNL     1       7.328   0.781  28.202  0.00  0.00    -0.233 NA
ATOM     15  O   UNL     1       8.898  -0.573  26.236  0.00  0.00    -0.268 OA
ENDBRANCH   6   7
BRANCH   1  17
ATOM     16  C   UNL     1       8.964  -3.261  24.014  0.00  0.00    +0.223 C 
ATOM     17  N   UNL     1       8.127  -2.209  23.669  0.00  0.00    -0.283 N 
ATOM     18  H   UNL     1       7.208  -2.206  24.082  0.00  0.00    +0.155 HD
ATOM     19  O   UNL     1      10.191  -3.167  24.013  0.00  0.00    -0.275 OA
BRANCH  16  21
ATOM     20  C   UNL     1       7.101  -4.169  25.443  0.00  0.00    +0.020 C 
ATOM     21  C   UNL     1       8.231  -4.544  24.466  0.00  0.00    +0.039 C 
ATOM     22  C   UNL     1       7.601  -5.270  23.264  0.00  0.00    +0.020 C 
ATOM     23  C   UNL     1       9.218  -5.477  25.181  0.00  0.00    +0.020 C 
ENDBRANCH  16  21
ENDBRANCH   1  17
TORSDOF 3
ENDMDL
MODEL 4
REMARK VINA RESULT:      -5.7      2.787      5.693
REMARK  Name = 
REMARK  6 active torsions:
REMARK  status: ('A' for Active; 'I' for Inactive)
REMARK    1  A    between atoms: C_1  and  C_2
REMARK    2  A    between atoms: C_2  and  C_3
REMARK    3  A    between atoms: C_2  and  C_4
REMARK    4  A    between atoms: C_2  and  C_5
REMARK    5  A    between atoms: N_7  and  C_8
REMARK    6  A    between atoms: C_9  and  C_14
REMARK                            x       y       z     vdW  Elec       q    Type
REMARK                         _______ _______ _______ _____ _____    ______ ____
ROOT
ATOM      1  C   UNL     1       6.038  -4.902  23.977  0.00  0.00    +0.064 A 
ATOM      2  C   UNL     1       5.537  -6.017  23.305  0.00  0.00    +0.027 A 
ATOM      3  C   UNL     1       6.068  -6.377  22.068  0.00  0.00    +0.022 A 
ATOM      4  C   UNL     1       7.102  -5.619  21.545  0.00  0.00    +0.112 A 
ATOM      5  N   UNL     1       7.628  -4.538  22.160  0.00  0.00    -0.248 NA
ATOM      6  C   UNL     1       7.102  -4.209  23.382  0.00  0.00    +0.147 A 
ENDROOT
BRANCH   6   7
ATOM      7  C   UNL     1       7.861  -3.136  24.106  0.00  0.00    +0.270 C 
ATOM      8  N   UNL     1       8.549  -2.309  23.250  0.00  0.00    -0.259 N 
ATOM      9  H   UNL     1       8.451  -2.453  22.254  0.00  0.00    +0.157 HD
ATOM     10  C   UNL     1       9.278  -1.241  23.680  0.00  0.00    +0.165 A 
ATOM     11  S   UNL     1       9.818  -0.212  22.427  0.00  0.00    -0.061 S 
ATOM     12  C   UNL     1      10.508   0.828  23.605  0.00  0.00    +0.068 A 
ATOM     13  C   UNL     1      10.322   0.287  24.860  0.00  0.00    +0.120 A 
ATOM     14  N   UNL     1       9.609  -0.895  24.898  0.00  0.00    -0.233 NA
ATOM     15  O   UNL     1       7.830  -3.087  25.332  0.00  0.00    -0.268 OA
ENDBRANCH   6   7
BRANCH   1  17
ATOM     16  C   UNL     1       5.671  -5.198  26.370  0.00  0.00    +0.223 C 
ATOM     17  N   UNL     1       5.396  -4.537  25.180  0.00  0.00    -0.283 N 
ATOM     18  H   UNL     1       5.064  -3.588  25.255  0.00  0.00    +0.155 HD
ATOM     19  O   UNL     1       6.499  -6.104  26.455  0.00  0.00    -0.275 OA
BRANCH  16  21
ATOM     20  C   UNL     1       3.432  -5.118  27.519  0.00  0.00    +0.020 C 
ATOM     21  C   UNL     1       4.901  -4.660  27.597  0.00  0.00    +0.039 C 
ATOM     22  C   UNL     1       5.502  -5.204  28.905  0.00  0.00    +0.020 C 
ATOM     23  C   UNL     1       4.945  -3.126  27.600  0.00  0.00    +0.020 C 
ENDBRANCH  16  21
ENDBRANCH   1  17
TORSDOF 3
ENDMDL
MODEL 5
REMARK VINA RESULT:      -5.6      3.303      5.220
REMARK  Name = 
REMARK  6 active torsions:
REMARK  status: ('A' for Active; 'I' for Inactive)
REMARK    1  A    between atoms: C_1  and  C_2
REMARK    2  A    between atoms: C_2  and  C_3
REMARK    3  A    between atoms: C_2  and  C_4
REMARK    4  A    between atoms: C_2  and  C_5
REMARK    5  A    between atoms: N_7  and  C_8
REMARK    6  A    between atoms: C_9  and  C_14
REMARK                            x       y       z     vdW  Elec       q    Type
REMARK                         _______ _______ _______ _____ _____    ______ ____
ROOT
ATOM      1  C   UNL     1       7.111   0.191  25.535  0.00  0.00    +0.064 A 
ATOM      2  C   UNL     1       6.816   0.863  26.722  0.00  0.00    +0.027 A 
ATOM      3  C   UNL     1       5.569   0.695  27.321  0.00  0.00    +0.022 A 
ATOM      4  C   UNL     1       4.655  -0.158  26.723  0.00  0.00    +0.112 A 
ATOM      5  N   UNL     1       4.896  -0.837  25.582  0.00  0.00    -0.248 NA
ATOM      6  C   UNL     1       6.134  -0.669  25.016  0.00  0.00    +0.147 A 
ENDROOT
BRANCH   6   7
ATOM      7  C   UNL     1       6.415  -1.603  23.875  0.00  0.00    +0.270 C 
ATOM      8  N   UNL     1       6.209  -2.921  24.210  0.00  0.00    -0.259 N 
ATOM      9  H   UNL     1       5.856  -3.137  25.132  0.00  0.00    +0.157 HD
ATOM     10  C   UNL     1       6.366  -3.942  23.322  0.00  0.00    +0.165 A 
ATOM     11  S   UNL     1       5.799  -5.453  23.886  0.00  0.00    -0.061 S 
ATOM     12  C   UNL     1       6.206  -6.148  22.371  0.00  0.00    +0.068 A 
ATOM     13  C   UNL     1       6.791  -5.192  21.569  0.00  0.00    +0.120 A 
ATOM     14  N   UNL     1       6.874  -3.927  22.115  0.00  0.00    -0.233 NA
ATOM     15  O   UNL     1       6.801  -1.154  22.800  0.00  0.00    -0.268 OA
ENDBRANCH   6   7
BRANCH   1  17
ATOM     16  C   UNL     1       8.487   1.507  24.012  0.00  0.00    +0.223 C 
ATOM     17  N   UNL     1       8.355   0.474  24.931  0.00  0.00    -0.283 N 
ATOM     18  H   UNL     1       9.184   0.209  25.437  0.00  0.00    +0.155 HD
ATOM     19  O   UNL     1       7.555   2.247  23.699  0.00  0.00    -0.275 OA
BRANCH  16  21
ATOM     20  C   UNL     1      10.903   0.859  24.298  0.00  0.00    +0.020 C 
ATOM     21  C   UNL     1       9.918   1.698  23.462  0.00  0.00    +0.039 C 
ATOM     22  C   UNL     1      10.012   1.229  21.999  0.00  0.00    +0.020 C 
ATOM     23  C   UNL     1      10.315   3.178  23.562  0.00  0.00    +0.020 C 
ENDBRANCH  16  21
ENDBRANCH   1  17
TORSDOF 3
ENDMDL
MODEL 6
REMARK VINA RESULT:      -5.6      1.473      4.163
REMARK  Name = 
REMARK  6 active torsions:
REMARK  status: ('A' for Active; 'I' for Inactive)
REMARK    1  A    between atoms: C_1  and  C_2
REMARK    2  A    between atoms: C_2  and  C_3
REMARK    3  A    between atoms: C_2  and  C_4
REMARK    4  A    between atoms: C_2  and  C_5
REMARK    5  A    between atoms: N_7  and  C_8
REMARK    6  A    between atoms: C_9  and  C_14
REMARK                            x       y       z     vdW  Elec       q    Type
REMARK                         _______ _______ _______ _____ _____    ______ ____
ROOT
ATOM      1  C   UNL     1       7.757  -2.151  24.690  0.00  0.00    +0.064 A 
ATOM      2  C   UNL     1       8.212  -0.992  24.062  0.00  0.00    +0.027 A 
ATOM      3  C   UNL     1       8.922  -0.041  24.793  0.00  0.00    +0.022 A 
ATOM      4  C   UNL     1       9.173  -0.287  26.133  0.00  0.00    +0.112 A 
ATOM      5  N   UNL     1       8.763  -1.397  26.784  0.00  0.00    -0.248 NA
ATOM      6  C   UNL     1       8.079  -2.326  26.043  0.00  0.00    +0.147 A 
ENDROOT
BRANCH   6   7
ATOM      7  C   UNL     1       7.834  -3.621  26.762  0.00  0.00    +0.270 C 
ATOM      8  N   UNL     1       6.538  -3.740  27.205  0.00  0.00    -0.259 N 
ATOM      9  H   UNL     1       5.880  -3.008  26.979  0.00  0.00    +0.157 HD
ATOM     10  C   UNL     1       6.077  -4.848  27.851  0.00  0.00    +0.165 A 
ATOM     11  S   UNL     1       4.382  -4.878  28.065  0.00  0.00    -0.061 S 
ATOM     12  C   UNL     1       4.521  -6.429  28.788  0.00  0.00    +0.068 A 
ATOM     13  C   UNL     1       5.851  -6.784  28.860  0.00  0.00    +0.120 A 
ATOM     14  N   UNL     1       6.739  -5.878  28.315  0.00  0.00    -0.233 NA
ATOM     15  O   UNL     1       8.754  -4.421  26.908  0.00  0.00    -0.268 OA
ENDBRANCH   6   7
BRANCH   1  17
ATOM     16  C   UNL     1       7.505  -4.183  23.365  0.00  0.00    +0.223 C 
ATOM     17  N   UNL     1       6.966  -3.030  23.918  0.00  0.00    -0.283 N 
ATOM     18  H   UNL     1       5.974  -3.033  24.097  0.00  0.00    +0.155 HD
ATOM     19  O   UNL     1       8.675  -4.523  23.539  0.00  0.00    -0.275 OA
BRANCH  16  21
ATOM     20  C   UNL     1       5.456  -5.635  23.535  0.00  0.00    +0.020 C 
ATOM     21  C   UNL     1       6.500  -5.045  22.569  0.00  0.00    +0.039 C 
ATOM     22  C   UNL     1       5.757  -4.197  21.522  0.00  0.00    +0.020 C 
ATOM     23  C   UNL     1       7.244  -6.196  21.877  0.00  0.00    +0.020 C 
ENDBRANCH  16  21
ENDBRANCH   1  17
TORSDOF 3
ENDMDL
MODEL 7
REMARK VINA RESULT:      -5.6      3.721      5.680
REMARK  Name = 
REMARK  6 active torsions:
REMARK  status: ('A' for Active; 'I' for Inactive)
REMARK    1  A    between atoms: C_1  and  C_2
REMARK    2  A    between atoms: C_2  and  C_3
REMARK    3  A    between atoms: C_2  and  C_4
REMARK    4  A    between atoms: C_2  and  C_5
REMARK    5  A    between atoms: N_7  and  C_8
REMARK    6  A    between atoms: C_9  and  C_14
REMARK                            x       y       z     vdW  Elec       q    Type
REMARK                         _______ _______ _______ _____ _____    ______ ____
ROOT
ATOM      1  C   UNL     1       8.236  -1.374  22.827  0.00  0.00    +0.064 A 
ATOM      2  C   UNL     1       9.209  -1.111  21.861  0.00  0.00    +0.027 A 
ATOM      3  C   UNL     1       9.346   0.178  21.350  0.00  0.00    +0.022 A 
ATOM      4  C   UNL     1       8.515   1.176  21.833  0.00  0.00    +0.112 A 
ATOM      5  N   UNL     1       7.567   0.974  22.773  0.00  0.00    -0.248 NA
ATOM      6  C   UNL     1       7.458  -0.297  23.274  0.00  0.00    +0.147 A 
ENDROOT
BRANCH   6   7
ATOM      7  C   UNL     1       6.538  -0.412  24.455  0.00  0.00    +0.270 C 
ATOM      8  N   UNL     1       6.936   0.374  25.510  0.00  0.00    -0.259 N 
ATOM      9  H   UNL     1       7.743   0.970  25.393  0.00  0.00    +0.157 HD
ATOM     10  C   UNL     1       6.233   0.459  26.674  0.00  0.00    +0.165 A 
ATOM     11  S   UNL     1       6.771   1.693  27.728  0.00  0.00    -0.061 S 
ATOM     12  C   UNL     1       5.503   1.292  28.812  0.00  0.00    +0.068 A 
ATOM     13  C   UNL     1       4.798   0.216  28.317  0.00  0.00    +0.120 A 
ATOM     14  N   UNL     1       5.215  -0.253  27.087  0.00  0.00    -0.233 NA
ATOM     15  O   UNL     1       5.569  -1.163  24.402  0.00  0.00    -0.268 OA
ENDBRANCH   6   7
BRANCH   1  17
ATOM     16  C   UNL     1       7.157  -3.552  22.632  0.00  0.00    +0.223 C 
ATOM     17  N   UNL     1       8.086  -2.716  23.237  0.00  0.00    -0.283 N 
ATOM     18  H   UNL     1       8.885  -3.159  23.663  0.00  0.00    +0.155 HD
ATOM     19  O   UNL     1       6.444  -3.191  21.696  0.00  0.00    -0.275 OA
BRANCH  16  21
ATOM     20  C   UNL     1       5.814  -5.235  23.936  0.00  0.00    +0.020 C 
ATOM     21  C   UNL     1       7.136  -4.995  23.183  0.00  0.00    +0.039 C 
ATOM     22  C   UNL     1       7.227  -6.021  22.039  0.00  0.00    +0.020 C 
ATOM     23  C   UNL     1       8.307  -5.192  24.156  0.00  0.00    +0.020 C 
ENDBRANCH  16  21
ENDBRANCH   1  17
TORSDOF 3
ENDMDL
MODEL 8
REMARK VINA RESULT:      -5.6      3.585      5.782
REMARK  Name = 
REMARK  6 active torsions:
REMARK  status: ('A' for Active; 'I' for Inactive)
REMARK    1  A    between atoms: C_1  and  C_2
REMARK    2  A    between atoms: C_2  and  C_3
REMARK    3  A    between atoms: C_2  and  C_4
REMARK    4  A    between atoms: C_2  and  C_5
REMARK    5  A    between atoms: N_7  and  C_8
REMARK    6  A    between atoms: C_9  and  C_14
REMARK                            x       y       z     vdW  Elec       q    Type
REMARK                         _______ _______ _______ _____ _____    ______ ____
ROOT
ATOM      1  C   UNL     1       8.154  -1.346  22.661  0.00  0.00    +0.064 A 
ATOM      2  C   UNL     1       9.258  -1.103  21.843  0.00  0.00    +0.027 A 
ATOM      3  C   UNL     1       9.499   0.185  21.370  0.00  0.00    +0.022 A 
ATOM      4  C   UNL     1       8.636   1.202  21.745  0.00  0.00    +0.112 A 
ATOM      5  N   UNL     1       7.561   1.020  22.541  0.00  0.00    -0.248 NA
ATOM      6  C   UNL     1       7.350  -0.251  23.007  0.00  0.00    +0.147 A 
ENDROOT
BRANCH   6   7
ATOM      7  C   UNL     1       6.271  -0.349  24.047  0.00  0.00    +0.270 C 
ATOM      8  N   UNL     1       6.067   0.840  24.707  0.00  0.00    -0.259 N 
ATOM      9  H   UNL     1       6.596   1.651  24.418  0.00  0.00    +0.157 HD
ATOM     10  C   UNL     1       5.112   0.998  25.666  0.00  0.00    +0.165 A 
ATOM     11  S   UNL     1       4.867   2.619  26.148  0.00  0.00    -0.061 S 
ATOM     12  C   UNL     1       3.608   2.097  27.192  0.00  0.00    +0.068 A 
ATOM     13  C   UNL     1       3.505   0.723  27.135  0.00  0.00    +0.120 A 
ATOM     14  N   UNL     1       4.363   0.098  26.253  0.00  0.00    -0.233 NA
ATOM     15  O   UNL     1       5.699  -1.419  24.234  0.00  0.00    -0.268 OA
ENDBRANCH   6   7
BRANCH   1  17
ATOM     16  C   UNL     1       8.470  -3.225  24.183  0.00  0.00    +0.223 C 
ATOM     17  N   UNL     1       7.913  -2.687  23.031  0.00  0.00    -0.283 N 
ATOM     18  H   UNL     1       7.061  -3.110  22.699  0.00  0.00    +0.155 HD
ATOM     19  O   UNL     1       9.167  -2.569  24.957  0.00  0.00    -0.275 OA
BRANCH  16  21
ATOM     20  C   UNL     1       6.873  -4.744  25.399  0.00  0.00    +0.020 C 
ATOM     21  C   UNL     1       8.089  -4.697  24.455  0.00  0.00    +0.039 C 
ATOM     22  C   UNL     1       7.707  -5.416  23.148  0.00  0.00    +0.020 C 
ATOM     23  C   UNL     1       9.267  -5.419  25.123  0.00  0.00    +0.020 C 
ENDBRANCH  16  21
ENDBRANCH   1  17
TORSDOF 3
ENDMDL
MODEL 9
REMARK VINA RESULT:      -5.5      3.138      6.024
REMARK  Name = 
REMARK  6 active torsions:
REMARK  status: ('A' for Active; 'I' for Inactive)
REMARK    1  A    between atoms: C_1  and  C_2
REMARK    2  A    between atoms: C_2  and  C_3
REMARK    3  A    between atoms: C_2  and  C_4
REMARK    4  A    between atoms: C_2  and  C_5
REMARK    5  A    between atoms: N_7  and  C_8
REMARK    6  A    between atoms: C_9  and  C_14
REMARK                            x       y       z     vdW  Elec       q    Type
REMARK                         _______ _______ _______ _____ _____    ______ ____
ROOT
ATOM      1  C   UNL     1       6.539  -4.820  23.232  0.00  0.00    +0.064 A 
ATOM      2  C   UNL     1       6.471  -6.037  22.555  0.00  0.00    +0.027 A 
ATOM      3  C   UNL     1       6.175  -6.057  21.194  0.00  0.00    +0.022 A 
ATOM      4  C   UNL     1       5.972  -4.851  20.542  0.00  0.00    +0.112 A 
ATOM      5  N   UNL     1       6.037  -3.648  21.150  0.00  0.00    -0.248 NA
ATOM      6  C   UNL     1       6.344  -3.650  22.486  0.00  0.00    +0.147 A 
ENDROOT
BRANCH   6   7
ATOM      7  C   UNL     1       6.606  -2.285  23.054  0.00  0.00    +0.270 C 
ATOM      8  N   UNL     1       7.685  -1.669  22.466  0.00  0.00    -0.259 N 
ATOM      9  H   UNL     1       8.157  -2.139  21.706  0.00  0.00    +0.157 HD
ATOM     10  C   UNL     1       8.087  -0.409  22.796  0.00  0.00    +0.165 A 
ATOM     11  S   UNL     1       9.273   0.243  21.752  0.00  0.00    -0.061 S 
ATOM     12  C   UNL     1       9.222   1.709  22.643  0.00  0.00    +0.068 A 
ATOM     13  C   UNL     1       8.345   1.575  23.698  0.00  0.00    +0.120 A 
ATOM     14  N   UNL     1       7.691   0.362  23.777  0.00  0.00    -0.233 NA
ATOM     15  O   UNL     1       5.895  -1.853  23.956  0.00  0.00    -0.268 OA
ENDBRANCH   6   7
BRANCH   1  17
ATOM     16  C   UNL     1       5.700  -5.096  25.505  0.00  0.00    +0.223 C 
ATOM     17  N   UNL     1       6.752  -4.873  24.627  0.00  0.00    -0.283 N 
ATOM     18  H   UNL     1       7.671  -5.140  24.943  0.00  0.00    +0.155 HD
ATOM     19  O   UNL     1       4.545  -5.292  25.128  0.00  0.00    -0.275 OA
BRANCH  16  21
ATOM     20  C   UNL     1       7.638  -5.259  27.102  0.00  0.00    +0.020 C 
ATOM     21  C   UNL     1       6.106  -5.148  26.995  0.00  0.00    +0.039 C 
ATOM     22  C   UNL     1       5.667  -3.868  27.729  0.00  0.00    +0.020 C 
ATOM     23  C   UNL     1       5.469  -6.376  27.660  0.00  0.00    +0.020 C 
ENDBRANCH  16  21
ENDBRANCH   1  17
TORSDOF 3
ENDMDL
