MODEL 1
REMARK VINA RESULT:      -7.1      0.000      0.000
REMARK  Name = 
REMARK  6 active torsions:
REMARK  status: ('A' for Active; 'I' for Inactive)
REMARK    1  A    between atoms: C_2  and  C_3
REMARK    2  A    between atoms: C_2  and  N_15
REMARK    3  A    between atoms: C_2  and  C_25
REMARK    4  A    between atoms: C_3  and  C_4
REMARK    5  A    between atoms: C_22  and  S_23
REMARK    6  A    between atoms: N_27  and  C_28
REMARK                            x       y       z     vdW  Elec       q    Type
REMARK                         _______ _______ _______ _____ _____    ______ ____
ROOT
ATOM      1  C   UNL     1       6.869  -2.679  22.695  0.00  0.00    +0.165 C 
ENDROOT
BRANCH   1   2
ATOM      2  N   UNL     1       6.366  -3.014  24.023  0.00  0.00    -0.287 N 
ATOM      3  H   UNL     1       6.258  -4.004  24.236  0.00  0.00    +0.151 HD
ATOM      4  C   UNL     1       5.691  -2.139  24.814  0.00  0.00    +0.306 C 
ATOM      5  N   UNL     1       5.401  -2.546  26.082  0.00  0.00    -0.247 N 
ATOM      6  H   UNL     1       5.040  -1.840  26.709  0.00  0.00    +0.158 HD
ATOM      7  C   UNL     1       5.633  -3.799  26.571  0.00  0.00    +0.190 A 
ATOM      8  S   UNL     1       5.474  -3.997  28.256  0.00  0.00    -0.024 S 
ATOM      9  C   UNL     1       5.956  -5.626  28.015  0.00  0.00    +0.157 A 
ATOM     10  N   UNL     1       6.162  -5.956  26.759  0.00  0.00    -0.133 NA
ATOM     11  N   UNL     1       5.980  -4.882  25.914  0.00  0.00    -0.125 NA
ATOM     12  O   UNL     1       5.417  -0.997  24.444  0.00  0.00    -0.252 OA
BRANCH   9  13
ATOM     13  S   UNL     1       6.162  -6.783  29.299  0.00  0.00    -0.114 S 
ATOM     14  H   UNL     1       6.057  -5.901  30.303  0.00  0.00    +0.109 HD
ENDBRANCH   9  13
ENDBRANCH   1   2
BRANCH   1  15
ATOM     15  C   UNL     1       6.276  -3.681  21.685  0.00  0.00    +0.233 C 
ATOM     16  N   UNL     1       6.723  -4.976  21.852  0.00  0.00    -0.317 N 
ATOM     17  H   UNL     1       7.477  -5.140  22.518  0.00  0.00    +0.148 HD
ATOM     18  C   UNL     1       6.309  -6.053  20.989  0.00  0.00    +0.128 C 
ATOM     19  O   UNL     1       5.515  -3.343  20.783  0.00  0.00    -0.274 OA
ENDBRANCH   1  15
BRANCH   1  20
ATOM     20  C   UNL     1       8.404  -2.750  22.661  0.00  0.00    +0.073 C 
BRANCH  20  21
ATOM     21  C   UNL     1       9.082  -1.458  23.052  0.00  0.00    +0.031 A 
ATOM     22  C   UNL     1       9.397  -0.489  22.095  0.00  0.00    +0.167 A 
ATOM     23  F   UNL     1       9.079  -0.704  20.810  0.00  0.00    -0.202 F 
ATOM     24  C   UNL     1      10.045   0.693  22.453  0.00  0.00    +0.197 A 
ATOM     25  F   UNL     1      10.353   1.598  21.513  0.00  0.00    -0.199 F 
ATOM     26  C   UNL     1      10.375   0.930  23.780  0.00  0.00    +0.199 A 
ATOM     27  F   UNL     1      11.002   2.063  24.124  0.00  0.00    -0.199 F 
ATOM     28  C   UNL     1      10.055  -0.010  24.749  0.00  0.00    +0.197 A 
ATOM     29  F   UNL     1      10.364   0.218  26.033  0.00  0.00    -0.199 F 
ATOM     30  C   UNL     1       9.416  -1.192  24.385  0.00  0.00    +0.167 A 
ATOM     31  F   UNL     1       9.124  -2.094  25.331  0.00  0.00    -0.202 F 
ENDBRANCH  20  21
ENDBRANCH   1  20
TORSDOF 5
ENDMDL
MODEL 2
REMARK VINA RESULT:      -7.1      0.110      2.043
REMARK  Name = 
REMARK  6 active torsions:
REMARK  status: ('A' for Active; 'I' for Inactive)
REMARK    1  A    between atoms: C_2  and  C_3
REMARK    2  A    between atoms: C_2  and  N_15
REMARK    3  A    between atoms: C_2  and  C_25
REMARK    4  A    between atoms: C_3  and  C_4
REMARK    5  A    between atoms: C_22  and  S_23
REMARK    6  A    between atoms: N_27  and  C_28
REMARK                            x       y       z     vdW  Elec       q    Type
REMARK                         _______ _______ _______ _____ _____    ______ ____
ROOT
ATOM      1  C   UNL     1       6.896  -2.706  22.819  0.00  0.00    +0.165 C 
ENDROOT
BRANCH   1   2
ATOM      2  N   UNL     1       6.372  -3.051  24.136  0.00  0.00    -0.287 N 
ATOM      3  H   UNL     1       6.290  -4.043  24.352  0.00  0.00    +0.151 HD
ATOM      4  C   UNL     1       5.651  -2.195  24.907  0.00  0.00    +0.306 C 
ATOM      5  N   UNL     1       5.344  -2.605  26.170  0.00  0.00    -0.247 N 
ATOM      6  H   UNL     1       4.945  -1.909  26.784  0.00  0.00    +0.158 HD
ATOM      7  C   UNL     1       5.604  -3.848  26.670  0.00  0.00    +0.190 A 
ATOM      8  S   UNL     1       5.410  -4.044  28.352  0.00  0.00    -0.024 S 
ATOM      9  C   UNL     1       5.949  -5.658  28.130  0.00  0.00    +0.157 A 
ATOM     10  N   UNL     1       6.195  -5.987  26.881  0.00  0.00    -0.133 NA
ATOM     11  N   UNL     1       5.999  -4.922  26.027  0.00  0.00    -0.125 NA
ATOM     12  O   UNL     1       5.350  -1.063  24.525  0.00  0.00    -0.252 OA
BRANCH   9  13
ATOM     13  S   UNL     1       6.160  -6.803  29.425  0.00  0.00    -0.114 S 
ATOM     14  H   UNL     1       7.206  -7.441  28.879  0.00  0.00    +0.109 HD
ENDBRANCH   9  13
ENDBRANCH   1   2
BRANCH   1  15
ATOM     15  C   UNL     1       6.302  -3.687  21.789  0.00  0.00    +0.233 C 
ATOM     16  N   UNL     1       6.785  -4.974  21.898  0.00  0.00    -0.317 N 
ATOM     17  H   UNL     1       7.560  -5.143  22.538  0.00  0.00    +0.148 HD
ATOM     18  C   UNL     1       6.376  -6.030  21.007  0.00  0.00    +0.128 C 
ATOM     19  O   UNL     1       5.509  -3.337  20.919  0.00  0.00    -0.274 OA
ENDBRANCH   1  15
BRANCH   1  20
ATOM     20  C   UNL     1       8.431  -2.798  22.803  0.00  0.00    +0.073 C 
BRANCH  20  21
ATOM     21  C   UNL     1       9.122  -1.501  23.153  0.00  0.00    +0.031 A 
ATOM     22  C   UNL     1       9.468  -1.201  24.473  0.00  0.00    +0.167 A 
ATOM     23  F   UNL     1       9.196  -2.085  25.444  0.00  0.00    -0.202 F 
ATOM     24  C   UNL     1      10.084   0.007  24.799  0.00  0.00    +0.197 A 
ATOM     25  F   UNL     1      10.389   0.279  26.076  0.00  0.00    -0.199 F 
ATOM     26  C   UNL     1      10.376   0.929  23.804  0.00  0.00    +0.199 A 
ATOM     27  F   UNL     1      10.963   2.092  24.117  0.00  0.00    -0.199 F 
ATOM     28  C   UNL     1      10.058   0.644  22.485  0.00  0.00    +0.197 A 
ATOM     29  F   UNL     1      10.345   1.527  21.518  0.00  0.00    -0.199 F 
ATOM     30  C   UNL     1       9.435  -0.560  22.165  0.00  0.00    +0.167 A 
ATOM     31  F   UNL     1       9.124  -0.816  20.887  0.00  0.00    -0.202 F 
ENDBRANCH  20  21
ENDBRANCH   1  20
TORSDOF 5
ENDMDL
MODEL 3
REMARK VINA RESULT:      -6.9      3.289      5.413
REMARK  Name = 
REMARK  6 active torsions:
REMARK  status: ('A' for Active; 'I' for Inactive)
REMARK    1  A    between atoms: C_2  and  C_3
REMARK    2  A    between atoms: C_2  and  N_15
REMARK    3  A    between atoms: C_2  and  C_25
REMARK    4  A    between atoms: C_3  and  C_4
REMARK    5  A    between atoms: C_22  and  S_23
REMARK    6  A    between atoms: N_27  and  C_28
REMARK                            x       y       z     vdW  Elec       q    Type
REMARK                         _______ _______ _______ _____ _____    ______ ____
ROOT
ATOM      1  C   UNL     1       9.277  -2.644  23.910  0.00  0.00    +0.165 C 
ENDROOT
BRANCH   1   2
ATOM      2  N   UNL     1       8.692  -3.410  25.006  0.00  0.00    -0.287 N 
ATOM      3  H   UNL     1       8.051  -2.914  25.622  0.00  0.00    +0.151 HD
ATOM      4  C   UNL     1       9.218  -4.572  25.475  0.00  0.00    +0.306 C 
ATOM      5  N   UNL     1       8.491  -5.250  26.408  0.00  0.00    -0.247 N 
ATOM      6  H   UNL     1       8.810  -6.181  26.637  0.00  0.00    +0.158 HD
ATOM      7  C   UNL     1       7.342  -4.791  26.985  0.00  0.00    +0.190 A 
ATOM      8  S   UNL     1       6.446  -5.921  27.892  0.00  0.00    -0.024 S 
ATOM      9  C   UNL     1       5.298  -4.670  28.140  0.00  0.00    +0.157 A 
ATOM     10  N   UNL     1       5.626  -3.513  27.608  0.00  0.00    -0.133 NA
ATOM     11  N   UNL     1       6.821  -3.587  26.925  0.00  0.00    -0.125 NA
ATOM     12  O   UNL     1      10.263  -5.046  25.029  0.00  0.00    -0.252 OA
BRANCH   9  13
ATOM     13  S   UNL     1       3.811  -4.870  29.021  0.00  0.00    -0.114 S 
ATOM     14  H   UNL     1       3.175  -3.830  28.464  0.00  0.00    +0.109 HD
ENDBRANCH   9  13
ENDBRANCH   1   2
BRANCH   1  15
ATOM     15  C   UNL     1       9.578  -1.221  24.422  0.00  0.00    +0.233 C 
ATOM     16  N   UNL     1      10.238  -0.425  23.509  0.00  0.00    -0.317 N 
ATOM     17  H   UNL     1      10.576  -0.859  22.651  0.00  0.00    +0.148 HD
ATOM     18  C   UNL     1      10.635   0.927  23.809  0.00  0.00    +0.128 C 
ATOM     19  O   UNL     1       9.299  -0.851  25.560  0.00  0.00    -0.274 OA
ENDBRANCH   1  15
BRANCH   1  20
ATOM     20  C   UNL     1       8.310  -2.575  22.717  0.00  0.00    +0.073 C 
BRANCH  20  21
ATOM     21  C   UNL     1       7.005  -3.299  22.948  0.00  0.00    +0.031 A 
ATOM     22  C   UNL     1       6.764  -4.554  22.381  0.00  0.00    +0.167 A 
ATOM     23  F   UNL     1       7.714  -5.131  21.631  0.00  0.00    -0.202 F 
ATOM     24  C   UNL     1       5.550  -5.210  22.575  0.00  0.00    +0.197 A 
ATOM     25  F   UNL     1       5.336  -6.405  22.005  0.00  0.00    -0.199 F 
ATOM     26  C   UNL     1       4.560  -4.626  23.354  0.00  0.00    +0.199 A 
ATOM     27  F   UNL     1       3.391  -5.254  23.537  0.00  0.00    -0.199 F 
ATOM     28  C   UNL     1       4.785  -3.390  23.941  0.00  0.00    +0.197 A 
ATOM     29  F   UNL     1       3.836  -2.825  24.701  0.00  0.00    -0.199 F 
ATOM     30  C   UNL     1       5.997  -2.734  23.737  0.00  0.00    +0.167 A 
ATOM     31  F   UNL     1       6.193  -1.536  24.303  0.00  0.00    -0.202 F 
ENDBRANCH  20  21
ENDBRANCH   1  20
TORSDOF 5
ENDMDL
MODEL 4
REMARK VINA RESULT:      -6.9      3.290      5.562
REMARK  Name = 
REMARK  6 active torsions:
REMARK  status: ('A' for Active; 'I' for Inactive)
REMARK    1  A    between atoms: C_2  and  C_3
REMARK    2  A    between atoms: C_2  and  N_15
REMARK    3  A    between atoms: C_2  and  C_25
REMARK    4  A    between atoms: C_3  and  C_4
REMARK    5  A    between atoms: C_22  and  S_23
REMARK    6  A    between atoms: N_27  and  C_28
REMARK                            x       y       z     vdW  Elec       q    Type
REMARK                         _______ _______ _______ _____ _____    ______ ____
ROOT
ATOM      1  C   UNL     1       9.204  -2.735  24.108  0.00  0.00    +0.165 C 
ENDROOT
BRANCH   1   2
ATOM      2  N   UNL     1       8.579  -3.542  25.150  0.00  0.00    -0.287 N 
ATOM      3  H   UNL     1       7.959  -3.058  25.797  0.00  0.00    +0.151 HD
ATOM      4  C   UNL     1       9.048  -4.755  25.544  0.00  0.00    +0.306 C 
ATOM      5  N   UNL     1       8.287  -5.458  26.430  0.00  0.00    -0.247 N 
ATOM      6  H   UNL     1       8.561  -6.416  26.598  0.00  0.00    +0.158 HD
ATOM      7  C   UNL     1       7.158  -4.984  27.034  0.00  0.00    +0.190 A 
ATOM      8  S   UNL     1       6.205  -6.128  27.864  0.00  0.00    -0.024 S 
ATOM      9  C   UNL     1       5.116  -4.844  28.190  0.00  0.00    +0.157 A 
ATOM     10  N   UNL     1       5.499  -3.671  27.735  0.00  0.00    -0.133 NA
ATOM     11  N   UNL     1       6.693  -3.756  27.051  0.00  0.00    -0.125 NA
ATOM     12  O   UNL     1      10.073  -5.248  25.071  0.00  0.00    -0.252 OA
BRANCH   9  13
ATOM     13  S   UNL     1       3.616  -5.031  29.054  0.00  0.00    -0.114 S 
ATOM     14  H   UNL     1       2.911  -5.498  28.014  0.00  0.00    +0.109 HD
ENDBRANCH   9  13
ENDBRANCH   1   2
BRANCH   1  15
ATOM     15  C   UNL     1       9.509  -1.342  24.693  0.00  0.00    +0.233 C 
ATOM     16  N   UNL     1      10.337  -0.571  23.903  0.00  0.00    -0.317 N 
ATOM     17  H   UNL     1      10.770  -1.010  23.091  0.00  0.00    +0.148 HD
ATOM     18  C   UNL     1      10.765   0.749  24.291  0.00  0.00    +0.128 C 
ATOM     19  O   UNL     1       9.093  -0.976  25.789  0.00  0.00    -0.274 OA
ENDBRANCH   1  15
BRANCH   1  20
ATOM     20  C   UNL     1       8.272  -2.598  22.893  0.00  0.00    +0.073 C 
BRANCH  20  21
ATOM     21  C   UNL     1       6.935  -3.277  23.073  0.00  0.00    +0.031 A 
ATOM     22  C   UNL     1       5.937  -2.709  23.870  0.00  0.00    +0.167 A 
ATOM     23  F   UNL     1       6.166  -1.534  24.475  0.00  0.00    -0.202 F 
ATOM     24  C   UNL     1       4.712  -3.348  24.055  0.00  0.00    +0.197 A 
ATOM     25  F   UNL     1       3.779  -2.792  24.840  0.00  0.00    -0.199 F 
ATOM     26  C   UNL     1       4.460  -4.562  23.431  0.00  0.00    +0.199 A 
ATOM     27  F   UNL     1       3.285  -5.180  23.612  0.00  0.00    -0.199 F 
ATOM     28  C   UNL     1       5.429  -5.134  22.620  0.00  0.00    +0.197 A 
ATOM     29  F   UNL     1       5.187  -6.302  22.008  0.00  0.00    -0.199 F 
ATOM     30  C   UNL     1       6.654  -4.496  22.446  0.00  0.00    +0.167 A 
ATOM     31  F   UNL     1       7.583  -5.068  21.667  0.00  0.00    -0.202 F 
ENDBRANCH  20  21
ENDBRANCH   1  20
TORSDOF 5
ENDMDL
MODEL 5
REMARK VINA RESULT:      -6.9      2.170      3.761
REMARK  Name = 
REMARK  6 active torsions:
REMARK  status: ('A' for Active; 'I' for Inactive)
REMARK    1  A    between atoms: C_2  and  C_3
REMARK    2  A    between atoms: C_2  and  N_15
REMARK    3  A    between atoms: C_2  and  C_25
REMARK    4  A    between atoms: C_3  and  C_4
REMARK    5  A    between atoms: C_22  and  S_23
REMARK    6  A    between atoms: N_27  and  C_28
REMARK                            x       y       z     vdW  Elec       q    Type
REMARK                         _______ _______ _______ _____ _____    ______ ____
ROOT
ATOM      1  C   UNL     1       6.975  -2.289  22.402  0.00  0.00    +0.165 C 
ENDROOT
BRANCH   1   2
ATOM      2  N   UNL     1       6.412  -1.838  23.670  0.00  0.00    -0.287 N 
ATOM      3  H   UNL     1       6.312  -0.833  23.796  0.00  0.00    +0.151 HD
ATOM      4  C   UNL     1       6.381  -2.603  24.793  0.00  0.00    +0.306 C 
ATOM      5  N   UNL     1       5.703  -2.105  25.865  0.00  0.00    -0.247 N 
ATOM      6  H   UNL     1       5.554  -2.740  26.637  0.00  0.00    +0.158 HD
ATOM      7  C   UNL     1       5.158  -0.855  25.930  0.00  0.00    +0.190 A 
ATOM      8  S   UNL     1       4.104  -0.554  27.235  0.00  0.00    -0.024 S 
ATOM      9  C   UNL     1       3.872   1.007  26.564  0.00  0.00    +0.157 A 
ATOM     10  N   UNL     1       4.579   1.250  25.482  0.00  0.00    -0.133 NA
ATOM     11  N   UNL     1       5.328   0.154  25.107  0.00  0.00    -0.125 NA
ATOM     12  O   UNL     1       6.870  -3.733  24.831  0.00  0.00    -0.252 OA
BRANCH   9  13
ATOM     13  S   UNL     1       2.800   2.207  27.231  0.00  0.00    -0.114 S 
ATOM     14  H   UNL     1       2.659   2.914  26.100  0.00  0.00    +0.109 HD
ENDBRANCH   9  13
ENDBRANCH   1   2
BRANCH   1  15
ATOM     15  C   UNL     1       6.325  -3.638  22.036  0.00  0.00    +0.233 C 
ATOM     16  N   UNL     1       7.212  -4.693  21.985  0.00  0.00    -0.317 N 
ATOM     17  H   UNL     1       8.207  -4.486  22.061  0.00  0.00    +0.148 HD
ATOM     18  C   UNL     1       6.805  -6.029  21.631  0.00  0.00    +0.128 C 
ATOM     19  O   UNL     1       5.131  -3.749  21.765  0.00  0.00    -0.274 OA
ENDBRANCH   1  15
BRANCH   1  20
ATOM     20  C   UNL     1       8.499  -2.457  22.511  0.00  0.00    +0.073 C 
BRANCH  20  21
ATOM     21  C   UNL     1       9.223  -1.192  22.906  0.00  0.00    +0.031 A 
ATOM     22  C   UNL     1       9.684  -1.000  24.211  0.00  0.00    +0.167 A 
ATOM     23  F   UNL     1       9.492  -1.962  25.126  0.00  0.00    -0.202 F 
ATOM     24  C   UNL     1      10.331   0.178  24.580  0.00  0.00    +0.197 A 
ATOM     25  F   UNL     1      10.747   0.346  25.844  0.00  0.00    -0.199 F 
ATOM     26  C   UNL     1      10.541   1.180  23.643  0.00  0.00    +0.199 A 
ATOM     27  F   UNL     1      11.158   2.315  23.997  0.00  0.00    -0.199 F 
ATOM     28  C   UNL     1      10.108   1.003  22.336  0.00  0.00    +0.197 A 
ATOM     29  F   UNL     1      10.316   1.963  21.424  0.00  0.00    -0.199 F 
ATOM     30  C   UNL     1       9.455  -0.173  21.975  0.00  0.00    +0.167 A 
ATOM     31  F   UNL     1       9.034  -0.323  20.712  0.00  0.00    -0.202 F 
ENDBRANCH  20  21
ENDBRANCH   1  20
TORSDOF 5
ENDMDL
MODEL 6
REMARK VINA RESULT:      -6.9      2.900      4.125
REMARK  Name = 
REMARK  6 active torsions:
REMARK  status: ('A' for Active; 'I' for Inactive)
REMARK    1  A    between atoms: C_2  and  C_3
REMARK    2  A    between atoms: C_2  and  N_15
REMARK    3  A    between atoms: C_2  and  C_25
REMARK    4  A    between atoms: C_3  and  C_4
REMARK    5  A    between atoms: C_22  and  S_23
REMARK    6  A    between atoms: N_27  and  C_28
REMARK                            x       y       z     vdW  Elec       q    Type
REMARK                         _______ _______ _______ _____ _____    ______ ____
ROOT
ATOM      1  C   UNL     1       7.094  -4.425  23.517  0.00  0.00    +0.165 C 
ENDROOT
BRANCH   1   2
ATOM      2  N   UNL     1       5.906  -5.272  23.541  0.00  0.00    -0.287 N 
ATOM      3  H   UNL     1       5.751  -5.821  24.384  0.00  0.00    +0.151 HD
ATOM      4  C   UNL     1       5.239  -5.662  22.423  0.00  0.00    +0.306 C 
ATOM      5  N   UNL     1       4.069  -6.337  22.603  0.00  0.00    -0.247 N 
ATOM      6  H   UNL     1       3.505  -6.488  21.778  0.00  0.00    +0.158 HD
ATOM      7  C   UNL     1       3.584  -6.748  23.811  0.00  0.00    +0.190 A 
ATOM      8  S   UNL     1       1.973  -7.303  23.833  0.00  0.00    -0.024 S 
ATOM      9  C   UNL     1       2.165  -7.505  25.525  0.00  0.00    +0.157 A 
ATOM     10  N   UNL     1       3.364  -7.214  25.980  0.00  0.00    -0.133 NA
ATOM     11  N   UNL     1       4.193  -6.763  24.975  0.00  0.00    -0.125 NA
ATOM     12  O   UNL     1       5.619  -5.357  21.292  0.00  0.00    -0.252 OA
BRANCH   9  13
ATOM     13  S   UNL     1       0.904  -8.056  26.592  0.00  0.00    -0.114 S 
ATOM     14  H   UNL     1       0.050  -8.421  25.625  0.00  0.00    +0.109 HD
ENDBRANCH   9  13
ENDBRANCH   1   2
BRANCH   1  15
ATOM     15  C   UNL     1       8.055  -4.907  24.622  0.00  0.00    +0.233 C 
ATOM     16  N   UNL     1       7.478  -4.983  25.873  0.00  0.00    -0.317 N 
ATOM     17  H   UNL     1       6.539  -4.606  25.991  0.00  0.00    +0.148 HD
ATOM     18  C   UNL     1       8.220  -5.383  27.042  0.00  0.00    +0.128 C 
ATOM     19  O   UNL     1       9.240  -5.152  24.411  0.00  0.00    -0.274 OA
ENDBRANCH   1  15
BRANCH   1  20
ATOM     20  C   UNL     1       6.719  -2.954  23.758  0.00  0.00    +0.073 C 
BRANCH  20  21
ATOM     21  C   UNL     1       7.907  -2.022  23.803  0.00  0.00    +0.031 A 
ATOM     22  C   UNL     1       8.358  -1.484  25.011  0.00  0.00    +0.167 A 
ATOM     23  F   UNL     1       7.735  -1.812  26.152  0.00  0.00    -0.202 F 
ATOM     24  C   UNL     1       9.439  -0.605  25.048  0.00  0.00    +0.197 A 
ATOM     25  F   UNL     1       9.842  -0.088  26.218  0.00  0.00    -0.199 F 
ATOM     26  C   UNL     1      10.096  -0.260  23.875  0.00  0.00    +0.199 A 
ATOM     27  F   UNL     1      11.132   0.589  23.909  0.00  0.00    -0.199 F 
ATOM     28  C   UNL     1       9.676  -0.797  22.667  0.00  0.00    +0.197 A 
ATOM     29  F   UNL     1      10.313  -0.475  21.532  0.00  0.00    -0.199 F 
ATOM     30  C   UNL     1       8.590  -1.668  22.634  0.00  0.00    +0.167 A 
ATOM     31  F   UNL     1       8.191  -2.169  21.457  0.00  0.00    -0.202 F 
ENDBRANCH  20  21
ENDBRANCH   1  20
TORSDOF 5
ENDMDL
MODEL 7
REMARK VINA RESULT:      -6.9      3.208      4.102
REMARK  Name = 
REMARK  6 active torsions:
REMARK  status: ('A' for Active; 'I' for Inactive)
REMARK    1  A    between atoms: C_2  and  C_3
REMARK    2  A    between atoms: C_2  and  N_15
REMARK    3  A    between atoms: C_2  and  C_25
REMARK    4  A    between atoms: C_3  and  C_4
REMARK    5  A    between atoms: C_22  and  S_23
REMARK    6  A    between atoms: N_27  and  C_28
REMARK                            x       y       z     vdW  Elec       q    Type
REMARK                         _______ _______ _______ _____ _____    ______ ____
ROOT
ATOM      1  C   UNL     1       6.798  -4.812  24.227  0.00  0.00    +0.165 C 
ENDROOT
BRANCH   1   2
ATOM      2  N   UNL     1       5.620  -5.613  23.916  0.00  0.00    -0.287 N 
ATOM      3  H   UNL     1       5.440  -6.418  24.514  0.00  0.00    +0.151 HD
ATOM      4  C   UNL     1       4.997  -5.596  22.708  0.00  0.00    +0.306 C 
ATOM      5  N   UNL     1       3.828  -6.289  22.602  0.00  0.00    -0.247 N 
ATOM      6  H   UNL     1       3.296  -6.146  21.755  0.00  0.00    +0.158 HD
ATOM      7  C   UNL     1       3.305  -7.087  23.578  0.00  0.00    +0.190 A 
ATOM      8  S   UNL     1       1.699  -7.611  23.348  0.00  0.00    -0.024 S 
ATOM      9  C   UNL     1       1.833  -8.382  24.875  0.00  0.00    +0.157 A 
ATOM     10  N   UNL     1       3.012  -8.266  25.447  0.00  0.00    -0.133 NA
ATOM     11  N   UNL     1       3.872  -7.500  24.688  0.00  0.00    -0.125 NA
ATOM     12  O   UNL     1       5.414  -4.923  21.764  0.00  0.00    -0.252 OA
BRANCH   9  13
ATOM     13  S   UNL     1       0.540  -9.261  25.642  0.00  0.00    -0.114 S 
ATOM     14  H   UNL     1       0.406  -8.432  26.687  0.00  0.00    +0.109 HD
ENDBRANCH   9  13
ENDBRANCH   1   2
BRANCH   1  15
ATOM     15  C   UNL     1       7.336  -5.257  25.601  0.00  0.00    +0.233 C 
ATOM     16  N   UNL     1       6.367  -5.354  26.578  0.00  0.00    -0.317 N 
ATOM     17  H   UNL     1       5.431  -5.014  26.360  0.00  0.00    +0.148 HD
ATOM     18  C   UNL     1       6.674  -5.725  27.936  0.00  0.00    +0.128 C 
ATOM     19  O   UNL     1       8.529  -5.455  25.815  0.00  0.00    -0.274 OA
ENDBRANCH   1  15
BRANCH   1  20
ATOM     20  C   UNL     1       6.446  -3.316  24.264  0.00  0.00    +0.073 C 
BRANCH  20  21
ATOM     21  C   UNL     1       7.641  -2.405  24.107  0.00  0.00    +0.031 A 
ATOM     22  C   UNL     1       8.238  -2.205  22.859  0.00  0.00    +0.167 A 
ATOM     23  F   UNL     1       7.732  -2.821  21.780  0.00  0.00    -0.202 F 
ATOM     24  C   UNL     1       9.355  -1.384  22.719  0.00  0.00    +0.197 A 
ATOM     25  F   UNL     1       9.921  -1.223  21.514  0.00  0.00    -0.199 F 
ATOM     26  C   UNL     1       9.886  -0.737  23.826  0.00  0.00    +0.199 A 
ATOM     27  F   UNL     1      10.963   0.048  23.694  0.00  0.00    -0.199 F 
ATOM     28  C   UNL     1       9.298  -0.907  25.071  0.00  0.00    +0.197 A 
ATOM     29  F   UNL     1       9.801  -0.277  26.143  0.00  0.00    -0.199 F 
ATOM     30  C   UNL     1       8.187  -1.735  25.207  0.00  0.00    +0.167 A 
ATOM     31  F   UNL     1       7.638  -1.897  26.419  0.00  0.00    -0.202 F 
ENDBRANCH  20  21
ENDBRANCH   1  20
TORSDOF 5
ENDMDL
MODEL 8
REMARK VINA RESULT:      -6.8      2.128      3.119
REMARK  Name = 
REMARK  6 active torsions:
REMARK  status: ('A' for Active; 'I' for Inactive)
REMARK    1  A    between atoms: C_2  and  C_3
REMARK    2  A    between atoms: C_2  and  N_15
REMARK    3  A    between atoms: C_2  and  C_25
REMARK    4  A    between atoms: C_3  and  C_4
REMARK    5  A    between atoms: C_22  and  S_23
REMARK    6  A    between atoms: N_27  and  C_28
REMARK                            x       y       z     vdW  Elec       q    Type
REMARK                         _______ _______ _______ _____ _____    ______ ____
ROOT
ATOM      1  C   UNL     1       6.959  -2.301  22.485  0.00  0.00    +0.165 C 
ENDROOT
BRANCH   1   2
ATOM      2  N   UNL     1       6.387  -1.875  23.758  0.00  0.00    -0.287 N 
ATOM      3  H   UNL     1       6.275  -0.873  23.898  0.00  0.00    +0.151 HD
ATOM      4  C   UNL     1       6.363  -2.656  24.870  0.00  0.00    +0.306 C 
ATOM      5  N   UNL     1       5.676  -2.182  25.946  0.00  0.00    -0.247 N 
ATOM      6  H   UNL     1       5.533  -2.829  26.709  0.00  0.00    +0.158 HD
ATOM      7  C   UNL     1       5.116  -0.939  26.028  0.00  0.00    +0.190 A 
ATOM      8  S   UNL     1       4.055  -0.670  27.334  0.00  0.00    -0.024 S 
ATOM      9  C   UNL     1       3.806   0.898  26.685  0.00  0.00    +0.157 A 
ATOM     10  N   UNL     1       4.513   1.165  25.609  0.00  0.00    -0.133 NA
ATOM     11  N   UNL     1       5.276   0.084  25.220  0.00  0.00    -0.125 NA
ATOM     12  O   UNL     1       6.865  -3.781  24.893  0.00  0.00    -0.252 OA
BRANCH   9  13
ATOM     13  S   UNL     1       2.719   2.075  27.366  0.00  0.00    -0.114 S 
ATOM     14  H   UNL     1       3.193   3.122  26.675  0.00  0.00    +0.109 HD
ENDBRANCH   9  13
ENDBRANCH   1   2
BRANCH   1  15
ATOM     15  C   UNL     1       6.320  -3.648  22.094  0.00  0.00    +0.233 C 
ATOM     16  N   UNL     1       7.216  -4.695  22.023  0.00  0.00    -0.317 N 
ATOM     17  H   UNL     1       8.209  -4.480  22.103  0.00  0.00    +0.148 HD
ATOM     18  C   UNL     1       6.819  -6.027  21.644  0.00  0.00    +0.128 C 
ATOM     19  O   UNL     1       5.127  -3.764  21.822  0.00  0.00    -0.274 OA
ENDBRANCH   1  15
BRANCH   1  20
ATOM     20  C   UNL     1       8.483  -2.460  22.598  0.00  0.00    +0.073 C 
BRANCH  20  21
ATOM     21  C   UNL     1       9.201  -1.187  22.977  0.00  0.00    +0.031 A 
ATOM     22  C   UNL     1       9.440  -0.184  22.033  0.00  0.00    +0.167 A 
ATOM     23  F   UNL     1       9.012  -0.349  20.773  0.00  0.00    -0.202 F 
ATOM     24  C   UNL     1      10.125   0.981  22.377  0.00  0.00    +0.197 A 
ATOM     25  F   UNL     1      10.358   1.920  21.449  0.00  0.00    -0.199 F 
ATOM     26  C   UNL     1      10.570   1.167  23.679  0.00  0.00    +0.199 A 
ATOM     27  F   UNL     1      11.232   2.283  24.010  0.00  0.00    -0.199 F 
ATOM     28  C   UNL     1      10.327   0.193  24.636  0.00  0.00    +0.197 A 
ATOM     29  F   UNL     1      10.747   0.371  25.897  0.00  0.00    -0.199 F 
ATOM     30  C   UNL     1       9.651  -0.973  24.285  0.00  0.00    +0.167 A 
ATOM     31  F   UNL     1       9.434  -1.909  25.219  0.00  0.00    -0.202 F 
ENDBRANCH  20  21
ENDBRANCH   1  20
TORSDOF 5
ENDMDL
MODEL 9
REMARK VINA RESULT:      -6.8      2.400      2.899
REMARK  Name = 
REMARK  6 active torsions:
REMARK  status: ('A' for Active; 'I' for Inactive)
REMARK    1  A    between atoms: C_2  and  C_3
REMARK    2  A    between atoms: C_2  and  N_15
REMARK    3  A    between atoms: C_2  and  C_25
REMARK    4  A    between atoms: C_3  and  C_4
REMARK    5  A    between atoms: C_22  and  S_23
REMARK    6  A    between atoms: N_27  and  C_28
REMARK                            x       y       z     vdW  Elec       q    Type
REMARK                         _______ _______ _______ _____ _____    ______ ____
ROOT
ATOM      1  C   UNL     1       7.684  -2.605  23.788  0.00  0.00    +0.165 C 
ENDROOT
BRANCH   1   2
ATOM      2  N   UNL     1       6.473  -3.394  23.985  0.00  0.00    -0.287 N 
ATOM      3  H   UNL     1       6.523  -4.150  24.665  0.00  0.00    +0.151 HD
ATOM      4  C   UNL     1       5.454  -3.444  23.087  0.00  0.00    +0.306 C 
ATOM      5  N   UNL     1       4.327  -4.111  23.463  0.00  0.00    -0.247 N 
ATOM      6  H   UNL     1       3.523  -4.014  22.858  0.00  0.00    +0.158 HD
ATOM      7  C   UNL     1       4.194  -4.826  24.619  0.00  0.00    +0.190 A 
ATOM      8  S   UNL     1       2.615  -5.321  25.026  0.00  0.00    -0.024 S 
ATOM      9  C   UNL     1       3.294  -5.986  26.454  0.00  0.00    +0.157 A 
ATOM     10  N   UNL     1       4.600  -5.863  26.549  0.00  0.00    -0.133 NA
ATOM     11  N   UNL     1       5.125  -5.175  25.476  0.00  0.00    -0.125 NA
ATOM     12  O   UNL     1       5.500  -2.850  22.008  0.00  0.00    -0.252 OA
BRANCH   9  13
ATOM     13  S   UNL     1       2.368  -6.775  27.700  0.00  0.00    -0.114 S 
ATOM     14  H   UNL     1       1.725  -7.622  26.883  0.00  0.00    +0.109 HD
ENDBRANCH   9  13
ENDBRANCH   1   2
BRANCH   1  15
ATOM     15  C   UNL     1       8.885  -3.429  24.293  0.00  0.00    +0.233 C 
ATOM     16  N   UNL     1       8.559  -4.367  25.250  0.00  0.00    -0.317 N 
ATOM     17  H   UNL     1       7.613  -4.356  25.628  0.00  0.00    +0.148 HD
ATOM     18  C   UNL     1       9.547  -5.214  25.869  0.00  0.00    +0.128 C 
ATOM     19  O   UNL     1      10.036  -3.228  23.912  0.00  0.00    -0.274 OA
ENDBRANCH   1  15
BRANCH   1  20
ATOM     20  C   UNL     1       7.601  -1.277  24.558  0.00  0.00    +0.073 C 
BRANCH  20  21
ATOM     21  C   UNL     1       8.430  -0.170  23.953  0.00  0.00    +0.031 A 
ATOM     22  C   UNL     1       7.967   0.565  22.859  0.00  0.00    +0.167 A 
ATOM     23  F   UNL     1       6.758   0.292  22.346  0.00  0.00    -0.202 F 
ATOM     24  C   UNL     1       8.743   1.571  22.286  0.00  0.00    +0.197 A 
ATOM     25  F   UNL     1       8.283   2.250  21.225  0.00  0.00    -0.199 F 
ATOM     26  C   UNL     1       9.994   1.867  22.809  0.00  0.00    +0.199 A 
ATOM     27  F   UNL     1      10.744   2.830  22.256  0.00  0.00    -0.199 F 
ATOM     28  C   UNL     1      10.467   1.163  23.906  0.00  0.00    +0.197 A 
ATOM     29  F   UNL     1      11.670   1.450  24.422  0.00  0.00    -0.199 F 
ATOM     30  C   UNL     1       9.691   0.153  24.470  0.00  0.00    +0.167 A 
ATOM     31  F   UNL     1      10.166  -0.525  25.523  0.00  0.00    -0.202 F 
ENDBRANCH  20  21
ENDBRANCH   1  20
TORSDOF 5
ENDMDL
