MODEL 1
REMARK VINA RESULT:      -8.4      0.000      0.000
REMARK  Name = 
REMARK  5 active torsions:
REMARK  status: ('A' for Active; 'I' for Inactive)
REMARK    1  A    between atoms: N_1  and  S_2
REMARK    2  A    between atoms: S_2  and  C_5
REMARK    3  A    between atoms: C_7  and  N_8
REMARK    4  A    between atoms: C_11  and  N_12
REMARK    5  A    between atoms: N_12  and  C_13
REMARK                            x       y       z     vdW  Elec       q    Type
REMARK                         _______ _______ _______ _____ _____    ______ ____
ROOT
ATOM      1  N   UNL     1       8.577  -1.400  22.259  0.00  0.00    -0.284 N 
ATOM      2  H   UNL     1       8.067  -0.975  21.496  0.00  0.00    +0.155 HD
ATOM      3  C   UNL     1       9.283  -0.397  22.929  0.00  0.00    +0.221 A 
ATOM      4  N   UNL     1      10.099  -0.694  23.951  0.00  0.00    -0.223 NA
ATOM      5  C   UNL     1      10.699   0.330  24.577  0.00  0.00    +0.118 A 
ATOM      6  C   UNL     1      10.515   1.640  24.221  0.00  0.00    +0.063 A 
ATOM      7  C   UNL     1       9.645   1.864  23.176  0.00  0.00    +0.128 A 
ATOM      8  N   UNL     1       9.081   0.851  22.491  0.00  0.00    -0.199 NA
ENDROOT
BRANCH   1  13
ATOM      9  C   UNL     1       7.945  -4.417  24.368  0.00  0.00    +0.107 A 
ATOM     10  C   UNL     1       6.949  -5.062  23.639  0.00  0.00    +0.028 A 
ATOM     11  C   UNL     1       6.494  -4.477  22.458  0.00  0.00    +0.004 A 
ATOM     12  C   UNL     1       7.029  -3.255  22.023  0.00  0.00    +0.023 A 
ATOM     13  C   UNL     1       8.022  -2.590  22.761  0.00  0.00    +0.035 A 
ATOM     14  C   UNL     1       8.472  -3.197  23.936  0.00  0.00    +0.051 A 
BRANCH   9  15
ATOM     15  S   UNL     1       8.537  -5.088  25.889  0.00  0.00    +0.056 S 
ATOM     16  O   UNL     1       9.054  -4.021  26.717  0.00  0.00    -0.153 OA
ATOM     17  O   UNL     1       7.589  -6.055  26.385  0.00  0.00    -0.153 OA
BRANCH  15  18
ATOM     18  N   UNL     1       9.875  -5.967  25.384  0.00  0.00    -0.204 NA
ATOM     19  H   UNL     1      10.363  -6.365  26.187  0.00  0.00    +0.144 HD
ATOM     20  H   UNL     1       9.591  -6.652  24.683  0.00  0.00    +0.144 HD
ENDBRANCH  15  18
ENDBRANCH   9  15
ENDBRANCH   1  13
BRANCH   7  21
ATOM     21  N   UNL     1       9.300   3.198  22.881  0.00  0.00    -0.295 N 
ATOM     22  H   UNL     1       8.420   3.263  22.381  0.00  0.00    +0.154 HD
BRANCH  21  23
ATOM     23  C   UNL     1       9.577   4.322  23.688  0.00  0.00    +0.097 A 
ATOM     24  C   UNL     1      10.808   4.976  23.672  0.00  0.00    +0.189 A 
ATOM     25  O   UNL     1      11.878   4.672  22.879  0.00  0.00    -0.451 OA
ATOM     26  C   UNL     1      12.892   5.516  23.441  0.00  0.00    +0.466 C 
ATOM     27  O   UNL     1      12.351   6.526  24.317  0.00  0.00    -0.453 OA
ATOM     28  C   UNL     1      11.076   6.071  24.465  0.00  0.00    +0.168 A 
ATOM     29  C   UNL     1      10.125   6.621  25.293  0.00  0.00    +0.051 A 
ATOM     30  C   UNL     1       8.863   6.024  25.316  0.00  0.00    +0.025 A 
ATOM     31  C   UNL     1       8.594   4.891  24.523  0.00  0.00    +0.066 A 
ATOM     32 CL   UNL     1       7.012   4.195  24.611  0.00  0.00    -0.081 Cl
ENDBRANCH  21  23
ENDBRANCH   7  21
TORSDOF 5
ENDMDL
MODEL 2
REMARK VINA RESULT:      -8.2      3.363      8.759
REMARK  Name = 
REMARK  5 active torsions:
REMARK  status: ('A' for Active; 'I' for Inactive)
REMARK    1  A    between atoms: N_1  and  S_2
REMARK    2  A    between atoms: S_2  and  C_5
REMARK    3  A    between atoms: C_7  and  N_8
REMARK    4  A    between atoms: C_11  and  N_12
REMARK    5  A    between atoms: N_12  and  C_13
REMARK                            x       y       z     vdW  Elec       q    Type
REMARK                         _______ _______ _______ _____ _____    ______ ____
ROOT
ATOM      1  N   UNL     1      10.586   2.298  23.845  0.00  0.00    -0.284 N 
ATOM      2  H   UNL     1      10.931   2.072  24.768  0.00  0.00    +0.155 HD
ATOM      3  C   UNL     1      10.235   1.107  23.203  0.00  0.00    +0.221 A 
ATOM      4  N   UNL     1       9.803   1.110  21.933  0.00  0.00    -0.223 NA
ATOM      5  C   UNL     1       9.434  -0.068  21.406  0.00  0.00    +0.118 A 
ATOM      6  C   UNL     1       9.480  -1.249  22.099  0.00  0.00    +0.063 A 
ATOM      7  C   UNL     1       9.914  -1.164  23.405  0.00  0.00    +0.128 A 
ATOM      8  N   UNL     1      10.350  -0.006  23.936  0.00  0.00    -0.199 NA
ENDROOT
BRANCH   1  13
ATOM      9  C   UNL     1       8.165   5.085  23.278  0.00  0.00    +0.107 A 
ATOM     10  C   UNL     1       9.005   6.194  23.311  0.00  0.00    +0.028 A 
ATOM     11  C   UNL     1      10.368   5.999  23.533  0.00  0.00    +0.004 A 
ATOM     12  C   UNL     1      10.874   4.705  23.726  0.00  0.00    +0.023 A 
ATOM     13  C   UNL     1      10.031   3.582  23.711  0.00  0.00    +0.035 A 
ATOM     14  C   UNL     1       8.671   3.797  23.476  0.00  0.00    +0.051 A 
BRANCH   9  15
ATOM     15  S   UNL     1       6.426   5.268  23.036  0.00  0.00    +0.056 S 
ATOM     16  O   UNL     1       5.731   4.905  24.251  0.00  0.00    -0.153 OA
ATOM     17  O   UNL     1       6.169   6.508  22.346  0.00  0.00    -0.153 OA
BRANCH  15  18
ATOM     18  N   UNL     1       6.096   4.047  21.935  0.00  0.00    -0.204 NA
ATOM     19  H   UNL     1       6.947   3.534  21.705  0.00  0.00    +0.144 HD
ATOM     20  H   UNL     1       5.335   3.464  22.285  0.00  0.00    +0.144 HD
ENDBRANCH  15  18
ENDBRANCH   9  15
ENDBRANCH   1  13
BRANCH   7  21
ATOM     21  N   UNL     1       9.824  -2.322  24.204  0.00  0.00    -0.295 N 
ATOM     22  H   UNL     1      10.647  -2.450  24.784  0.00  0.00    +0.154 HD
BRANCH  21  23
ATOM     23  C   UNL     1       8.643  -2.846  24.772  0.00  0.00    +0.097 A 
ATOM     24  C   UNL     1       7.950  -3.918  24.214  0.00  0.00    +0.189 A 
ATOM     25  O   UNL     1       8.309  -4.626  23.101  0.00  0.00    -0.451 OA
ATOM     26  C   UNL     1       7.143  -5.435  22.895  0.00  0.00    +0.466 C 
ATOM     27  O   UNL     1       6.264  -5.444  24.039  0.00  0.00    -0.453 OA
ATOM     28  C   UNL     1       6.795  -4.424  24.770  0.00  0.00    +0.168 A 
ATOM     29  C   UNL     1       6.275  -3.932  25.944  0.00  0.00    +0.051 A 
ATOM     30  C   UNL     1       6.956  -2.881  26.563  0.00  0.00    +0.025 A 
ATOM     31  C   UNL     1       8.124  -2.347  25.984  0.00  0.00    +0.066 A 
ATOM     32 CL   UNL     1       8.909  -1.037  26.799  0.00  0.00    -0.081 Cl
ENDBRANCH  21  23
ENDBRANCH   7  21
TORSDOF 5
ENDMDL
MODEL 3
REMARK VINA RESULT:      -8.2      1.828      2.358
REMARK  Name = 
REMARK  5 active torsions:
REMARK  status: ('A' for Active; 'I' for Inactive)
REMARK    1  A    between atoms: N_1  and  S_2
REMARK    2  A    between atoms: S_2  and  C_5
REMARK    3  A    between atoms: C_7  and  N_8
REMARK    4  A    between atoms: C_11  and  N_12
REMARK    5  A    between atoms: N_12  and  C_13
REMARK                            x       y       z     vdW  Elec       q    Type
REMARK                         _______ _______ _______ _____ _____    ______ ____
ROOT
ATOM      1  N   UNL     1       8.751  -1.324  22.302  0.00  0.00    -0.284 N 
ATOM      2  H   UNL     1       8.321  -0.918  21.482  0.00  0.00    +0.155 HD
ATOM      3  C   UNL     1       9.498  -0.333  22.944  0.00  0.00    +0.221 A 
ATOM      4  N   UNL     1      10.229  -0.617  24.033  0.00  0.00    -0.223 NA
ATOM      5  C   UNL     1      10.874   0.401  24.622  0.00  0.00    +0.118 A 
ATOM      6  C   UNL     1      10.818   1.692  24.167  0.00  0.00    +0.063 A 
ATOM      7  C   UNL     1      10.029   1.905  23.057  0.00  0.00    +0.128 A 
ATOM      8  N   UNL     1       9.423   0.891  22.410  0.00  0.00    -0.199 NA
ENDROOT
BRANCH   1  13
ATOM      9  C   UNL     1       7.869  -4.247  24.455  0.00  0.00    +0.107 A 
ATOM     10  C   UNL     1       6.730  -4.730  23.815  0.00  0.00    +0.028 A 
ATOM     11  C   UNL     1       6.265  -4.067  22.680  0.00  0.00    +0.004 A 
ATOM     12  C   UNL     1       6.933  -2.931  22.202  0.00  0.00    +0.023 A 
ATOM     13  C   UNL     1       8.073  -2.428  22.850  0.00  0.00    +0.035 A 
ATOM     14  C   UNL     1       8.530  -3.110  23.979  0.00  0.00    +0.051 A 
BRANCH   9  15
ATOM     15  S   UNL     1       8.487  -5.019  25.916  0.00  0.00    +0.056 S 
ATOM     16  O   UNL     1       9.004  -4.009  26.813  0.00  0.00    -0.153 OA
ATOM     17  O   UNL     1       7.555  -6.029  26.353  0.00  0.00    -0.153 OA
BRANCH  15  18
ATOM     18  N   UNL     1       9.827  -5.845  25.335  0.00  0.00    -0.204 NA
ATOM     19  H   UNL     1      10.316  -6.314  26.098  0.00  0.00    +0.144 HD
ATOM     20  H   UNL     1       9.546  -6.463  24.573  0.00  0.00    +0.144 HD
ENDBRANCH  15  18
ENDBRANCH   9  15
ENDBRANCH   1  13
BRANCH   7  21
ATOM     21  N   UNL     1       9.812   3.237  22.651  0.00  0.00    -0.295 N 
ATOM     22  H   UNL     1       9.283   3.290  21.786  0.00  0.00    +0.154 HD
BRANCH  21  23
ATOM     23  C   UNL     1       9.611   4.341  23.507  0.00  0.00    +0.097 A 
ATOM     24  C   UNL     1       8.407   4.572  24.169  0.00  0.00    +0.189 A 
ATOM     25  O   UNL     1       7.294   3.779  24.129  0.00  0.00    -0.451 OA
ATOM     26  C   UNL     1       6.337   4.607  24.805  0.00  0.00    +0.466 C 
ATOM     27  O   UNL     1       6.952   5.703  25.511  0.00  0.00    -0.453 OA
ATOM     28  C   UNL     1       8.214   5.653  25.002  0.00  0.00    +0.168 A 
ATOM     29  C   UNL     1       9.218   6.554  25.271  0.00  0.00    +0.051 A 
ATOM     30  C   UNL     1      10.456   6.344  24.660  0.00  0.00    +0.025 A 
ATOM     31  C   UNL     1      10.649   5.251  23.791  0.00  0.00    +0.066 A 
ATOM     32 CL   UNL     1      12.206   5.060  23.060  0.00  0.00    -0.081 Cl
ENDBRANCH  21  23
ENDBRANCH   7  21
TORSDOF 5
ENDMDL
MODEL 4
REMARK VINA RESULT:      -8.1      2.566      3.254
REMARK  Name = 
REMARK  5 active torsions:
REMARK  status: ('A' for Active; 'I' for Inactive)
REMARK    1  A    between atoms: N_1  and  S_2
REMARK    2  A    between atoms: S_2  and  C_5
REMARK    3  A    between atoms: C_7  and  N_8
REMARK    4  A    between atoms: C_11  and  N_12
REMARK    5  A    between atoms: N_12  and  C_13
REMARK                            x       y       z     vdW  Elec       q    Type
REMARK                         _______ _______ _______ _____ _____    ______ ____
ROOT
ATOM      1  N   UNL     1       6.852  -1.103  22.945  0.00  0.00    -0.284 N 
ATOM      2  H   UNL     1       6.088  -0.708  23.476  0.00  0.00    +0.155 HD
ATOM      3  C   UNL     1       7.805  -0.102  22.731  0.00  0.00    +0.221 A 
ATOM      4  N   UNL     1       8.900  -0.339  21.994  0.00  0.00    -0.223 NA
ATOM      5  C   UNL     1       9.792   0.656  21.881  0.00  0.00    +0.118 A 
ATOM      6  C   UNL     1       9.633   1.880  22.477  0.00  0.00    +0.063 A 
ATOM      7  C   UNL     1       8.493   2.036  23.235  0.00  0.00    +0.128 A 
ATOM      8  N   UNL     1       7.552   1.076  23.312  0.00  0.00    -0.199 NA
ENDROOT
BRANCH   1  13
ATOM      9  C   UNL     1       7.837  -4.435  24.316  0.00  0.00    +0.107 A 
ATOM     10  C   UNL     1       7.489  -5.282  23.267  0.00  0.00    +0.028 A 
ATOM     11  C   UNL     1       6.919  -4.731  22.120  0.00  0.00    +0.004 A 
ATOM     12  C   UNL     1       6.698  -3.349  22.035  0.00  0.00    +0.023 A 
ATOM     13  C   UNL     1       7.031  -2.490  23.094  0.00  0.00    +0.035 A 
ATOM     14  C   UNL     1       7.610  -3.059  24.231  0.00  0.00    +0.051 A 
BRANCH   9  15
ATOM     15  S   UNL     1       8.529  -5.075  25.809  0.00  0.00    +0.056 S 
ATOM     16  O   UNL     1       9.113  -3.993  26.570  0.00  0.00    -0.153 OA
ATOM     17  O   UNL     1       7.609  -6.017  26.395  0.00  0.00    -0.153 OA
BRANCH  15  18
ATOM     18  N   UNL     1       9.819  -5.981  25.235  0.00  0.00    -0.204 NA
ATOM     19  H   UNL     1      10.426  -5.408  24.649  0.00  0.00    +0.144 HD
ATOM     20  H   UNL     1      10.295  -6.434  26.016  0.00  0.00    +0.144 HD
ENDBRANCH  15  18
ENDBRANCH   9  15
ENDBRANCH   1  13
BRANCH   7  21
ATOM     21  N   UNL     1       8.366   3.216  23.996  0.00  0.00    -0.295 N 
ATOM     22  H   UNL     1       9.090   3.293  24.703  0.00  0.00    +0.154 HD
BRANCH  21  23
ATOM     23  C   UNL     1       7.903   4.461  23.521  0.00  0.00    +0.097 A 
ATOM     24  C   UNL     1       6.562   4.704  23.227  0.00  0.00    +0.189 A 
ATOM     25  O   UNL     1       5.525   3.827  23.384  0.00  0.00    -0.451 OA
ATOM     26  C   UNL     1       4.460   4.536  22.736  0.00  0.00    +0.466 C 
ATOM     27  O   UNL     1       4.777   5.923  22.502  0.00  0.00    -0.453 OA
ATOM     28  C   UNL     1       6.114   5.921  22.760  0.00  0.00    +0.168 A 
ATOM     29  C   UNL     1       6.958   6.994  22.597  0.00  0.00    +0.051 A 
ATOM     30  C   UNL     1       8.306   6.812  22.915  0.00  0.00    +0.025 A 
ATOM     31  C   UNL     1       8.770   5.563  23.372  0.00  0.00    +0.066 A 
ATOM     32 CL   UNL     1      10.455   5.405  23.735  0.00  0.00    -0.081 Cl
ENDBRANCH  21  23
ENDBRANCH   7  21
TORSDOF 5
ENDMDL
MODEL 5
REMARK VINA RESULT:      -8.1      2.434      2.692
REMARK  Name = 
REMARK  5 active torsions:
REMARK  status: ('A' for Active; 'I' for Inactive)
REMARK    1  A    between atoms: N_1  and  S_2
REMARK    2  A    between atoms: S_2  and  C_5
REMARK    3  A    between atoms: C_7  and  N_8
REMARK    4  A    between atoms: C_11  and  N_12
REMARK    5  A    between atoms: N_12  and  C_13
REMARK                            x       y       z     vdW  Elec       q    Type
REMARK                         _______ _______ _______ _____ _____    ______ ____
ROOT
ATOM      1  N   UNL     1       9.434  -1.371  23.670  0.00  0.00    -0.284 N 
ATOM      2  H   UNL     1       9.940  -1.093  22.840  0.00  0.00    +0.155 HD
ATOM      3  C   UNL     1       8.945  -0.219  24.294  0.00  0.00    +0.221 A 
ATOM      4  N   UNL     1       8.286  -0.295  25.459  0.00  0.00    -0.223 NA
ATOM      5  C   UNL     1       7.801   0.849  25.967  0.00  0.00    +0.118 A 
ATOM      6  C   UNL     1       7.951   2.066  25.355  0.00  0.00    +0.063 A 
ATOM      7  C   UNL     1       8.622   2.056  24.151  0.00  0.00    +0.128 A 
ATOM      8  N   UNL     1       9.173   0.932  23.653  0.00  0.00    -0.199 NA
ENDROOT
BRANCH   1  13
ATOM      9  C   UNL     1       7.315  -4.315  22.778  0.00  0.00    +0.107 A 
ATOM     10  C   UNL     1       7.742  -5.257  23.710  0.00  0.00    +0.028 A 
ATOM     11  C   UNL     1       8.739  -4.902  24.617  0.00  0.00    +0.004 A 
ATOM     12  C   UNL     1       9.303  -3.618  24.580  0.00  0.00    +0.023 A 
ATOM     13  C   UNL     1       8.890  -2.667  23.633  0.00  0.00    +0.035 A 
ATOM     14  C   UNL     1       7.882  -3.038  22.739  0.00  0.00    +0.051 A 
BRANCH   9  15
ATOM     15  S   UNL     1       6.082  -4.715  21.580  0.00  0.00    +0.056 S 
ATOM     16  O   UNL     1       5.625  -3.503  20.937  0.00  0.00    -0.153 OA
ATOM     17  O   UNL     1       6.504  -5.871  20.829  0.00  0.00    -0.153 OA
BRANCH  15  18
ATOM     18  N   UNL     1       4.810  -5.228  22.547  0.00  0.00    -0.204 NA
ATOM     19  H   UNL     1       5.044  -5.116  23.534  0.00  0.00    +0.144 HD
ATOM     20  H   UNL     1       3.951  -4.757  22.263  0.00  0.00    +0.144 HD
ENDBRANCH  15  18
ENDBRANCH   9  15
ENDBRANCH   1  13
BRANCH   7  21
ATOM     21  N   UNL     1       8.659   3.254  23.409  0.00  0.00    -0.295 N 
ATOM     22  H   UNL     1       7.852   3.349  22.800  0.00  0.00    +0.154 HD
BRANCH  21  23
ATOM     23  C   UNL     1       9.184   4.486  23.852  0.00  0.00    +0.097 A 
ATOM     24  C   UNL     1      10.529   4.824  23.714  0.00  0.00    +0.189 A 
ATOM     25  O   UNL     1      11.499   4.069  23.118  0.00  0.00    -0.451 OA
ATOM     26  C   UNL     1      12.679   4.809  23.458  0.00  0.00    +0.466 C 
ATOM     27  O   UNL     1      12.382   6.132  23.951  0.00  0.00    -0.453 OA
ATOM     28  C   UNL     1      11.039   6.028  24.152  0.00  0.00    +0.168 A 
ATOM     29  C   UNL     1      10.240   6.997  24.713  0.00  0.00    +0.051 A 
ATOM     30  C   UNL     1       8.878   6.719  24.838  0.00  0.00    +0.025 A 
ATOM     31  C   UNL     1       8.358   5.481  24.412  0.00  0.00    +0.066 A 
ATOM     32 CL   UNL     1       6.661   5.201  24.610  0.00  0.00    -0.081 Cl
ENDBRANCH  21  23
ENDBRANCH   7  21
TORSDOF 5
ENDMDL
MODEL 6
REMARK VINA RESULT:      -7.9      3.692      8.957
REMARK  Name = 
REMARK  5 active torsions:
REMARK  status: ('A' for Active; 'I' for Inactive)
REMARK    1  A    between atoms: N_1  and  S_2
REMARK    2  A    between atoms: S_2  and  C_5
REMARK    3  A    between atoms: C_7  and  N_8
REMARK    4  A    between atoms: C_11  and  N_12
REMARK    5  A    between atoms: N_12  and  C_13
REMARK                            x       y       z     vdW  Elec       q    Type
REMARK                         _______ _______ _______ _____ _____    ______ ____
ROOT
ATOM      1  N   UNL     1       9.066   1.316  25.173  0.00  0.00    -0.284 N 
ATOM      2  H   UNL     1       8.916   0.824  26.044  0.00  0.00    +0.155 HD
ATOM      3  C   UNL     1       9.421   0.383  24.195  0.00  0.00    +0.221 A 
ATOM      4  N   UNL     1       9.740   0.774  22.952  0.00  0.00    -0.223 NA
ATOM      5  C   UNL     1      10.016  -0.186  22.057  0.00  0.00    +0.118 A 
ATOM      6  C   UNL     1       9.986  -1.523  22.355  0.00  0.00    +0.063 A 
ATOM      7  C   UNL     1       9.628  -1.844  23.647  0.00  0.00    +0.128 A 
ATOM      8  N   UNL     1       9.409  -0.898  24.580  0.00  0.00    -0.199 NA
ENDROOT
BRANCH   1  13
ATOM      9  C   UNL     1       8.246   4.902  24.520  0.00  0.00    +0.107 A 
ATOM     10  C   UNL     1       6.917   4.962  24.931  0.00  0.00    +0.028 A 
ATOM     11  C   UNL     1       6.308   3.803  25.409  0.00  0.00    +0.004 A 
ATOM     12  C   UNL     1       7.026   2.599  25.467  0.00  0.00    +0.023 A 
ATOM     13  C   UNL     1       8.362   2.526  25.040  0.00  0.00    +0.035 A 
ATOM     14  C   UNL     1       8.958   3.700  24.573  0.00  0.00    +0.051 A 
BRANCH   9  15
ATOM     15  S   UNL     1       9.063   6.325  23.871  0.00  0.00    +0.056 S 
ATOM     16  O   UNL     1       8.251   6.911  22.828  0.00  0.00    -0.153 OA
ATOM     17  O   UNL     1       9.595   7.107  24.960  0.00  0.00    -0.153 OA
BRANCH  15  18
ATOM     18  N   UNL     1      10.387   5.646  23.097  0.00  0.00    -0.204 NA
ATOM     19  H   UNL     1      11.049   6.370  22.820  0.00  0.00    +0.144 HD
ATOM     20  H   UNL     1      10.787   4.911  23.681  0.00  0.00    +0.144 HD
ENDBRANCH  15  18
ENDBRANCH   9  15
ENDBRANCH   1  13
BRANCH   7  21
ATOM     21  N   UNL     1       9.426  -3.205  23.955  0.00  0.00    -0.295 N 
ATOM     22  H   UNL     1      10.170  -3.578  24.535  0.00  0.00    +0.154 HD
BRANCH  21  23
ATOM     23  C   UNL     1       8.178  -3.831  24.160  0.00  0.00    +0.097 A 
ATOM     24  C   UNL     1       7.195  -3.891  23.174  0.00  0.00    +0.189 A 
ATOM     25  O   UNL     1       7.295  -3.412  21.898  0.00  0.00    -0.451 OA
ATOM     26  C   UNL     1       5.945  -3.562  21.437  0.00  0.00    +0.466 C 
ATOM     27  O   UNL     1       5.155  -4.408  22.297  0.00  0.00    -0.453 OA
ATOM     28  C   UNL     1       5.976  -4.501  23.380  0.00  0.00    +0.168 A 
ATOM     29  C   UNL     1       5.667  -5.132  24.562  0.00  0.00    +0.051 A 
ATOM     30  C   UNL     1       6.635  -5.132  25.568  0.00  0.00    +0.025 A 
ATOM     31  C   UNL     1       7.874  -4.490  25.368  0.00  0.00    +0.066 A 
ATOM     32 CL   UNL     1       9.022  -4.518  26.663  0.00  0.00    -0.081 Cl
ENDBRANCH  21  23
ENDBRANCH   7  21
TORSDOF 5
ENDMDL
MODEL 7
REMARK VINA RESULT:      -7.9      2.971      3.531
REMARK  Name = 
REMARK  5 active torsions:
REMARK  status: ('A' for Active; 'I' for Inactive)
REMARK    1  A    between atoms: N_1  and  S_2
REMARK    2  A    between atoms: S_2  and  C_5
REMARK    3  A    between atoms: C_7  and  N_8
REMARK    4  A    between atoms: C_11  and  N_12
REMARK    5  A    between atoms: N_12  and  C_13
REMARK                            x       y       z     vdW  Elec       q    Type
REMARK                         _______ _______ _______ _____ _____    ______ ____
ROOT
ATOM      1  N   UNL     1       7.468  -1.253  24.149  0.00  0.00    -0.284 N 
ATOM      2  H   UNL     1       7.301  -0.823  25.049  0.00  0.00    +0.155 HD
ATOM      3  C   UNL     1       8.265  -0.392  23.389  0.00  0.00    +0.221 A 
ATOM      4  N   UNL     1       8.587  -0.689  22.122  0.00  0.00    -0.223 NA
ATOM      5  C   UNL     1       9.400   0.162  21.479  0.00  0.00    +0.118 A 
ATOM      6  C   UNL     1       9.904   1.299  22.053  0.00  0.00    +0.063 A 
ATOM      7  C   UNL     1       9.544   1.522  23.364  0.00  0.00    +0.128 A 
ATOM      8  N   UNL     1       8.679   0.718  24.011  0.00  0.00    -0.199 NA
ENDROOT
BRANCH   1  13
ATOM      9  C   UNL     1       6.332  -4.759  23.538  0.00  0.00    +0.107 A 
ATOM     10  C   UNL     1       7.267  -5.486  24.270  0.00  0.00    +0.028 A 
ATOM     11  C   UNL     1       8.272  -4.798  24.948  0.00  0.00    +0.004 A 
ATOM     12  C   UNL     1       8.336  -3.398  24.884  0.00  0.00    +0.023 A 
ATOM     13  C   UNL     1       7.407  -2.658  24.136  0.00  0.00    +0.035 A 
ATOM     14  C   UNL     1       6.402  -3.365  23.471  0.00  0.00    +0.051 A 
BRANCH   9  15
ATOM     15  S   UNL     1       5.058  -5.574  22.628  0.00  0.00    +0.056 S 
ATOM     16  O   UNL     1       3.812  -4.860  22.801  0.00  0.00    -0.153 OA
ATOM     17  O   UNL     1       5.559  -5.938  21.326  0.00  0.00    -0.153 OA
BRANCH  15  18
ATOM     18  N   UNL     1       4.886  -7.010  23.477  0.00  0.00    -0.204 NA
ATOM     19  H   UNL     1       3.945  -7.086  23.863  0.00  0.00    +0.144 HD
ATOM     20  H   UNL     1       5.163  -7.794  22.886  0.00  0.00    +0.144 HD
ENDBRANCH  15  18
ENDBRANCH   9  15
ENDBRANCH   1  13
BRANCH   7  21
ATOM     21  N   UNL     1      10.165   2.589  24.045  0.00  0.00    -0.295 N 
ATOM     22  H   UNL     1      11.169   2.457  24.124  0.00  0.00    +0.154 HD
BRANCH  21  23
ATOM     23  C   UNL     1       9.774   3.944  23.993  0.00  0.00    +0.097 A 
ATOM     24  C   UNL     1       8.492   4.371  24.334  0.00  0.00    +0.189 A 
ATOM     25  O   UNL     1       7.470   3.586  24.790  0.00  0.00    -0.451 OA
ATOM     26  C   UNL     1       6.374   4.512  24.764  0.00  0.00    +0.466 C 
ATOM     27  O   UNL     1       6.806   5.880  24.617  0.00  0.00    -0.453 OA
ATOM     28  C   UNL     1       8.113   5.695  24.279  0.00  0.00    +0.168 A 
ATOM     29  C   UNL     1       8.993   6.691  23.927  0.00  0.00    +0.051 A 
ATOM     30  C   UNL     1      10.301   6.317  23.613  0.00  0.00    +0.025 A 
ATOM     31  C   UNL     1      10.685   4.962  23.648  0.00  0.00    +0.066 A 
ATOM     32 CL   UNL     1      12.320   4.570  23.234  0.00  0.00    -0.081 Cl
ENDBRANCH  21  23
ENDBRANCH   7  21
TORSDOF 5
ENDMDL
MODEL 8
REMARK VINA RESULT:      -7.7      2.936      3.725
REMARK  Name = 
REMARK  5 active torsions:
REMARK  status: ('A' for Active; 'I' for Inactive)
REMARK    1  A    between atoms: N_1  and  S_2
REMARK    2  A    between atoms: S_2  and  C_5
REMARK    3  A    between atoms: C_7  and  N_8
REMARK    4  A    between atoms: C_11  and  N_12
REMARK    5  A    between atoms: N_12  and  C_13
REMARK                            x       y       z     vdW  Elec       q    Type
REMARK                         _______ _______ _______ _____ _____    ______ ____
ROOT
ATOM      1  N   UNL     1       8.927  -1.860  22.534  0.00  0.00    -0.284 N 
ATOM      2  H   UNL     1       8.475  -1.617  21.664  0.00  0.00    +0.155 HD
ATOM      3  C   UNL     1       9.477  -0.698  23.084  0.00  0.00    +0.221 A 
ATOM      4  N   UNL     1      10.195  -0.744  24.216  0.00  0.00    -0.223 NA
ATOM      5  C   UNL     1      10.642   0.422  24.708  0.00  0.00    +0.118 A 
ATOM      6  C   UNL     1      10.401   1.632  24.113  0.00  0.00    +0.063 A 
ATOM      7  C   UNL     1       9.638   1.596  22.965  0.00  0.00    +0.128 A 
ATOM      8  N   UNL     1       9.231   0.435  22.417  0.00  0.00    -0.199 NA
ENDROOT
BRANCH   1  13
ATOM      9  C   UNL     1       6.694  -4.691  23.509  0.00  0.00    +0.107 A 
ATOM     10  C   UNL     1       7.361  -5.200  24.621  0.00  0.00    +0.028 A 
ATOM     11  C   UNL     1       8.553  -4.600  25.024  0.00  0.00    +0.004 A 
ATOM     12  C   UNL     1       9.068  -3.507  24.313  0.00  0.00    +0.023 A 
ATOM     13  C   UNL     1       8.411  -2.996  23.182  0.00  0.00    +0.035 A 
ATOM     14  C   UNL     1       7.213  -3.604  22.799  0.00  0.00    +0.051 A 
BRANCH   9  15
ATOM     15  S   UNL     1       5.200  -5.428  22.928  0.00  0.00    +0.056 S 
ATOM     16  O   UNL     1       4.911  -6.610  23.710  0.00  0.00    -0.153 OA
ATOM     17  O   UNL     1       4.216  -4.399  22.701  0.00  0.00    -0.153 OA
BRANCH  15  18
ATOM     18  N   UNL     1       5.652  -5.981  21.410  0.00  0.00    -0.204 NA
ATOM     19  H   UNL     1       5.827  -6.986  21.433  0.00  0.00    +0.144 HD
ATOM     20  H   UNL     1       4.959  -5.692  20.718  0.00  0.00    +0.144 HD
ENDBRANCH  15  18
ENDBRANCH   9  15
ENDBRANCH   1  13
BRANCH   7  21
ATOM     21  N   UNL     1       9.228   2.825  22.410  0.00  0.00    -0.295 N 
ATOM     22  H   UNL     1       9.119   2.770  21.402  0.00  0.00    +0.154 HD
BRANCH  21  23
ATOM     23  C   UNL     1       8.374   3.767  23.022  0.00  0.00    +0.097 A 
ATOM     24  C   UNL     1       6.989   3.619  23.051  0.00  0.00    +0.189 A 
ATOM     25  O   UNL     1       6.273   2.568  22.550  0.00  0.00    -0.451 OA
ATOM     26  C   UNL     1       4.931   3.058  22.672  0.00  0.00    +0.466 C 
ATOM     27  O   UNL     1       4.839   4.219  23.523  0.00  0.00    -0.453 OA
ATOM     28  C   UNL     1       6.157   4.543  23.647  0.00  0.00    +0.168 A 
ATOM     29  C   UNL     1       6.647   5.652  24.296  0.00  0.00    +0.051 A 
ATOM     30  C   UNL     1       8.032   5.824  24.328  0.00  0.00    +0.025 A 
ATOM     31  C   UNL     1       8.883   4.893  23.700  0.00  0.00    +0.066 A 
ATOM     32 CL   UNL     1      10.589   5.176  23.768  0.00  0.00    -0.081 Cl
ENDBRANCH  21  23
ENDBRANCH   7  21
TORSDOF 5
ENDMDL
MODEL 9
REMARK VINA RESULT:      -7.7      3.643      9.124
REMARK  Name = 
REMARK  5 active torsions:
REMARK  status: ('A' for Active; 'I' for Inactive)
REMARK    1  A    between atoms: N_1  and  S_2
REMARK    2  A    between atoms: S_2  and  C_5
REMARK    3  A    between atoms: C_7  and  N_8
REMARK    4  A    between atoms: C_11  and  N_12
REMARK    5  A    between atoms: N_12  and  C_13
REMARK                            x       y       z     vdW  Elec       q    Type
REMARK                         _______ _______ _______ _____ _____    ______ ____
ROOT
ATOM      1  N   UNL     1       7.748   0.636  24.862  0.00  0.00    -0.284 N 
ATOM      2  H   UNL     1       6.923   0.459  25.419  0.00  0.00    +0.155 HD
ATOM      3  C   UNL     1       8.397  -0.582  24.636  0.00  0.00    +0.221 A 
ATOM      4  N   UNL     1       9.562  -0.629  23.972  0.00  0.00    -0.223 NA
ATOM      5  C   UNL     1      10.093  -1.841  23.749  0.00  0.00    +0.118 A 
ATOM      6  C   UNL     1       9.505  -3.007  24.164  0.00  0.00    +0.063 A 
ATOM      7  C   UNL     1       8.300  -2.875  24.819  0.00  0.00    +0.128 A 
ATOM      8  N   UNL     1       7.778  -1.668  25.112  0.00  0.00    -0.199 NA
ENDROOT
BRANCH   1  13
ATOM      9  C   UNL     1       8.294   4.076  23.513  0.00  0.00    +0.107 A 
ATOM     10  C   UNL     1       7.406   4.099  22.441  0.00  0.00    +0.028 A 
ATOM     11  C   UNL     1       6.645   2.962  22.174  0.00  0.00    +0.004 A 
ATOM     12  C   UNL     1       6.782   1.817  22.973  0.00  0.00    +0.023 A 
ATOM     13  C   UNL     1       7.687   1.780  24.047  0.00  0.00    +0.035 A 
ATOM     14  C   UNL     1       8.433   2.932  24.304  0.00  0.00    +0.051 A 
BRANCH   9  15
ATOM     15  S   UNL     1       9.312   5.471  23.880  0.00  0.00    +0.056 S 
ATOM     16  O   UNL     1       8.944   6.574  23.020  0.00  0.00    -0.153 OA
ATOM     17  O   UNL     1       9.425   5.617  25.310  0.00  0.00    -0.153 OA
BRANCH  15  18
ATOM     18  N   UNL     1      10.817   4.955  23.346  0.00  0.00    -0.204 NA
ATOM     19  H   UNL     1      10.814   3.946  23.192  0.00  0.00    +0.144 HD
ATOM     20  H   UNL     1      11.100   5.503  22.534  0.00  0.00    +0.144 HD
ENDBRANCH  15  18
ENDBRANCH   9  15
ENDBRANCH   1  13
BRANCH   7  21
ATOM     21  N   UNL     1       7.582  -4.050  25.119  0.00  0.00    -0.295 N 
ATOM     22  H   UNL     1       7.654  -4.300  26.101  0.00  0.00    +0.154 HD
BRANCH  21  23
ATOM     23  C   UNL     1       6.373  -4.458  24.517  0.00  0.00    +0.097 A 
ATOM     24  C   UNL     1       6.323  -5.056  23.259  0.00  0.00    +0.189 A 
ATOM     25  O   UNL     1       7.391  -5.365  22.464  0.00  0.00    -0.451 OA
ATOM     26  C   UNL     1       6.733  -5.746  21.248  0.00  0.00    +0.466 C 
ATOM     27  O   UNL     1       5.320  -5.974  21.428  0.00  0.00    -0.453 OA
ATOM     28  C   UNL     1       5.139  -5.449  22.672  0.00  0.00    +0.168 A 
ATOM     29  C   UNL     1       3.930  -5.320  23.314  0.00  0.00    +0.051 A 
ATOM     30  C   UNL     1       3.932  -4.762  24.594  0.00  0.00    +0.025 A 
ATOM     31  C   UNL     1       5.139  -4.338  25.186  0.00  0.00    +0.066 A 
ATOM     32 CL   UNL     1       5.066  -3.642  26.770  0.00  0.00    -0.081 Cl
ENDBRANCH  21  23
ENDBRANCH   7  21
TORSDOF 5
ENDMDL
