MODEL 1
REMARK VINA RESULT:      -6.8      0.000      0.000
REMARK  Name = 
REMARK  8 active torsions:
REMARK  status: ('A' for Active; 'I' for Inactive)
REMARK    1  A    between atoms: O_1  and  C_2
REMARK    2  A    between atoms: C_5  and  C_6
REMARK    3  A    between atoms: C_6  and  C_7
REMARK    4  A    between atoms: C_7  and  C_8
REMARK    5  A    between atoms: C_8  and  C_10
REMARK    6  A    between atoms: C_11  and  O_12
REMARK    7  A    between atoms: C_14  and  O_15
REMARK    8  A    between atoms: C_17  and  O_18
REMARK                            x       y       z     vdW  Elec       q    Type
REMARK                         _______ _______ _______ _____ _____    ______ ____
ROOT
ATOM      1  C   UNL     1       8.283  -2.707  24.407  0.00  0.00    +0.170 C 
ATOM      2  O   UNL     1       7.633  -2.232  25.343  0.00  0.00    -0.292 OA
ENDROOT
BRANCH   1   3
ATOM      3  C   UNL     1       7.578  -3.646  23.478  0.00  0.00    +0.100 A 
ATOM      4  C   UNL     1       7.879  -5.014  23.375  0.00  0.00    +0.134 A 
ATOM      5  C   UNL     1       7.173  -5.838  22.492  0.00  0.00    +0.091 A 
ATOM      6  C   UNL     1       6.160  -5.301  21.706  0.00  0.00    +0.124 A 
ATOM      7  C   UNL     1       5.842  -3.953  21.780  0.00  0.00    +0.091 A 
ATOM      8  C   UNL     1       6.557  -3.132  22.654  0.00  0.00    +0.134 A 
BRANCH   4   9
ATOM      9  O   UNL     1       8.884  -5.579  24.106  0.00  0.00    -0.506 OA
ATOM     10  H   UNL     1       9.703  -5.065  23.990  0.00  0.00    +0.292 HD
ENDBRANCH   4   9
BRANCH   6  11
ATOM     11  O   UNL     1       5.503  -6.146  20.864  0.00  0.00    -0.507 OA
ATOM     12  H   UNL     1       5.329  -5.682  20.028  0.00  0.00    +0.292 HD
ENDBRANCH   6  11
BRANCH   8  13
ATOM     13  O   UNL     1       6.183  -1.812  22.654  0.00  0.00    -0.506 OA
ATOM     14  H   UNL     1       5.474  -1.700  23.328  0.00  0.00    +0.292 HD
ENDBRANCH   8  13
ENDBRANCH   1   3
BRANCH   1  15
ATOM     15  C   UNL     1       9.769  -2.441  24.239  0.00  0.00    +0.084 C 
BRANCH  15  16
ATOM     16  C   UNL     1      10.096  -1.839  22.873  0.00  0.00    +0.043 C 
BRANCH  16  20
ATOM     17  C   UNL     1      10.292   2.459  23.028  0.00  0.00    +0.117 A 
ATOM     18  C   UNL     1       9.831   1.832  21.877  0.00  0.00    +0.045 A 
ATOM     19  C   UNL     1       9.761   0.440  21.827  0.00  0.00    +0.007 A 
ATOM     20  C   UNL     1      10.157  -0.330  22.930  0.00  0.00    -0.047 A 
ATOM     21  C   UNL     1      10.593   0.322  24.093  0.00  0.00    +0.007 A 
ATOM     22  C   UNL     1      10.665   1.716  24.143  0.00  0.00    +0.045 A 
BRANCH  17  23
ATOM     23  O   UNL     1      10.370   3.821  23.022  0.00  0.00    -0.507 OA
ATOM     24  H   UNL     1      11.114   4.084  22.455  0.00  0.00    +0.292 HD
ENDBRANCH  17  23
ENDBRANCH  16  20
ENDBRANCH  15  16
ENDBRANCH   1  15
TORSDOF 8
ENDMDL
MODEL 2
REMARK VINA RESULT:      -6.8      0.073      1.878
REMARK  Name = 
REMARK  8 active torsions:
REMARK  status: ('A' for Active; 'I' for Inactive)
REMARK    1  A    between atoms: O_1  and  C_2
REMARK    2  A    between atoms: C_5  and  C_6
REMARK    3  A    between atoms: C_6  and  C_7
REMARK    4  A    between atoms: C_7  and  C_8
REMARK    5  A    between atoms: C_8  and  C_10
REMARK    6  A    between atoms: C_11  and  O_12
REMARK    7  A    between atoms: C_14  and  O_15
REMARK    8  A    between atoms: C_17  and  O_18
REMARK                            x       y       z     vdW  Elec       q    Type
REMARK                         _______ _______ _______ _____ _____    ______ ____
ROOT
ATOM      1  C   UNL     1       8.338  -2.690  24.347  0.00  0.00    +0.170 C 
ATOM      2  O   UNL     1       7.738  -2.216  25.317  0.00  0.00    -0.292 OA
ENDROOT
BRANCH   1   3
ATOM      3  C   UNL     1       7.564  -3.571  23.415  0.00  0.00    +0.100 A 
ATOM      4  C   UNL     1       6.523  -3.112  22.592  0.00  0.00    +0.134 A 
ATOM      5  C   UNL     1       5.847  -3.988  21.736  0.00  0.00    +0.091 A 
ATOM      6  C   UNL     1       6.209  -5.330  21.694  0.00  0.00    +0.124 A 
ATOM      7  C   UNL     1       7.229  -5.816  22.498  0.00  0.00    +0.091 A 
ATOM      8  C   UNL     1       7.893  -4.940  23.359  0.00  0.00    +0.134 A 
BRANCH   4   9
ATOM      9  O   UNL     1       6.115  -1.809  22.620  0.00  0.00    -0.506 OA
ATOM     10  H   UNL     1       6.134  -1.479  23.536  0.00  0.00    +0.292 HD
ENDBRANCH   4   9
BRANCH   6  11
ATOM     11  O   UNL     1       5.521  -6.140  20.843  0.00  0.00    -0.507 OA
ATOM     12  H   UNL     1       6.061  -6.924  20.651  0.00  0.00    +0.292 HD
ENDBRANCH   6  11
BRANCH   8  13
ATOM     13  O   UNL     1       8.880  -5.508  24.125  0.00  0.00    -0.506 OA
ATOM     14  H   UNL     1       8.662  -5.341  25.070  0.00  0.00    +0.292 HD
ENDBRANCH   8  13
ENDBRANCH   1   3
BRANCH   1  15
ATOM     15  C   UNL     1       9.827  -2.482  24.139  0.00  0.00    +0.084 C 
BRANCH  15  16
ATOM     16  C   UNL     1      10.137  -1.845  22.785  0.00  0.00    +0.043 C 
BRANCH  16  20
ATOM     17  C   UNL     1      10.256   2.452  23.034  0.00  0.00    +0.117 A 
ATOM     18  C   UNL     1       9.783   1.842  21.879  0.00  0.00    +0.045 A 
ATOM     19  C   UNL     1       9.738   0.450  21.798  0.00  0.00    +0.007 A 
ATOM     20  C   UNL     1      10.171  -0.337  22.875  0.00  0.00    -0.047 A 
ATOM     21  C   UNL     1      10.619   0.297  24.044  0.00  0.00    +0.007 A 
ATOM     22  C   UNL     1      10.666   1.691  24.123  0.00  0.00    +0.045 A 
BRANCH  17  23
ATOM     23  O   UNL     1      10.309   3.815  23.058  0.00  0.00    -0.507 OA
ATOM     24  H   UNL     1      10.279   4.140  22.143  0.00  0.00    +0.292 HD
ENDBRANCH  17  23
ENDBRANCH  16  20
ENDBRANCH  15  16
ENDBRANCH   1  15
TORSDOF 8
ENDMDL
MODEL 3
REMARK VINA RESULT:      -6.7      1.518      6.334
REMARK  Name = 
REMARK  8 active torsions:
REMARK  status: ('A' for Active; 'I' for Inactive)
REMARK    1  A    between atoms: O_1  and  C_2
REMARK    2  A    between atoms: C_5  and  C_6
REMARK    3  A    between atoms: C_6  and  C_7
REMARK    4  A    between atoms: C_7  and  C_8
REMARK    5  A    between atoms: C_8  and  C_10
REMARK    6  A    between atoms: C_11  and  O_12
REMARK    7  A    between atoms: C_14  and  O_15
REMARK    8  A    between atoms: C_17  and  O_18
REMARK                            x       y       z     vdW  Elec       q    Type
REMARK                         _______ _______ _______ _____ _____    ______ ____
ROOT
ATOM      1  C   UNL     1       9.452  -2.394  24.418  0.00  0.00    +0.170 C 
ATOM      2  O   UNL     1      10.201  -3.329  24.118  0.00  0.00    -0.292 OA
ENDROOT
BRANCH   1   3
ATOM      3  C   UNL     1       9.681  -1.077  23.744  0.00  0.00    +0.100 A 
ATOM      4  C   UNL     1       9.960   0.115  24.432  0.00  0.00    +0.134 A 
ATOM      5  C   UNL     1      10.174   1.310  23.738  0.00  0.00    +0.091 A 
ATOM      6  C   UNL     1      10.113   1.324  22.350  0.00  0.00    +0.124 A 
ATOM      7  C   UNL     1       9.833   0.166  21.640  0.00  0.00    +0.091 A 
ATOM      8  C   UNL     1       9.609  -1.023  22.337  0.00  0.00    +0.134 A 
BRANCH   4   9
ATOM      9  O   UNL     1      10.003   0.155  25.797  0.00  0.00    -0.506 OA
ATOM     10  H   UNL     1      10.370  -0.680  26.138  0.00  0.00    +0.292 HD
ENDBRANCH   4   9
BRANCH   6  11
ATOM     11  O   UNL     1      10.330   2.513  21.723  0.00  0.00    -0.507 OA
ATOM     12  H   UNL     1       9.542   2.739  21.200  0.00  0.00    +0.292 HD
ENDBRANCH   6  11
BRANCH   8  13
ATOM     13  O   UNL     1       9.329  -2.115  21.556  0.00  0.00    -0.506 OA
ATOM     14  H   UNL     1       9.491  -2.922  22.097  0.00  0.00    +0.292 HD
ENDBRANCH   8  13
ENDBRANCH   1   3
BRANCH   1  15
ATOM     15  C   UNL     1       8.393  -2.523  25.499  0.00  0.00    +0.084 C 
BRANCH  15  16
ATOM     16  C   UNL     1       6.984  -2.288  24.955  0.00  0.00    +0.043 C 
BRANCH  16  20
ATOM     17  C   UNL     1       5.898  -5.223  21.998  0.00  0.00    +0.117 A 
ATOM     18  C   UNL     1       5.867  -3.873  21.672  0.00  0.00    +0.045 A 
ATOM     19  C   UNL     1       6.224  -2.921  22.627  0.00  0.00    +0.007 A 
ATOM     20  C   UNL     1       6.610  -3.319  23.915  0.00  0.00    -0.047 A 
ATOM     21  C   UNL     1       6.663  -4.687  24.217  0.00  0.00    +0.007 A 
ATOM     22  C   UNL     1       6.303  -5.641  23.261  0.00  0.00    +0.045 A 
BRANCH  17  23
ATOM     23  O   UNL     1       5.514  -6.118  21.042  0.00  0.00    -0.507 OA
ATOM     24  H   UNL     1       5.705  -7.013  21.366  0.00  0.00    +0.292 HD
ENDBRANCH  17  23
ENDBRANCH  16  20
ENDBRANCH  15  16
ENDBRANCH   1  15
TORSDOF 8
ENDMDL
MODEL 4
REMARK VINA RESULT:      -6.6      1.549      6.382
REMARK  Name = 
REMARK  8 active torsions:
REMARK  status: ('A' for Active; 'I' for Inactive)
REMARK    1  A    between atoms: O_1  and  C_2
REMARK    2  A    between atoms: C_5  and  C_6
REMARK    3  A    between atoms: C_6  and  C_7
REMARK    4  A    between atoms: C_7  and  C_8
REMARK    5  A    between atoms: C_8  and  C_10
REMARK    6  A    between atoms: C_11  and  O_12
REMARK    7  A    between atoms: C_14  and  O_15
REMARK    8  A    between atoms: C_17  and  O_18
REMARK                            x       y       z     vdW  Elec       q    Type
REMARK                         _______ _______ _______ _____ _____    ______ ____
ROOT
ATOM      1  C   UNL     1       9.410  -2.401  24.423  0.00  0.00    +0.170 C 
ATOM      2  O   UNL     1      10.134  -3.367  24.163  0.00  0.00    -0.292 OA
ENDROOT
BRANCH   1   3
ATOM      3  C   UNL     1       9.644  -1.133  23.660  0.00  0.00    +0.100 A 
ATOM      4  C   UNL     1       9.569  -1.039  22.261  0.00  0.00    +0.134 A 
ATOM      5  C   UNL     1       9.789   0.181  21.613  0.00  0.00    +0.091 A 
ATOM      6  C   UNL     1      10.084   1.316  22.358  0.00  0.00    +0.124 A 
ATOM      7  C   UNL     1      10.172   1.255  23.741  0.00  0.00    +0.091 A 
ATOM      8  C   UNL     1       9.962   0.033  24.383  0.00  0.00    +0.134 A 
BRANCH   4   9
ATOM      9  O   UNL     1       9.309  -2.133  21.487  0.00  0.00    -0.506 OA
ATOM     10  H   UNL     1       9.108  -2.897  22.056  0.00  0.00    +0.292 HD
ENDBRANCH   4   9
BRANCH   6  11
ATOM     11  O   UNL     1      10.289   2.478  21.678  0.00  0.00    -0.507 OA
ATOM     12  H   UNL     1      10.387   3.202  22.319  0.00  0.00    +0.292 HD
ENDBRANCH   6  11
BRANCH   8  13
ATOM     13  O   UNL     1      10.079   0.064  25.750  0.00  0.00    -0.506 OA
ATOM     14  H   UNL     1       9.627  -0.734  26.108  0.00  0.00    +0.292 HD
ENDBRANCH   8  13
ENDBRANCH   1   3
BRANCH   1  15
ATOM     15  C   UNL     1       8.378  -2.442  25.536  0.00  0.00    +0.084 C 
BRANCH  15  16
ATOM     16  C   UNL     1       6.962  -2.194  25.018  0.00  0.00    +0.043 C 
BRANCH  16  20
ATOM     17  C   UNL     1       5.807  -5.170  22.129  0.00  0.00    +0.117 A 
ATOM     18  C   UNL     1       6.168  -5.560  23.412  0.00  0.00    +0.045 A 
ATOM     19  C   UNL     1       6.538  -4.597  24.352  0.00  0.00    +0.007 A 
ATOM     20  C   UNL     1       6.549  -3.238  24.007  0.00  0.00    -0.047 A 
ATOM     21  C   UNL     1       6.153  -2.861  22.715  0.00  0.00    +0.007 A 
ATOM     22  C   UNL     1       5.785  -3.826  21.774  0.00  0.00    +0.045 A 
BRANCH  17  23
ATOM     23  O   UNL     1       5.480  -6.148  21.236  0.00  0.00    -0.507 OA
ATOM     24  H   UNL     1       5.883  -6.981  21.531  0.00  0.00    +0.292 HD
ENDBRANCH  17  23
ENDBRANCH  16  20
ENDBRANCH  15  16
ENDBRANCH   1  15
TORSDOF 8
ENDMDL
MODEL 5
REMARK VINA RESULT:      -6.6      2.131      7.241
REMARK  Name = 
REMARK  8 active torsions:
REMARK  status: ('A' for Active; 'I' for Inactive)
REMARK    1  A    between atoms: O_1  and  C_2
REMARK    2  A    between atoms: C_5  and  C_6
REMARK    3  A    between atoms: C_6  and  C_7
REMARK    4  A    between atoms: C_7  and  C_8
REMARK    5  A    between atoms: C_8  and  C_10
REMARK    6  A    between atoms: C_11  and  O_12
REMARK    7  A    between atoms: C_14  and  O_15
REMARK    8  A    between atoms: C_17  and  O_18
REMARK                            x       y       z     vdW  Elec       q    Type
REMARK                         _______ _______ _______ _____ _____    ______ ____
ROOT
ATOM      1  C   UNL     1       9.342  -2.174  23.920  0.00  0.00    +0.170 C 
ATOM      2  O   UNL     1      10.265  -2.981  23.771  0.00  0.00    -0.292 OA
ENDROOT
BRANCH   1   3
ATOM      3  C   UNL     1       9.624  -0.733  23.626  0.00  0.00    +0.100 A 
ATOM      4  C   UNL     1       9.813   0.244  24.616  0.00  0.00    +0.134 A 
ATOM      5  C   UNL     1      10.083   1.572  24.270  0.00  0.00    +0.091 A 
ATOM      6  C   UNL     1      10.168   1.934  22.931  0.00  0.00    +0.124 A 
ATOM      7  C   UNL     1       9.979   0.995  21.928  0.00  0.00    +0.091 A 
ATOM      8  C   UNL     1       9.699  -0.328  22.278  0.00  0.00    +0.134 A 
BRANCH   4   9
ATOM      9  O   UNL     1       9.711  -0.060  25.944  0.00  0.00    -0.506 OA
ATOM     10  H   UNL     1      10.314  -0.794  26.159  0.00  0.00    +0.292 HD
ENDBRANCH   4   9
BRANCH   6  11
ATOM     11  O   UNL     1      10.434   3.239  22.649  0.00  0.00    -0.507 OA
ATOM     12  H   UNL     1      10.923   3.627  23.394  0.00  0.00    +0.292 HD
ENDBRANCH   6  11
BRANCH   8  13
ATOM     13  O   UNL     1       9.517  -1.186  21.223  0.00  0.00    -0.506 OA
ATOM     14  H   UNL     1       8.549  -1.263  21.061  0.00  0.00    +0.292 HD
ENDBRANCH   8  13
ENDBRANCH   1   3
BRANCH   1  15
ATOM     15  C   UNL     1       7.990  -2.589  24.475  0.00  0.00    +0.084 C 
BRANCH  15  16
ATOM     16  C   UNL     1       8.069  -3.892  25.270  0.00  0.00    +0.043 C 
BRANCH  16  20
ATOM     17  C   UNL     1       4.917  -6.619  24.190  0.00  0.00    +0.117 A 
ATOM     18  C   UNL     1       5.157  -6.339  25.530  0.00  0.00    +0.045 A 
ATOM     19  C   UNL     1       6.174  -5.451  25.882  0.00  0.00    +0.007 A 
ATOM     20  C   UNL     1       6.958  -4.843  24.891  0.00  0.00    -0.047 A 
ATOM     21  C   UNL     1       6.682  -5.115  23.543  0.00  0.00    +0.007 A 
ATOM     22  C   UNL     1       5.665  -6.006  23.191  0.00  0.00    +0.045 A 
BRANCH  17  23
ATOM     23  O   UNL     1       3.932  -7.514  23.894  0.00  0.00    -0.507 OA
ATOM     24  H   UNL     1       3.598  -7.320  23.003  0.00  0.00    +0.292 HD
ENDBRANCH  17  23
ENDBRANCH  16  20
ENDBRANCH  15  16
ENDBRANCH   1  15
TORSDOF 8
ENDMDL
MODEL 6
REMARK VINA RESULT:      -6.6      2.011      2.832
REMARK  Name = 
REMARK  8 active torsions:
REMARK  status: ('A' for Active; 'I' for Inactive)
REMARK    1  A    between atoms: O_1  and  C_2
REMARK    2  A    between atoms: C_5  and  C_6
REMARK    3  A    between atoms: C_6  and  C_7
REMARK    4  A    between atoms: C_7  and  C_8
REMARK    5  A    between atoms: C_8  and  C_10
REMARK    6  A    between atoms: C_11  and  O_12
REMARK    7  A    between atoms: C_14  and  O_15
REMARK    8  A    between atoms: C_17  and  O_18
REMARK                            x       y       z     vdW  Elec       q    Type
REMARK                         _______ _______ _______ _____ _____    ______ ____
ROOT
ATOM      1  C   UNL     1       9.104  -4.055  24.808  0.00  0.00    +0.170 C 
ATOM      2  O   UNL     1      10.117  -4.760  24.859  0.00  0.00    -0.292 OA
ENDROOT
BRANCH   1   3
ATOM      3  C   UNL     1       7.776  -4.745  24.835  0.00  0.00    +0.100 A 
ATOM      4  C   UNL     1       6.994  -4.978  23.692  0.00  0.00    +0.134 A 
ATOM      5  C   UNL     1       5.765  -5.638  23.787  0.00  0.00    +0.091 A 
ATOM      6  C   UNL     1       5.307  -6.072  25.025  0.00  0.00    +0.124 A 
ATOM      7  C   UNL     1       6.052  -5.852  26.174  0.00  0.00    +0.091 A 
ATOM      8  C   UNL     1       7.273  -5.183  26.076  0.00  0.00    +0.134 A 
BRANCH   4   9
ATOM      9  O   UNL     1       7.390  -4.544  22.459  0.00  0.00    -0.506 OA
ATOM     10  H   UNL     1       8.347  -4.686  22.353  0.00  0.00    +0.292 HD
ENDBRANCH   4   9
BRANCH   6  11
ATOM     11  O   UNL     1       4.105  -6.710  25.062  0.00  0.00    -0.507 OA
ATOM     12  H   UNL     1       3.653  -6.479  25.891  0.00  0.00    +0.292 HD
ENDBRANCH   6  11
BRANCH   8  13
ATOM     13  O   UNL     1       7.937  -5.000  27.263  0.00  0.00    -0.506 OA
ATOM     14  H   UNL     1       7.262  -4.908  27.974  0.00  0.00    +0.292 HD
ENDBRANCH   8  13
ENDBRANCH   1   3
BRANCH   1  15
ATOM     15  C   UNL     1       9.178  -2.549  24.627  0.00  0.00    +0.084 C 
BRANCH  15  16
ATOM     16  C   UNL     1      10.000  -2.157  23.400  0.00  0.00    +0.043 C 
BRANCH  16  20
ATOM     17  C   UNL     1      10.249   2.122  22.981  0.00  0.00    +0.117 A 
ATOM     18  C   UNL     1      10.567   1.529  24.196  0.00  0.00    +0.045 A 
ATOM     19  C   UNL     1      10.493   0.142  24.332  0.00  0.00    +0.007 A 
ATOM     20  C   UNL     1      10.095  -0.656  23.250  0.00  0.00    -0.047 A 
ATOM     21  C   UNL     1       9.805  -0.042  22.023  0.00  0.00    +0.007 A 
ATOM     22  C   UNL     1       9.877   1.347  21.887  0.00  0.00    +0.045 A 
BRANCH  17  23
ATOM     23  O   UNL     1      10.308   3.482  22.901  0.00  0.00    -0.507 OA
ATOM     24  H   UNL     1       9.875   3.855  23.687  0.00  0.00    +0.292 HD
ENDBRANCH  17  23
ENDBRANCH  16  20
ENDBRANCH  15  16
ENDBRANCH   1  15
TORSDOF 8
ENDMDL
MODEL 7
REMARK VINA RESULT:      -6.6      2.054      2.350
REMARK  Name = 
REMARK  8 active torsions:
REMARK  status: ('A' for Active; 'I' for Inactive)
REMARK    1  A    between atoms: O_1  and  C_2
REMARK    2  A    between atoms: C_5  and  C_6
REMARK    3  A    between atoms: C_6  and  C_7
REMARK    4  A    between atoms: C_7  and  C_8
REMARK    5  A    between atoms: C_8  and  C_10
REMARK    6  A    between atoms: C_11  and  O_12
REMARK    7  A    between atoms: C_14  and  O_15
REMARK    8  A    between atoms: C_17  and  O_18
REMARK                            x       y       z     vdW  Elec       q    Type
REMARK                         _______ _______ _______ _____ _____    ______ ____
ROOT
ATOM      1  C   UNL     1       9.162  -4.104  24.857  0.00  0.00    +0.170 C 
ATOM      2  O   UNL     1      10.167  -4.821  24.816  0.00  0.00    -0.292 OA
ENDROOT
BRANCH   1   3
ATOM      3  C   UNL     1       7.832  -4.780  24.984  0.00  0.00    +0.100 A 
ATOM      4  C   UNL     1       7.341  -5.317  26.185  0.00  0.00    +0.134 A 
ATOM      5  C   UNL     1       6.083  -5.927  26.236  0.00  0.00    +0.091 A 
ATOM      6  C   UNL     1       5.305  -6.004  25.087  0.00  0.00    +0.124 A 
ATOM      7  C   UNL     1       5.764  -5.489  23.883  0.00  0.00    +0.091 A 
ATOM      8  C   UNL     1       7.025  -4.891  23.835  0.00  0.00    +0.134 A 
BRANCH   4   9
ATOM      9  O   UNL     1       8.081  -5.289  27.333  0.00  0.00    -0.506 OA
ATOM     10  H   UNL     1       7.619  -4.762  28.008  0.00  0.00    +0.292 HD
ENDBRANCH   4   9
BRANCH   6  11
ATOM     11  O   UNL     1       4.089  -6.606  25.190  0.00  0.00    -0.507 OA
ATOM     12  H   UNL     1       3.488  -6.016  25.674  0.00  0.00    +0.292 HD
ENDBRANCH   6  11
BRANCH   8  13
ATOM     13  O   UNL     1       7.401  -4.419  22.603  0.00  0.00    -0.506 OA
ATOM     14  H   UNL     1       7.914  -3.590  22.741  0.00  0.00    +0.292 HD
ENDBRANCH   8  13
ENDBRANCH   1   3
BRANCH   1  15
ATOM     15  C   UNL     1       9.239  -2.597  24.690  0.00  0.00    +0.084 C 
BRANCH  15  16
ATOM     16  C   UNL     1      10.055  -2.195  23.462  0.00  0.00    +0.043 C 
BRANCH  16  20
ATOM     17  C   UNL     1      10.254   2.082  23.003  0.00  0.00    +0.117 A 
ATOM     18  C   UNL     1       9.897   1.289  21.920  0.00  0.00    +0.045 A 
ATOM     19  C   UNL     1       9.826  -0.097  22.068  0.00  0.00    +0.007 A 
ATOM     20  C   UNL     1      10.117  -0.693  23.303  0.00  0.00    -0.047 A 
ATOM     21  C   UNL     1      10.448   0.126  24.393  0.00  0.00    +0.007 A 
ATOM     22  C   UNL     1      10.521   1.513  24.244  0.00  0.00    +0.045 A 
BRANCH  17  23
ATOM     23  O   UNL     1      10.338   3.429  22.805  0.00  0.00    -0.507 OA
ATOM     24  H   UNL     1      10.885   3.590  22.019  0.00  0.00    +0.292 HD
ENDBRANCH  17  23
ENDBRANCH  16  20
ENDBRANCH  15  16
ENDBRANCH   1  15
TORSDOF 8
ENDMDL
MODEL 8
REMARK VINA RESULT:      -6.5      2.754      3.692
REMARK  Name = 
REMARK  8 active torsions:
REMARK  status: ('A' for Active; 'I' for Inactive)
REMARK    1  A    between atoms: O_1  and  C_2
REMARK    2  A    between atoms: C_5  and  C_6
REMARK    3  A    between atoms: C_6  and  C_7
REMARK    4  A    between atoms: C_7  and  C_8
REMARK    5  A    between atoms: C_8  and  C_10
REMARK    6  A    between atoms: C_11  and  O_12
REMARK    7  A    between atoms: C_14  and  O_15
REMARK    8  A    between atoms: C_17  and  O_18
REMARK                            x       y       z     vdW  Elec       q    Type
REMARK                         _______ _______ _______ _____ _____    ______ ____
ROOT
ATOM      1  C   UNL     1       8.117  -4.783  24.282  0.00  0.00    +0.170 C 
ATOM      2  O   UNL     1       8.660  -5.656  23.598  0.00  0.00    -0.292 OA
ENDROOT
BRANCH   1   3
ATOM      3  C   UNL     1       7.301  -5.228  25.456  0.00  0.00    +0.100 A 
ATOM      4  C   UNL     1       7.772  -5.228  26.779  0.00  0.00    +0.134 A 
ATOM      5  C   UNL     1       6.953  -5.648  27.831  0.00  0.00    +0.091 A 
ATOM      6  C   UNL     1       5.655  -6.070  27.571  0.00  0.00    +0.124 A 
ATOM      7  C   UNL     1       5.161  -6.089  26.275  0.00  0.00    +0.091 A 
ATOM      8  C   UNL     1       5.986  -5.679  25.226  0.00  0.00    +0.134 A 
BRANCH   4   9
ATOM      9  O   UNL     1       9.049  -4.848  27.079  0.00  0.00    -0.506 OA
ATOM     10  H   UNL     1       9.277  -4.042  26.582  0.00  0.00    +0.292 HD
ENDBRANCH   4   9
BRANCH   6  11
ATOM     11  O   UNL     1       4.898  -6.468  28.631  0.00  0.00    -0.507 OA
ATOM     12  H   UNL     1       5.440  -6.423  29.436  0.00  0.00    +0.292 HD
ENDBRANCH   6  11
BRANCH   8  13
ATOM     13  O   UNL     1       5.419  -5.740  23.978  0.00  0.00    -0.506 OA
ATOM     14  H   UNL     1       6.139  -5.634  23.315  0.00  0.00    +0.292 HD
ENDBRANCH   8  13
ENDBRANCH   1   3
BRANCH   1  15
ATOM     15  C   UNL     1       8.178  -3.312  23.910  0.00  0.00    +0.084 C 
BRANCH  15  16
ATOM     16  C   UNL     1       9.551  -2.703  24.195  0.00  0.00    +0.043 C 
BRANCH  16  20
ATOM     17  C   UNL     1      10.036   1.079  22.196  0.00  0.00    +0.117 A 
ATOM     18  C   UNL     1      10.397   0.955  23.532  0.00  0.00    +0.045 A 
ATOM     19  C   UNL     1      10.246  -0.271  24.180  0.00  0.00    +0.007 A 
ATOM     20  C   UNL     1       9.728  -1.378  23.491  0.00  0.00    -0.047 A 
ATOM     21  C   UNL     1       9.397  -1.241  22.135  0.00  0.00    +0.007 A 
ATOM     22  C   UNL     1       9.547  -0.012  21.487  0.00  0.00    +0.045 A 
BRANCH  17  23
ATOM     23  O   UNL     1      10.175   2.303  21.611  0.00  0.00    -0.507 OA
ATOM     24  H   UNL     1       9.808   2.974  22.210  0.00  0.00    +0.292 HD
ENDBRANCH  17  23
ENDBRANCH  16  20
ENDBRANCH  15  16
ENDBRANCH   1  15
TORSDOF 8
ENDMDL
MODEL 9
REMARK VINA RESULT:      -6.4      1.445      2.438
REMARK  Name = 
REMARK  8 active torsions:
REMARK  status: ('A' for Active; 'I' for Inactive)
REMARK    1  A    between atoms: O_1  and  C_2
REMARK    2  A    between atoms: C_5  and  C_6
REMARK    3  A    between atoms: C_6  and  C_7
REMARK    4  A    between atoms: C_7  and  C_8
REMARK    5  A    between atoms: C_8  and  C_10
REMARK    6  A    between atoms: C_11  and  O_12
REMARK    7  A    between atoms: C_14  and  O_15
REMARK    8  A    between atoms: C_17  and  O_18
REMARK                            x       y       z     vdW  Elec       q    Type
REMARK                         _______ _______ _______ _____ _____    ______ ____
ROOT
ATOM      1  C   UNL     1       7.172  -2.437  22.937  0.00  0.00    +0.170 C 
ATOM      2  O   UNL     1       6.614  -1.412  23.344  0.00  0.00    -0.292 OA
ENDROOT
BRANCH   1   3
ATOM      3  C   UNL     1       6.479  -3.744  23.170  0.00  0.00    +0.100 A 
ATOM      4  C   UNL     1       5.819  -4.467  22.164  0.00  0.00    +0.134 A 
ATOM      5  C   UNL     1       5.200  -5.688  22.448  0.00  0.00    +0.091 A 
ATOM      6  C   UNL     1       5.236  -6.197  23.741  0.00  0.00    +0.124 A 
ATOM      7  C   UNL     1       5.874  -5.504  24.759  0.00  0.00    +0.091 A 
ATOM      8  C   UNL     1       6.481  -4.280  24.473  0.00  0.00    +0.134 A 
BRANCH   4   9
ATOM      9  O   UNL     1       5.734  -3.993  20.886  0.00  0.00    -0.506 OA
ATOM     10  H   UNL     1       5.071  -3.281  20.844  0.00  0.00    +0.292 HD
ENDBRANCH   4   9
BRANCH   6  11
ATOM     11  O   UNL     1       4.619  -7.390  23.964  0.00  0.00    -0.507 OA
ATOM     12  H   UNL     1       5.297  -8.080  24.058  0.00  0.00    +0.292 HD
ENDBRANCH   6  11
BRANCH   8  13
ATOM     13  O   UNL     1       7.079  -3.660  25.541  0.00  0.00    -0.506 OA
ATOM     14  H   UNL     1       7.569  -4.345  26.051  0.00  0.00    +0.292 HD
ENDBRANCH   8  13
ENDBRANCH   1   3
BRANCH   1  15
ATOM     15  C   UNL     1       8.554  -2.408  22.309  0.00  0.00    +0.084 C 
BRANCH  15  16
ATOM     16  C   UNL     1       9.629  -1.966  23.303  0.00  0.00    +0.043 C 
BRANCH  16  20
ATOM     17  C   UNL     1      10.362   2.269  23.048  0.00  0.00    +0.117 A 
ATOM     18  C   UNL     1      10.538   1.611  24.259  0.00  0.00    +0.045 A 
ATOM     19  C   UNL     1      10.307   0.238  24.342  0.00  0.00    +0.007 A 
ATOM     20  C   UNL     1       9.894  -0.481  23.211  0.00  0.00    -0.047 A 
ATOM     21  C   UNL     1       9.749   0.195  21.991  0.00  0.00    +0.007 A 
ATOM     22  C   UNL     1       9.979   1.571  21.908  0.00  0.00    +0.045 A 
BRANCH  17  23
ATOM     23  O   UNL     1      10.573   3.617  23.020  0.00  0.00    -0.507 OA
ATOM     24  H   UNL     1      10.352   3.981  23.893  0.00  0.00    +0.292 HD
ENDBRANCH  17  23
ENDBRANCH  16  20
ENDBRANCH  15  16
ENDBRANCH   1  15
TORSDOF 8
ENDMDL
