MODEL 1
REMARK VINA RESULT:      -6.4      0.000      0.000
REMARK  Name = 
REMARK  24 active torsions:
REMARK  status: ('A' for Active; 'I' for Inactive)
REMARK    1  A    between atoms: O_1  and  C_2
REMARK    2  A    between atoms: C_2  and  C_3
REMARK    3  A    between atoms: C_6  and  O_8
REMARK    4  A    between atoms: O_8  and  C_9
REMARK    5  A    between atoms: C_9  and  C_10
REMARK    6  A    between atoms: C_10  and  C_11
REMARK    7  A    between atoms: C_11  and  N_12
REMARK    8  A    between atoms: C_13  and  C_15
REMARK    9  A    between atoms: C_17  and  C_25
REMARK   10  A    between atoms: C_19  and  C_20
REMARK   11  A    between atoms: C_20  and  N_21
REMARK   12  A    between atoms: N_27  and  C_28
REMARK   13  A    between atoms: C_28  and  C_29
REMARK   14  A    between atoms: C_29  and  C_30
REMARK   15  A    between atoms: C_30  and  O_31
REMARK   16  A    between atoms: O_31  and  C_32
REMARK   17  A    between atoms: C_35  and  C_37
REMARK   18  A    between atoms: C_37  and  O_38
REMARK   19  A    between atoms: C_39  and  O_41
REMARK   20  A    between atoms: C_42  and  O_44
REMARK   21  A    between atoms: C_45  and  O_47
REMARK   22  A    between atoms: C_48  and  O_50
REMARK   23  A    between atoms: C_51  and  O_53
REMARK   24  A    between atoms: C_54  and  O_56
REMARK                            x       y       z     vdW  Elec       q    Type
REMARK                         _______ _______ _______ _____ _____    ______ ____
ROOT
ATOM      1  C   UNL     1       5.661  -5.453  27.235  0.00  0.00    +0.038 A 
ATOM      2  C   UNL     1       6.292  -5.819  26.037  0.00  0.00    +0.018 A 
ATOM      3  C   UNL     1       6.767  -4.838  25.149  0.00  0.00    -0.018 A 
ATOM      4  C   UNL     1       6.624  -3.484  25.491  0.00  0.00    +0.018 A 
ATOM      5  C   UNL     1       5.981  -3.120  26.681  0.00  0.00    +0.038 A 
ATOM      6  C   UNL     1       5.499  -4.102  27.549  0.00  0.00    +0.026 A 
ENDROOT
BRANCH   5   7
ATOM      7  C   UNL     1       5.816  -1.700  27.091  0.00  0.00    +0.244 C 
ATOM      8  N   UNL     1       6.708  -0.797  26.549  0.00  0.00    -0.311 N 
ATOM      9  H   UNL     1       7.391  -1.086  25.868  0.00  0.00    +0.149 HD
ATOM     10  O   UNL     1       4.924  -1.395  27.871  0.00  0.00    -0.270 OA
BRANCH   8  11
ATOM     11  C   UNL     1       6.644   0.603  26.921  0.00  0.00    +0.107 C 
BRANCH  11  12
ATOM     12  C   UNL     1       5.843   1.410  25.905  0.00  0.00    +0.047 C 
BRANCH  12  13
ATOM     13  C   UNL     1       6.003   0.875  24.487  0.00  0.00    +0.164 C 
BRANCH  13  14
ATOM     14  O   UNL     1       7.361   0.838  24.027  0.00  0.00    -0.349 OA
BRANCH  14  15
ATOM     15  C   UNL     1       7.533   0.085  22.821  0.00  0.00    +0.282 C 
ATOM     16  C   UNL     1       7.832  -1.389  23.180  0.00  0.00    +0.201 C 
ATOM     17  C   UNL     1       9.266  -1.528  23.722  0.00  0.00    +0.179 C 
ATOM     18  C   UNL     1      10.280  -0.843  22.794  0.00  0.00    +0.177 C 
ATOM     19  C   UNL     1       9.874   0.601  22.442  0.00  0.00    +0.178 C 
ATOM     20  O   UNL     1       8.523   0.681  21.978  0.00  0.00    -0.341 OA
BRANCH  16  21
ATOM     21  O   UNL     1       7.578  -2.225  22.043  0.00  0.00    -0.384 OA
ATOM     22  H   UNL     1       7.296  -1.659  21.301  0.00  0.00    +0.210 HD
ENDBRANCH  16  21
BRANCH  17  23
ATOM     23  O   UNL     1       9.365  -1.035  25.061  0.00  0.00    -0.386 OA
ATOM     24  H   UNL     1       8.571  -0.499  25.256  0.00  0.00    +0.210 HD
ENDBRANCH  17  23
BRANCH  18  25
ATOM     25  O   UNL     1      10.364  -1.639  21.594  0.00  0.00    -0.386 OA
ATOM     26  H   UNL     1       9.939  -1.147  20.870  0.00  0.00    +0.210 HD
ENDBRANCH  18  25
BRANCH  19  27
ATOM     27  C   UNL     1      10.200   1.641  23.532  0.00  0.00    +0.190 C 
BRANCH  27  28
ATOM     28  O   UNL     1      11.179   1.160  24.443  0.00  0.00    -0.392 OA
ATOM     29  H   UNL     1      10.824   1.238  25.343  0.00  0.00    +0.210 HD
ENDBRANCH  27  28
ENDBRANCH  19  27
ENDBRANCH  14  15
ENDBRANCH  13  14
ENDBRANCH  12  13
ENDBRANCH  11  12
ENDBRANCH   8  11
ENDBRANCH   5   7
BRANCH   1  32
ATOM     30  N   UNL     1       3.870  -6.179  28.719  0.00  0.00    -0.311 N 
ATOM     31  H   UNL     1       3.347  -5.384  28.379  0.00  0.00    +0.149 HD
ATOM     32  C   UNL     1       5.106  -6.462  28.178  0.00  0.00    +0.244 C 
ATOM     33  O   UNL     1       5.740  -7.483  28.413  0.00  0.00    -0.270 OA
BRANCH  30  34
ATOM     34  C   UNL     1       3.188  -7.118  29.599  0.00  0.00    +0.107 C 
BRANCH  34  35
ATOM     35  C   UNL     1       1.721  -6.743  29.791  0.00  0.00    +0.047 C 
BRANCH  35  36
ATOM     36  C   UNL     1       0.951  -6.671  28.473  0.00  0.00    +0.164 C 
BRANCH  36  37
ATOM     37  O   UNL     1       1.434  -7.635  27.536  0.00  0.00    -0.349 OA
BRANCH  37  42
ATOM     38  C   UNL     1       1.796  -5.058  25.000  0.00  0.00    +0.178 C 
ATOM     39  C   UNL     1       3.139  -5.448  24.380  0.00  0.00    +0.177 C 
ATOM     40  C   UNL     1       3.127  -6.974  24.202  0.00  0.00    +0.179 C 
ATOM     41  C   UNL     1       2.814  -7.697  25.523  0.00  0.00    +0.201 C 
ATOM     42  C   UNL     1       1.576  -7.076  26.223  0.00  0.00    +0.282 C 
ATOM     43  O   UNL     1       1.696  -5.655  26.300  0.00  0.00    -0.341 OA
BRANCH  41  44
ATOM     44  O   UNL     1       2.645  -9.093  25.204  0.00  0.00    -0.384 OA
ATOM     45  H   UNL     1       3.287  -9.610  25.720  0.00  0.00    +0.210 HD
ENDBRANCH  41  44
BRANCH  40  46
ATOM     46  O   UNL     1       4.367  -7.444  23.666  0.00  0.00    -0.386 OA
ATOM     47  H   UNL     1       4.725  -6.709  23.129  0.00  0.00    +0.210 HD
ENDBRANCH  40  46
BRANCH  39  48
ATOM     48  O   UNL     1       3.328  -4.763  23.135  0.00  0.00    -0.386 OA
ATOM     49  H   UNL     1       4.276  -4.594  23.009  0.00  0.00    +0.210 HD
ENDBRANCH  39  48
BRANCH  38  50
ATOM     50  C   UNL     1       1.598  -3.543  25.086  0.00  0.00    +0.190 C 
BRANCH  50  51
ATOM     51  O   UNL     1       2.875  -2.931  25.301  0.00  0.00    -0.392 OA
ATOM     52  H   UNL     1       3.520  -3.649  25.420  0.00  0.00    +0.210 HD
ENDBRANCH  50  51
ENDBRANCH  38  50
ENDBRANCH  37  42
ENDBRANCH  36  37
ENDBRANCH  35  36
ENDBRANCH  34  35
ENDBRANCH  30  34
ENDBRANCH   1  32
BRANCH   3  53
ATOM     53  C   UNL     1       7.440  -5.239  23.856  0.00  0.00    +0.269 C 
BRANCH  53  54
ATOM     54  N   UNL     1       6.480  -5.778  22.891  0.00  0.00    +0.081 NA
ATOM     55  N   UNL     1       6.013  -4.947  22.091  0.00  0.00    -0.014 NA
ATOM     56  N   UNL     1       5.590  -4.180  21.363  0.00  0.00    -0.328 NA
ENDBRANCH  53  54
ENDBRANCH   3  53
TORSDOF 24
ENDMDL
MODEL 2
REMARK VINA RESULT:      -6.0      2.306      4.333
REMARK  Name = 
REMARK  24 active torsions:
REMARK  status: ('A' for Active; 'I' for Inactive)
REMARK    1  A    between atoms: O_1  and  C_2
REMARK    2  A    between atoms: C_2  and  C_3
REMARK    3  A    between atoms: C_6  and  O_8
REMARK    4  A    between atoms: O_8  and  C_9
REMARK    5  A    between atoms: C_9  and  C_10
REMARK    6  A    between atoms: C_10  and  C_11
REMARK    7  A    between atoms: C_11  and  N_12
REMARK    8  A    between atoms: C_13  and  C_15
REMARK    9  A    between atoms: C_17  and  C_25
REMARK   10  A    between atoms: C_19  and  C_20
REMARK   11  A    between atoms: C_20  and  N_21
REMARK   12  A    between atoms: N_27  and  C_28
REMARK   13  A    between atoms: C_28  and  C_29
REMARK   14  A    between atoms: C_29  and  C_30
REMARK   15  A    between atoms: C_30  and  O_31
REMARK   16  A    between atoms: O_31  and  C_32
REMARK   17  A    between atoms: C_35  and  C_37
REMARK   18  A    between atoms: C_37  and  O_38
REMARK   19  A    between atoms: C_39  and  O_41
REMARK   20  A    between atoms: C_42  and  O_44
REMARK   21  A    between atoms: C_45  and  O_47
REMARK   22  A    between atoms: C_48  and  O_50
REMARK   23  A    between atoms: C_51  and  O_53
REMARK   24  A    between atoms: C_54  and  O_56
REMARK                            x       y       z     vdW  Elec       q    Type
REMARK                         _______ _______ _______ _____ _____    ______ ____
ROOT
ATOM      1  C   UNL     1       2.710  -3.261  26.826  0.00  0.00    +0.038 A 
ATOM      2  C   UNL     1       3.006  -4.213  27.813  0.00  0.00    +0.018 A 
ATOM      3  C   UNL     1       3.929  -3.924  28.834  0.00  0.00    -0.018 A 
ATOM      4  C   UNL     1       4.532  -2.657  28.867  0.00  0.00    +0.018 A 
ATOM      5  C   UNL     1       4.246  -1.711  27.873  0.00  0.00    +0.038 A 
ATOM      6  C   UNL     1       3.340  -2.015  26.855  0.00  0.00    +0.026 A 
ENDROOT
BRANCH   5   7
ATOM      7  C   UNL     1       4.851  -0.354  27.872  0.00  0.00    +0.244 C 
ATOM      8  N   UNL     1       4.857   0.314  26.663  0.00  0.00    -0.311 N 
ATOM      9  H   UNL     1       4.419  -0.082  25.848  0.00  0.00    +0.149 HD
ATOM     10  O   UNL     1       5.309   0.107  28.909  0.00  0.00    -0.270 OA
BRANCH   8  11
ATOM     11  C   UNL     1       5.460   1.629  26.560  0.00  0.00    +0.107 C 
BRANCH  11  12
ATOM     12  C   UNL     1       5.739   1.999  25.108  0.00  0.00    +0.047 C 
BRANCH  12  13
ATOM     13  C   UNL     1       7.148   2.549  24.913  0.00  0.00    +0.164 C 
BRANCH  13  14
ATOM     14  O   UNL     1       7.926   1.830  23.947  0.00  0.00    -0.349 OA
BRANCH  14  15
ATOM     15  C   UNL     1       7.661   0.423  23.937  0.00  0.00    +0.282 C 
ATOM     16  C   UNL     1       8.397  -0.242  25.123  0.00  0.00    +0.201 C 
ATOM     17  C   UNL     1       9.909  -0.310  24.844  0.00  0.00    +0.179 C 
ATOM     18  C   UNL     1      10.192  -0.907  23.457  0.00  0.00    +0.177 C 
ATOM     19  C   UNL     1       9.374  -0.225  22.345  0.00  0.00    +0.178 C 
ATOM     20  O   UNL     1       7.982  -0.154  22.668  0.00  0.00    -0.341 OA
BRANCH  16  21
ATOM     21  O   UNL     1       7.819  -1.525  25.395  0.00  0.00    -0.384 OA
ATOM     22  H   UNL     1       7.157  -1.421  26.103  0.00  0.00    +0.210 HD
ENDBRANCH  16  21
BRANCH  17  23
ATOM     23  O   UNL     1      10.525   0.972  24.997  0.00  0.00    -0.386 OA
ATOM     24  H   UNL     1       9.874   1.585  25.392  0.00  0.00    +0.210 HD
ENDBRANCH  17  23
BRANCH  18  25
ATOM     25  O   UNL     1       9.864  -2.310  23.524  0.00  0.00    -0.386 OA
ATOM     26  H   UNL     1       9.499  -2.497  24.406  0.00  0.00    +0.210 HD
ENDBRANCH  18  25
BRANCH  19  27
ATOM     27  C   UNL     1       9.950   1.121  21.860  0.00  0.00    +0.190 C 
BRANCH  27  28
ATOM     28  O   UNL     1       8.997   1.862  21.111  0.00  0.00    -0.392 OA
ATOM     29  H   UNL     1       9.475   2.472  20.526  0.00  0.00    +0.210 HD
ENDBRANCH  27  28
ENDBRANCH  19  27
ENDBRANCH  14  15
ENDBRANCH  13  14
ENDBRANCH  12  13
ENDBRANCH  11  12
ENDBRANCH   8  11
ENDBRANCH   5   7
BRANCH   1  32
ATOM     30  N   UNL     1       1.712  -4.856  25.279  0.00  0.00    -0.311 N 
ATOM     31  H   UNL     1       2.197  -5.573  25.800  0.00  0.00    +0.149 HD
ATOM     32  C   UNL     1       1.773  -3.547  25.706  0.00  0.00    +0.244 C 
ATOM     33  O   UNL     1       1.099  -2.639  25.234  0.00  0.00    -0.270 OA
BRANCH  30  34
ATOM     34  C   UNL     1       0.783  -5.278  24.240  0.00  0.00    +0.107 C 
BRANCH  34  35
ATOM     35  C   UNL     1       1.463  -6.180  23.213  0.00  0.00    +0.047 C 
BRANCH  35  36
ATOM     36  C   UNL     1       2.985  -6.049  23.225  0.00  0.00    +0.164 C 
BRANCH  36  37
ATOM     37  O   UNL     1       3.557  -6.741  24.336  0.00  0.00    -0.349 OA
BRANCH  37  42
ATOM     38  C   UNL     1       6.787  -5.270  23.557  0.00  0.00    +0.178 C 
ATOM     39  C   UNL     1       7.133  -4.606  24.891  0.00  0.00    +0.177 C 
ATOM     40  C   UNL     1       6.777  -5.609  25.998  0.00  0.00    +0.179 C 
ATOM     41  C   UNL     1       5.317  -6.078  25.893  0.00  0.00    +0.201 C 
ATOM     42  C   UNL     1       4.968  -6.503  24.442  0.00  0.00    +0.282 C 
ATOM     43  O   UNL     1       5.373  -5.502  23.508  0.00  0.00    -0.341 OA
BRANCH  41  44
ATOM     44  O   UNL     1       5.150  -7.142  26.852  0.00  0.00    -0.384 OA
ATOM     45  H   UNL     1       4.224  -7.437  26.831  0.00  0.00    +0.210 HD
ENDBRANCH  41  44
BRANCH  40  46
ATOM     46  O   UNL     1       7.025  -5.059  27.296  0.00  0.00    -0.386 OA
ATOM     47  H   UNL     1       7.452  -4.192  27.145  0.00  0.00    +0.210 HD
ENDBRANCH  40  46
BRANCH  39  48
ATOM     48  O   UNL     1       8.519  -4.242  24.918  0.00  0.00    -0.386 OA
ATOM     49  H   UNL     1       8.974  -4.787  25.581  0.00  0.00    +0.210 HD
ENDBRANCH  39  48
BRANCH  38  50
ATOM     50  C   UNL     1       7.240  -4.449  22.347  0.00  0.00    +0.190 C 
BRANCH  50  51
ATOM     51  O   UNL     1       7.225  -3.063  22.711  0.00  0.00    -0.392 OA
ATOM     52  H   UNL     1       6.878  -3.008  23.617  0.00  0.00    +0.210 HD
ENDBRANCH  50  51
ENDBRANCH  38  50
ENDBRANCH  37  42
ENDBRANCH  36  37
ENDBRANCH  35  36
ENDBRANCH  34  35
ENDBRANCH  30  34
ENDBRANCH   1  32
BRANCH   3  53
ATOM     53  C   UNL     1       4.248  -4.956  29.890  0.00  0.00    +0.269 C 
BRANCH  53  54
ATOM     54  N   UNL     1       5.692  -5.112  30.075  0.00  0.00    +0.081 NA
ATOM     55  N   UNL     1       6.157  -6.205  29.702  0.00  0.00    -0.014 NA
ATOM     56  N   UNL     1       6.573  -7.209  29.360  0.00  0.00    -0.328 NA
ENDBRANCH  53  54
ENDBRANCH   3  53
TORSDOF 24
ENDMDL
MODEL 3
REMARK VINA RESULT:      -5.9      2.361      5.921
REMARK  Name = 
REMARK  24 active torsions:
REMARK  status: ('A' for Active; 'I' for Inactive)
REMARK    1  A    between atoms: O_1  and  C_2
REMARK    2  A    between atoms: C_2  and  C_3
REMARK    3  A    between atoms: C_6  and  O_8
REMARK    4  A    between atoms: O_8  and  C_9
REMARK    5  A    between atoms: C_9  and  C_10
REMARK    6  A    between atoms: C_10  and  C_11
REMARK    7  A    between atoms: C_11  and  N_12
REMARK    8  A    between atoms: C_13  and  C_15
REMARK    9  A    between atoms: C_17  and  C_25
REMARK   10  A    between atoms: C_19  and  C_20
REMARK   11  A    between atoms: C_20  and  N_21
REMARK   12  A    between atoms: N_27  and  C_28
REMARK   13  A    between atoms: C_28  and  C_29
REMARK   14  A    between atoms: C_29  and  C_30
REMARK   15  A    between atoms: C_30  and  O_31
REMARK   16  A    between atoms: O_31  and  C_32
REMARK   17  A    between atoms: C_35  and  C_37
REMARK   18  A    between atoms: C_37  and  O_38
REMARK   19  A    between atoms: C_39  and  O_41
REMARK   20  A    between atoms: C_42  and  O_44
REMARK   21  A    between atoms: C_45  and  O_47
REMARK   22  A    between atoms: C_48  and  O_50
REMARK   23  A    between atoms: C_51  and  O_53
REMARK   24  A    between atoms: C_54  and  O_56
REMARK                            x       y       z     vdW  Elec       q    Type
REMARK                         _______ _______ _______ _____ _____    ______ ____
ROOT
ATOM      1  C   UNL     1       3.964  -4.062  25.605  0.00  0.00    +0.038 A 
ATOM      2  C   UNL     1       3.991  -4.828  26.780  0.00  0.00    +0.018 A 
ATOM      3  C   UNL     1       4.159  -4.212  28.033  0.00  0.00    -0.018 A 
ATOM      4  C   UNL     1       4.273  -2.815  28.094  0.00  0.00    +0.018 A 
ATOM      5  C   UNL     1       4.260  -2.052  26.918  0.00  0.00    +0.038 A 
ATOM      6  C   UNL     1       4.109  -2.676  25.678  0.00  0.00    +0.026 A 
ENDROOT
BRANCH   5   7
ATOM      7  C   UNL     1       4.367  -0.569  26.933  0.00  0.00    +0.244 C 
ATOM      8  N   UNL     1       5.348  -0.034  27.743  0.00  0.00    -0.311 N 
ATOM      9  H   UNL     1       5.989  -0.626  28.245  0.00  0.00    +0.149 HD
ATOM     10  O   UNL     1       3.605   0.100  26.249  0.00  0.00    -0.270 OA
BRANCH   8  11
ATOM     11  C   UNL     1       5.502   1.405  27.847  0.00  0.00    +0.107 C 
BRANCH  11  12
ATOM     12  C   UNL     1       6.961   1.819  27.690  0.00  0.00    +0.047 C 
BRANCH  12  13
ATOM     13  C   UNL     1       7.106   3.179  27.015  0.00  0.00    +0.164 C 
BRANCH  13  14
ATOM     14  O   UNL     1       6.920   3.147  25.594  0.00  0.00    -0.349 OA
BRANCH  14  15
ATOM     15  C   UNL     1       7.900   2.358  24.910  0.00  0.00    +0.282 C 
ATOM     16  C   UNL     1       8.969   3.293  24.298  0.00  0.00    +0.201 C 
ATOM     17  C   UNL     1       8.398   4.029  23.073  0.00  0.00    +0.179 C 
ATOM     18  C   UNL     1       7.725   3.050  22.099  0.00  0.00    +0.177 C 
ATOM     19  C   UNL     1       6.719   2.119  22.803  0.00  0.00    +0.178 C 
ATOM     20  O   UNL     1       7.286   1.488  23.955  0.00  0.00    -0.341 OA
BRANCH  16  21
ATOM     21  O   UNL     1      10.154   2.544  24.000  0.00  0.00    -0.384 OA
ATOM     22  H   UNL     1      10.190   2.392  23.038  0.00  0.00    +0.210 HD
ENDBRANCH  16  21
BRANCH  17  23
ATOM     23  O   UNL     1       7.504   5.075  23.464  0.00  0.00    -0.386 OA
ATOM     24  H   UNL     1       7.114   4.844  24.331  0.00  0.00    +0.210 HD
ENDBRANCH  17  23
BRANCH  18  25
ATOM     25  O   UNL     1       8.773   2.272  21.486  0.00  0.00    -0.386 OA
ATOM     26  H   UNL     1       9.627   2.581  21.835  0.00  0.00    +0.210 HD
ENDBRANCH  18  25
BRANCH  19  27
ATOM     27  C   UNL     1       5.343   2.756  23.081  0.00  0.00    +0.190 C 
BRANCH  27  28
ATOM     28  O   UNL     1       4.587   1.992  24.010  0.00  0.00    -0.392 OA
ATOM     29  H   UNL     1       4.758   1.051  23.842  0.00  0.00    +0.210 HD
ENDBRANCH  27  28
ENDBRANCH  19  27
ENDBRANCH  14  15
ENDBRANCH  13  14
ENDBRANCH  12  13
ENDBRANCH  11  12
ENDBRANCH   8  11
ENDBRANCH   5   7
BRANCH   1  32
ATOM     30  N   UNL     1       5.007  -5.073  23.648  0.00  0.00    -0.311 N 
ATOM     31  H   UNL     1       5.874  -5.036  24.165  0.00  0.00    +0.149 HD
ATOM     32  C   UNL     1       3.833  -4.683  24.258  0.00  0.00    +0.244 C 
ATOM     33  O   UNL     1       2.721  -4.837  23.769  0.00  0.00    -0.270 OA
BRANCH  30  34
ATOM     34  C   UNL     1       5.008  -5.756  22.362  0.00  0.00    +0.107 C 
BRANCH  34  35
ATOM     35  C   UNL     1       6.395  -5.751  21.726  0.00  0.00    +0.047 C 
BRANCH  35  36
ATOM     36  C   UNL     1       7.324  -4.704  22.338  0.00  0.00    +0.164 C 
BRANCH  36  37
ATOM     37  O   UNL     1       7.865  -5.154  23.582  0.00  0.00    -0.349 OA
BRANCH  37  42
ATOM     38  C   UNL     1       9.812  -2.102  23.891  0.00  0.00    +0.178 C 
ATOM     39  C   UNL     1       8.955  -1.311  24.882  0.00  0.00    +0.177 C 
ATOM     40  C   UNL     1       8.523  -2.289  25.984  0.00  0.00    +0.179 C 
ATOM     41  C   UNL     1       7.822  -3.527  25.402  0.00  0.00    +0.201 C 
ATOM     42  C   UNL     1       8.636  -4.132  24.227  0.00  0.00    +0.282 C 
ATOM     43  O   UNL     1       9.002  -3.120  23.288  0.00  0.00    -0.341 OA
BRANCH  41  44
ATOM     44  O   UNL     1       7.631  -4.449  26.494  0.00  0.00    -0.384 OA
ATOM     45  H   UNL     1       6.878  -4.146  27.029  0.00  0.00    +0.210 HD
ENDBRANCH  41  44
BRANCH  40  46
ATOM     46  O   UNL     1       7.674  -1.648  26.942  0.00  0.00    -0.386 OA
ATOM     47  H   UNL     1       6.799  -1.562  26.513  0.00  0.00    +0.210 HD
ENDBRANCH  40  46
BRANCH  39  48
ATOM     48  O   UNL     1       9.700  -0.204  25.406  0.00  0.00    -0.386 OA
ATOM     49  H   UNL     1      10.068  -0.452  26.269  0.00  0.00    +0.210 HD
ENDBRANCH  39  48
BRANCH  38  50
ATOM     50  C   UNL     1      10.453  -1.217  22.818  0.00  0.00    +0.190 C 
BRANCH  50  51
ATOM     51  O   UNL     1       9.596  -0.093  22.589  0.00  0.00    -0.392 OA
ATOM     52  H   UNL     1       9.766   0.218  21.684  0.00  0.00    +0.210 HD
ENDBRANCH  50  51
ENDBRANCH  38  50
ENDBRANCH  37  42
ENDBRANCH  36  37
ENDBRANCH  35  36
ENDBRANCH  34  35
ENDBRANCH  30  34
ENDBRANCH   1  32
BRANCH   3  53
ATOM     53  C   UNL     1       4.194  -5.043  29.295  0.00  0.00    +0.269 C 
BRANCH  53  54
ATOM     54  N   UNL     1       5.555  -5.180  29.814  0.00  0.00    +0.081 NA
ATOM     55  N   UNL     1       6.334  -5.826  29.090  0.00  0.00    -0.014 NA
ATOM     56  N   UNL     1       7.040  -6.421  28.421  0.00  0.00    -0.328 NA
ENDBRANCH  53  54
ENDBRANCH   3  53
TORSDOF 24
ENDMDL
MODEL 4
REMARK VINA RESULT:      -5.9      2.458      5.339
REMARK  Name = 
REMARK  24 active torsions:
REMARK  status: ('A' for Active; 'I' for Inactive)
REMARK    1  A    between atoms: O_1  and  C_2
REMARK    2  A    between atoms: C_2  and  C_3
REMARK    3  A    between atoms: C_6  and  O_8
REMARK    4  A    between atoms: O_8  and  C_9
REMARK    5  A    between atoms: C_9  and  C_10
REMARK    6  A    between atoms: C_10  and  C_11
REMARK    7  A    between atoms: C_11  and  N_12
REMARK    8  A    between atoms: C_13  and  C_15
REMARK    9  A    between atoms: C_17  and  C_25
REMARK   10  A    between atoms: C_19  and  C_20
REMARK   11  A    between atoms: C_20  and  N_21
REMARK   12  A    between atoms: N_27  and  C_28
REMARK   13  A    between atoms: C_28  and  C_29
REMARK   14  A    between atoms: C_29  and  C_30
REMARK   15  A    between atoms: C_30  and  O_31
REMARK   16  A    between atoms: O_31  and  C_32
REMARK   17  A    between atoms: C_35  and  C_37
REMARK   18  A    between atoms: C_37  and  O_38
REMARK   19  A    between atoms: C_39  and  O_41
REMARK   20  A    between atoms: C_42  and  O_44
REMARK   21  A    between atoms: C_45  and  O_47
REMARK   22  A    between atoms: C_48  and  O_50
REMARK   23  A    between atoms: C_51  and  O_53
REMARK   24  A    between atoms: C_54  and  O_56
REMARK                            x       y       z     vdW  Elec       q    Type
REMARK                         _______ _______ _______ _____ _____    ______ ____
ROOT
ATOM      1  C   UNL     1       2.538  -5.210  25.050  0.00  0.00    +0.038 A 
ATOM      2  C   UNL     1       1.745  -6.258  24.562  0.00  0.00    +0.018 A 
ATOM      3  C   UNL     1       2.103  -6.940  23.385  0.00  0.00    -0.018 A 
ATOM      4  C   UNL     1       3.282  -6.573  22.719  0.00  0.00    +0.018 A 
ATOM      5  C   UNL     1       4.067  -5.516  23.200  0.00  0.00    +0.038 A 
ATOM      6  C   UNL     1       3.693  -4.836  24.361  0.00  0.00    +0.026 A 
ENDROOT
BRANCH   5   7
ATOM      7  C   UNL     1       5.329  -5.098  22.535  0.00  0.00    +0.244 C 
ATOM      8  N   UNL     1       6.209  -4.358  23.300  0.00  0.00    -0.311 N 
ATOM      9  H   UNL     1       6.023  -4.169  24.271  0.00  0.00    +0.149 HD
ATOM     10  O   UNL     1       5.534  -5.414  21.371  0.00  0.00    -0.270 OA
BRANCH   8  11
ATOM     11  C   UNL     1       7.449  -3.877  22.722  0.00  0.00    +0.107 C 
BRANCH  11  12
ATOM     12  C   UNL     1       7.430  -2.362  22.551  0.00  0.00    +0.047 C 
BRANCH  12  13
ATOM     13  C   UNL     1       8.812  -1.743  22.725  0.00  0.00    +0.164 C 
BRANCH  13  14
ATOM     14  O   UNL     1       8.833  -0.315  22.592  0.00  0.00    -0.349 OA
BRANCH  14  15
ATOM     15  C   UNL     1       7.671   0.323  23.133  0.00  0.00    +0.282 C 
ATOM     16  C   UNL     1       7.203   1.434  22.164  0.00  0.00    +0.201 C 
ATOM     17  C   UNL     1       8.157   2.639  22.232  0.00  0.00    +0.179 C 
ATOM     18  C   UNL     1       8.402   3.074  23.684  0.00  0.00    +0.177 C 
ATOM     19  C   UNL     1       8.808   1.896  24.590  0.00  0.00    +0.178 C 
ATOM     20  O   UNL     1       7.912   0.788  24.464  0.00  0.00    -0.341 OA
BRANCH  16  21
ATOM     21  O   UNL     1       5.841   1.779  22.447  0.00  0.00    -0.384 OA
ATOM     22  H   UNL     1       5.826   2.658  22.868  0.00  0.00    +0.210 HD
ENDBRANCH  16  21
BRANCH  17  23
ATOM     23  O   UNL     1       9.386   2.369  21.551  0.00  0.00    -0.386 OA
ATOM     24  H   UNL     1       9.949   3.167  21.595  0.00  0.00    +0.210 HD
ENDBRANCH  17  23
BRANCH  18  25
ATOM     25  O   UNL     1       7.179   3.668  24.163  0.00  0.00    -0.386 OA
ATOM     26  H   UNL     1       6.437   3.291  23.657  0.00  0.00    +0.210 HD
ENDBRANCH  18  25
BRANCH  19  27
ATOM     27  C   UNL     1      10.291   1.487  24.483  0.00  0.00    +0.190 C 
BRANCH  27  28
ATOM     28  O   UNL     1      10.567   0.312  25.232  0.00  0.00    -0.392 OA
ATOM     29  H   UNL     1      11.260   0.518  25.880  0.00  0.00    +0.210 HD
ENDBRANCH  27  28
ENDBRANCH  19  27
ENDBRANCH  14  15
ENDBRANCH  13  14
ENDBRANCH  12  13
ENDBRANCH  11  12
ENDBRANCH   8  11
ENDBRANCH   5   7
BRANCH   1  32
ATOM     30  N   UNL     1       2.450  -3.087  26.244  0.00  0.00    -0.311 N 
ATOM     31  H   UNL     1       2.778  -2.661  25.388  0.00  0.00    +0.149 HD
ATOM     32  C   UNL     1       2.167  -4.436  26.267  0.00  0.00    +0.244 C 
ATOM     33  O   UNL     1       1.623  -5.007  27.204  0.00  0.00    -0.270 OA
BRANCH  30  34
ATOM     34  C   UNL     1       2.072  -2.209  27.342  0.00  0.00    +0.107 C 
BRANCH  34  35
ATOM     35  C   UNL     1       2.778  -0.859  27.249  0.00  0.00    +0.047 C 
BRANCH  35  36
ATOM     36  C   UNL     1       4.241  -0.924  27.685  0.00  0.00    +0.164 C 
BRANCH  36  37
ATOM     37  O   UNL     1       5.073  -1.424  26.638  0.00  0.00    -0.349 OA
BRANCH  37  42
ATOM     38  C   UNL     1       6.220  -4.725  27.633  0.00  0.00    +0.178 C 
ATOM     39  C   UNL     1       7.360  -4.948  26.637  0.00  0.00    +0.177 C 
ATOM     40  C   UNL     1       8.157  -3.638  26.564  0.00  0.00    +0.179 C 
ATOM     41  C   UNL     1       7.253  -2.442  26.222  0.00  0.00    +0.201 C 
ATOM     42  C   UNL     1       5.983  -2.425  27.114  0.00  0.00    +0.282 C 
ATOM     43  O   UNL     1       5.351  -3.706  27.121  0.00  0.00    -0.341 OA
BRANCH  41  44
ATOM     44  O   UNL     1       8.061  -1.255  26.363  0.00  0.00    -0.384 OA
ATOM     45  H   UNL     1       8.999  -1.512  26.334  0.00  0.00    +0.210 HD
ENDBRANCH  41  44
BRANCH  40  46
ATOM     46  O   UNL     1       9.226  -3.732  25.618  0.00  0.00    -0.386 OA
ATOM     47  H   UNL     1       9.641  -2.846  25.588  0.00  0.00    +0.210 HD
ENDBRANCH  40  46
BRANCH  39  48
ATOM     48  O   UNL     1       8.174  -6.051  27.056  0.00  0.00    -0.386 OA
ATOM     49  H   UNL     1       9.029  -6.003  26.597  0.00  0.00    +0.210 HD
ENDBRANCH  39  48
BRANCH  38  50
ATOM     50  C   UNL     1       5.433  -6.003  27.933  0.00  0.00    +0.190 C 
BRANCH  50  51
ATOM     51  O   UNL     1       5.440  -6.825  26.760  0.00  0.00    -0.392 OA
ATOM     52  H   UNL     1       4.601  -6.669  26.295  0.00  0.00    +0.210 HD
ENDBRANCH  50  51
ENDBRANCH  38  50
ENDBRANCH  37  42
ENDBRANCH  36  37
ENDBRANCH  35  36
ENDBRANCH  34  35
ENDBRANCH  30  34
ENDBRANCH   1  32
BRANCH   3  53
ATOM     53  C   UNL     1       1.240  -8.065  22.861  0.00  0.00    +0.269 C 
BRANCH  53  54
ATOM     54  N   UNL     1       0.657  -7.736  21.559  0.00  0.00    +0.081 NA
ATOM     55  N   UNL     1       1.111  -8.384  20.599  0.00  0.00    -0.014 NA
ATOM     56  N   UNL     1       1.535  -8.981  19.725  0.00  0.00    -0.328 NA
ENDBRANCH  53  54
ENDBRANCH   3  53
TORSDOF 24
ENDMDL
MODEL 5
REMARK VINA RESULT:      -5.9      3.479      6.112
REMARK  Name = 
REMARK  24 active torsions:
REMARK  status: ('A' for Active; 'I' for Inactive)
REMARK    1  A    between atoms: O_1  and  C_2
REMARK    2  A    between atoms: C_2  and  C_3
REMARK    3  A    between atoms: C_6  and  O_8
REMARK    4  A    between atoms: O_8  and  C_9
REMARK    5  A    between atoms: C_9  and  C_10
REMARK    6  A    between atoms: C_10  and  C_11
REMARK    7  A    between atoms: C_11  and  N_12
REMARK    8  A    between atoms: C_13  and  C_15
REMARK    9  A    between atoms: C_17  and  C_25
REMARK   10  A    between atoms: C_19  and  C_20
REMARK   11  A    between atoms: C_20  and  N_21
REMARK   12  A    between atoms: N_27  and  C_28
REMARK   13  A    between atoms: C_28  and  C_29
REMARK   14  A    between atoms: C_29  and  C_30
REMARK   15  A    between atoms: C_30  and  O_31
REMARK   16  A    between atoms: O_31  and  C_32
REMARK   17  A    between atoms: C_35  and  C_37
REMARK   18  A    between atoms: C_37  and  O_38
REMARK   19  A    between atoms: C_39  and  O_41
REMARK   20  A    between atoms: C_42  and  O_44
REMARK   21  A    between atoms: C_45  and  O_47
REMARK   22  A    between atoms: C_48  and  O_50
REMARK   23  A    between atoms: C_51  and  O_53
REMARK   24  A    between atoms: C_54  and  O_56
REMARK                            x       y       z     vdW  Elec       q    Type
REMARK                         _______ _______ _______ _____ _____    ______ ____
ROOT
ATOM      1  C   UNL     1       6.852  -2.251  22.589  0.00  0.00    +0.038 A 
ATOM      2  C   UNL     1       8.127  -1.813  22.200  0.00  0.00    +0.018 A 
ATOM      3  C   UNL     1       8.658  -0.614  22.708  0.00  0.00    -0.018 A 
ATOM      4  C   UNL     1       7.904   0.126  23.632  0.00  0.00    +0.018 A 
ATOM      5  C   UNL     1       6.626  -0.306  24.010  0.00  0.00    +0.038 A 
ATOM      6  C   UNL     1       6.102  -1.490  23.487  0.00  0.00    +0.026 A 
ENDROOT
BRANCH   5   7
ATOM      7  C   UNL     1       5.795   0.439  24.992  0.00  0.00    +0.244 C 
ATOM      8  N   UNL     1       6.277   1.668  25.397  0.00  0.00    -0.311 N 
ATOM      9  H   UNL     1       7.115   2.055  24.996  0.00  0.00    +0.149 HD
ATOM     10  O   UNL     1       4.749  -0.051  25.395  0.00  0.00    -0.270 OA
BRANCH   8  11
ATOM     11  C   UNL     1       5.550   2.448  26.380  0.00  0.00    +0.107 C 
BRANCH  11  12
ATOM     12  C   UNL     1       6.491   3.325  27.198  0.00  0.00    +0.047 C 
BRANCH  12  13
ATOM     13  C   UNL     1       6.822   4.633  26.490  0.00  0.00    +0.164 C 
BRANCH  13  14
ATOM     14  O   UNL     1       7.026   4.497  25.077  0.00  0.00    -0.349 OA
BRANCH  14  15
ATOM     15  C   UNL     1       6.174   5.342  24.296  0.00  0.00    +0.282 C 
ATOM     16  C   UNL     1       5.867   4.647  22.949  0.00  0.00    +0.201 C 
ATOM     17  C   UNL     1       7.102   4.687  22.032  0.00  0.00    +0.179 C 
ATOM     18  C   UNL     1       7.681   6.106  21.939  0.00  0.00    +0.177 C 
ATOM     19  C   UNL     1       7.902   6.743  23.324  0.00  0.00    +0.178 C 
ATOM     20  O   UNL     1       6.738   6.649  24.150  0.00  0.00    -0.341 OA
BRANCH  16  21
ATOM     21  O   UNL     1       4.706   5.241  22.352  0.00  0.00    -0.384 OA
ATOM     22  H   UNL     1       3.983   5.228  23.005  0.00  0.00    +0.210 HD
ENDBRANCH  16  21
BRANCH  17  23
ATOM     23  O   UNL     1       8.092   3.743  22.452  0.00  0.00    -0.386 OA
ATOM     24  H   UNL     1       7.697   2.849  22.437  0.00  0.00    +0.210 HD
ENDBRANCH  17  23
BRANCH  18  25
ATOM     25  O   UNL     1       6.749   6.896  21.174  0.00  0.00    -0.386 OA
ATOM     26  H   UNL     1       5.954   7.042  21.717  0.00  0.00    +0.210 HD
ENDBRANCH  18  25
BRANCH  19  27
ATOM     27  C   UNL     1       9.188   6.287  24.041  0.00  0.00    +0.190 C 
BRANCH  27  28
ATOM     28  O   UNL     1      10.180   5.858  23.120  0.00  0.00    -0.392 OA
ATOM     29  H   UNL     1      10.188   6.474  22.369  0.00  0.00    +0.210 HD
ENDBRANCH  27  28
ENDBRANCH  19  27
ENDBRANCH  14  15
ENDBRANCH  13  14
ENDBRANCH  12  13
ENDBRANCH  11  12
ENDBRANCH   8  11
ENDBRANCH   5   7
BRANCH   1  32
ATOM     30  N   UNL     1       6.401  -4.637  22.788  0.00  0.00    -0.311 N 
ATOM     31  H   UNL     1       6.811  -4.577  23.709  0.00  0.00    +0.149 HD
ATOM     32  C   UNL     1       6.239  -3.491  22.039  0.00  0.00    +0.244 C 
ATOM     33  O   UNL     1       5.618  -3.442  20.985  0.00  0.00    -0.270 OA
BRANCH  30  34
ATOM     34  C   UNL     1       5.789  -5.899  22.394  0.00  0.00    +0.107 C 
BRANCH  34  35
ATOM     35  C   UNL     1       4.439  -6.104  23.076  0.00  0.00    +0.047 C 
BRANCH  35  36
ATOM     36  C   UNL     1       4.390  -5.512  24.483  0.00  0.00    +0.164 C 
BRANCH  36  37
ATOM     37  O   UNL     1       5.161  -6.289  25.401  0.00  0.00    -0.349 OA
BRANCH  37  42
ATOM     38  C   UNL     1       8.259  -4.515  26.081  0.00  0.00    +0.178 C 
ATOM     39  C   UNL     1       7.746  -3.082  26.227  0.00  0.00    +0.177 C 
ATOM     40  C   UNL     1       6.470  -3.145  27.080  0.00  0.00    +0.179 C 
ATOM     41  C   UNL     1       5.440  -4.120  26.488  0.00  0.00    +0.201 C 
ATOM     42  C   UNL     1       6.095  -5.480  26.130  0.00  0.00    +0.282 C 
ATOM     43  O   UNL     1       7.284  -5.285  25.363  0.00  0.00    -0.341 OA
BRANCH  41  44
ATOM     44  O   UNL     1       4.376  -4.241  27.455  0.00  0.00    -0.384 OA
ATOM     45  H   UNL     1       4.109  -3.348  27.736  0.00  0.00    +0.210 HD
ENDBRANCH  41  44
BRANCH  40  46
ATOM     46  O   UNL     1       5.886  -1.849  27.238  0.00  0.00    -0.386 OA
ATOM     47  H   UNL     1       4.954  -1.935  26.951  0.00  0.00    +0.210 HD
ENDBRANCH  40  46
BRANCH  39  48
ATOM     48  O   UNL     1       8.752  -2.255  26.825  0.00  0.00    -0.386 OA
ATOM     49  H   UNL     1       9.398  -2.003  26.145  0.00  0.00    +0.210 HD
ENDBRANCH  39  48
BRANCH  38  50
ATOM     50  C   UNL     1       9.622  -4.592  25.388  0.00  0.00    +0.190 C 
BRANCH  50  51
ATOM     51  O   UNL     1       9.941  -5.972  25.171  0.00  0.00    -0.392 OA
ATOM     52  H   UNL     1       9.445  -6.262  24.388  0.00  0.00    +0.210 HD
ENDBRANCH  50  51
ENDBRANCH  38  50
ENDBRANCH  37  42
ENDBRANCH  36  37
ENDBRANCH  35  36
ENDBRANCH  34  35
ENDBRANCH  30  34
ENDBRANCH   1  32
BRANCH   3  53
ATOM     53  C   UNL     1      10.029  -0.144  22.280  0.00  0.00    +0.269 C 
BRANCH  53  54
ATOM     54  N   UNL     1       9.999   1.235  21.789  0.00  0.00    +0.081 NA
ATOM     55  N   UNL     1      10.411   2.091  22.594  0.00  0.00    -0.014 NA
ATOM     56  N   UNL     1      10.788   2.867  23.337  0.00  0.00    -0.328 NA
ENDBRANCH  53  54
ENDBRANCH   3  53
TORSDOF 24
ENDMDL
MODEL 6
REMARK VINA RESULT:      -5.8      3.210      8.803
REMARK  Name = 
REMARK  24 active torsions:
REMARK  status: ('A' for Active; 'I' for Inactive)
REMARK    1  A    between atoms: O_1  and  C_2
REMARK    2  A    between atoms: C_2  and  C_3
REMARK    3  A    between atoms: C_6  and  O_8
REMARK    4  A    between atoms: O_8  and  C_9
REMARK    5  A    between atoms: C_9  and  C_10
REMARK    6  A    between atoms: C_10  and  C_11
REMARK    7  A    between atoms: C_11  and  N_12
REMARK    8  A    between atoms: C_13  and  C_15
REMARK    9  A    between atoms: C_17  and  C_25
REMARK   10  A    between atoms: C_19  and  C_20
REMARK   11  A    between atoms: C_20  and  N_21
REMARK   12  A    between atoms: N_27  and  C_28
REMARK   13  A    between atoms: C_28  and  C_29
REMARK   14  A    between atoms: C_29  and  C_30
REMARK   15  A    between atoms: C_30  and  O_31
REMARK   16  A    between atoms: O_31  and  C_32
REMARK   17  A    between atoms: C_35  and  C_37
REMARK   18  A    between atoms: C_37  and  O_38
REMARK   19  A    between atoms: C_39  and  O_41
REMARK   20  A    between atoms: C_42  and  O_44
REMARK   21  A    between atoms: C_45  and  O_47
REMARK   22  A    between atoms: C_48  and  O_50
REMARK   23  A    between atoms: C_51  and  O_53
REMARK   24  A    between atoms: C_54  and  O_56
REMARK                            x       y       z     vdW  Elec       q    Type
REMARK                         _______ _______ _______ _____ _____    ______ ____
ROOT
ATOM      1  C   UNL     1       7.347   2.636  25.986  0.00  0.00    +0.038 A 
ATOM      2  C   UNL     1       8.546   2.017  25.602  0.00  0.00    +0.018 A 
ATOM      3  C   UNL     1       8.621   0.618  25.475  0.00  0.00    -0.018 A 
ATOM      4  C   UNL     1       7.471  -0.149  25.714  0.00  0.00    +0.018 A 
ATOM      5  C   UNL     1       6.277   0.470  26.110  0.00  0.00    +0.038 A 
ATOM      6  C   UNL     1       6.218   1.858  26.248  0.00  0.00    +0.026 A 
ENDROOT
BRANCH   5   7
ATOM      7  C   UNL     1       5.031  -0.299  26.364  0.00  0.00    +0.244 C 
ATOM      8  N   UNL     1       5.186  -1.641  26.650  0.00  0.00    -0.311 N 
ATOM      9  H   UNL     1       6.100  -2.051  26.740  0.00  0.00    +0.149 HD
ATOM     10  O   UNL     1       3.948   0.267  26.309  0.00  0.00    -0.270 OA
BRANCH   8  11
ATOM     11  C   UNL     1       4.022  -2.477  26.876  0.00  0.00    +0.107 C 
BRANCH  11  12
ATOM     12  C   UNL     1       4.424  -3.888  27.288  0.00  0.00    +0.047 C 
BRANCH  12  13
ATOM     13  C   UNL     1       5.177  -4.620  26.183  0.00  0.00    +0.164 C 
BRANCH  13  14
ATOM     14  O   UNL     1       5.246  -3.896  24.947  0.00  0.00    -0.349 OA
BRANCH  14  15
ATOM     15  C   UNL     1       4.654  -4.595  23.845  0.00  0.00    +0.282 C 
ATOM     16  C   UNL     1       5.452  -5.892  23.578  0.00  0.00    +0.201 C 
ATOM     17  C   UNL     1       6.803  -5.562  22.917  0.00  0.00    +0.179 C 
ATOM     18  C   UNL     1       6.620  -4.626  21.714  0.00  0.00    +0.177 C 
ATOM     19  C   UNL     1       5.765  -3.390  22.055  0.00  0.00    +0.178 C 
ATOM     20  O   UNL     1       4.538  -3.747  22.699  0.00  0.00    -0.341 OA
BRANCH  16  21
ATOM     21  O   UNL     1       4.656  -6.799  22.804  0.00  0.00    -0.384 OA
ATOM     22  H   UNL     1       3.936  -7.136  23.368  0.00  0.00    +0.210 HD
ENDBRANCH  16  21
BRANCH  17  23
ATOM     23  O   UNL     1       7.727  -5.022  23.866  0.00  0.00    -0.386 OA
ATOM     24  H   UNL     1       8.364  -5.721  24.113  0.00  0.00    +0.210 HD
ENDBRANCH  17  23
BRANCH  18  25
ATOM     25  O   UNL     1       5.986  -5.393  20.671  0.00  0.00    -0.386 OA
ATOM     26  H   UNL     1       6.433  -6.255  20.611  0.00  0.00    +0.210 HD
ENDBRANCH  18  25
BRANCH  19  27
ATOM     27  C   UNL     1       6.526  -2.267  22.788  0.00  0.00    +0.190 C 
BRANCH  27  28
ATOM     28  O   UNL     1       7.700  -1.883  22.087  0.00  0.00    -0.392 OA
ATOM     29  H   UNL     1       7.928  -0.976  22.347  0.00  0.00    +0.210 HD
ENDBRANCH  27  28
ENDBRANCH  19  27
ENDBRANCH  14  15
ENDBRANCH  13  14
ENDBRANCH  12  13
ENDBRANCH  11  12
ENDBRANCH   8  11
ENDBRANCH   5   7
BRANCH   1  32
ATOM     30  N   UNL     1       8.222   4.873  25.574  0.00  0.00    -0.311 N 
ATOM     31  H   UNL     1       8.886   4.434  24.952  0.00  0.00    +0.149 HD
ATOM     32  C   UNL     1       7.242   4.109  26.173  0.00  0.00    +0.244 C 
ATOM     33  O   UNL     1       6.307   4.572  26.814  0.00  0.00    -0.270 OA
BRANCH  30  34
ATOM     34  C   UNL     1       8.191   6.328  25.623  0.00  0.00    +0.107 C 
BRANCH  34  35
ATOM     35  C   UNL     1       9.136   6.944  24.595  0.00  0.00    +0.047 C 
BRANCH  35  36
ATOM     36  C   UNL     1       8.909   6.402  23.184  0.00  0.00    +0.164 C 
BRANCH  36  37
ATOM     37  O   UNL     1       7.516   6.325  22.875  0.00  0.00    -0.349 OA
BRANCH  37  42
ATOM     38  C   UNL     1       7.885   2.824  21.971  0.00  0.00    +0.178 C 
ATOM     39  C   UNL     1       6.664   2.216  22.664  0.00  0.00    +0.177 C 
ATOM     40  C   UNL     1       5.480   3.156  22.397  0.00  0.00    +0.179 C 
ATOM     41  C   UNL     1       5.790   4.598  22.831  0.00  0.00    +0.201 C 
ATOM     42  C   UNL     1       7.170   5.061  22.292  0.00  0.00    +0.282 C 
ATOM     43  O   UNL     1       8.178   4.091  22.577  0.00  0.00    -0.341 OA
BRANCH  41  44
ATOM     44  O   UNL     1       4.697   5.417  22.367  0.00  0.00    -0.384 OA
ATOM     45  H   UNL     1       3.860   5.001  22.639  0.00  0.00    +0.210 HD
ENDBRANCH  41  44
BRANCH  40  46
ATOM     46  O   UNL     1       4.292   2.692  23.047  0.00  0.00    -0.386 OA
ATOM     47  H   UNL     1       3.782   3.494  23.282  0.00  0.00    +0.210 HD
ENDBRANCH  40  46
BRANCH  39  48
ATOM     48  O   UNL     1       6.423   0.892  22.171  0.00  0.00    -0.386 OA
ATOM     49  H   UNL     1       7.251   0.536  21.807  0.00  0.00    +0.210 HD
ENDBRANCH  39  48
BRANCH  38  50
ATOM     50  C   UNL     1       9.112   1.910  22.014  0.00  0.00    +0.190 C 
BRANCH  50  51
ATOM     51  O   UNL     1       8.929   0.863  21.053  0.00  0.00    -0.392 OA
ATOM     52  H   UNL     1       9.558   1.025  20.330  0.00  0.00    +0.210 HD
ENDBRANCH  50  51
ENDBRANCH  38  50
ENDBRANCH  37  42
ENDBRANCH  36  37
ENDBRANCH  35  36
ENDBRANCH  34  35
ENDBRANCH  30  34
ENDBRANCH   1  32
BRANCH   3  53
ATOM     53  C   UNL     1       9.917  -0.043  25.068  0.00  0.00    +0.269 C 
BRANCH  53  54
ATOM     54  N   UNL     1       9.778  -0.776  23.808  0.00  0.00    +0.081 NA
ATOM     55  N   UNL     1       9.891  -2.012  23.901  0.00  0.00    -0.014 NA
ATOM     56  N   UNL     1       9.998  -3.142  23.995  0.00  0.00    -0.328 NA
ENDBRANCH  53  54
ENDBRANCH   3  53
TORSDOF 24
ENDMDL
MODEL 7
REMARK VINA RESULT:      -5.8      1.718      2.477
REMARK  Name = 
REMARK  24 active torsions:
REMARK  status: ('A' for Active; 'I' for Inactive)
REMARK    1  A    between atoms: O_1  and  C_2
REMARK    2  A    between atoms: C_2  and  C_3
REMARK    3  A    between atoms: C_6  and  O_8
REMARK    4  A    between atoms: O_8  and  C_9
REMARK    5  A    between atoms: C_9  and  C_10
REMARK    6  A    between atoms: C_10  and  C_11
REMARK    7  A    between atoms: C_11  and  N_12
REMARK    8  A    between atoms: C_13  and  C_15
REMARK    9  A    between atoms: C_17  and  C_25
REMARK   10  A    between atoms: C_19  and  C_20
REMARK   11  A    between atoms: C_20  and  N_21
REMARK   12  A    between atoms: N_27  and  C_28
REMARK   13  A    between atoms: C_28  and  C_29
REMARK   14  A    between atoms: C_29  and  C_30
REMARK   15  A    between atoms: C_30  and  O_31
REMARK   16  A    between atoms: O_31  and  C_32
REMARK   17  A    between atoms: C_35  and  C_37
REMARK   18  A    between atoms: C_37  and  O_38
REMARK   19  A    between atoms: C_39  and  O_41
REMARK   20  A    between atoms: C_42  and  O_44
REMARK   21  A    between atoms: C_45  and  O_47
REMARK   22  A    between atoms: C_48  and  O_50
REMARK   23  A    between atoms: C_51  and  O_53
REMARK   24  A    between atoms: C_54  and  O_56
REMARK                            x       y       z     vdW  Elec       q    Type
REMARK                         _______ _______ _______ _____ _____    ______ ____
ROOT
ATOM      1  C   UNL     1       6.643  -4.038  26.089  0.00  0.00    +0.038 A 
ATOM      2  C   UNL     1       6.912  -4.131  24.716  0.00  0.00    +0.018 A 
ATOM      3  C   UNL     1       6.644  -3.050  23.858  0.00  0.00    -0.018 A 
ATOM      4  C   UNL     1       6.126  -1.864  24.401  0.00  0.00    +0.018 A 
ATOM      5  C   UNL     1       5.845  -1.776  25.771  0.00  0.00    +0.038 A 
ATOM      6  C   UNL     1       6.101  -2.862  26.611  0.00  0.00    +0.026 A 
ENDROOT
BRANCH   5   7
ATOM      7  C   UNL     1       5.306  -0.538  26.393  0.00  0.00    +0.244 C 
ATOM      8  N   UNL     1       6.188   0.195  27.162  0.00  0.00    -0.311 N 
ATOM      9  H   UNL     1       7.156  -0.071  27.240  0.00  0.00    +0.149 HD
ATOM     10  O   UNL     1       4.138  -0.226  26.208  0.00  0.00    -0.270 OA
BRANCH   8  11
ATOM     11  C   UNL     1       5.739   1.398  27.836  0.00  0.00    +0.107 C 
BRANCH  11  12
ATOM     12  C   UNL     1       6.602   2.598  27.461  0.00  0.00    +0.047 C 
BRANCH  12  13
ATOM     13  C   UNL     1       6.330   3.085  26.043  0.00  0.00    +0.164 C 
BRANCH  13  14
ATOM     14  O   UNL     1       7.011   2.334  25.028  0.00  0.00    -0.349 OA
BRANCH  14  15
ATOM     15  C   UNL     1       7.932   3.119  24.262  0.00  0.00    +0.282 C 
ATOM     16  C   UNL     1       7.422   3.225  22.806  0.00  0.00    +0.201 C 
ATOM     17  C   UNL     1       7.622   1.889  22.071  0.00  0.00    +0.179 C 
ATOM     18  C   UNL     1       9.056   1.367  22.244  0.00  0.00    +0.177 C 
ATOM     19  C   UNL     1       9.501   1.349  23.719  0.00  0.00    +0.178 C 
ATOM     20  O   UNL     1       9.262   2.602  24.367  0.00  0.00    -0.341 OA
BRANCH  16  21
ATOM     21  O   UNL     1       8.061   4.328  22.149  0.00  0.00    -0.384 OA
ATOM     22  H   UNL     1       7.416   4.744  21.548  0.00  0.00    +0.210 HD
ENDBRANCH  16  21
BRANCH  17  23
ATOM     23  O   UNL     1       6.657   0.917  22.486  0.00  0.00    -0.386 OA
ATOM     24  H   UNL     1       6.257   1.216  23.327  0.00  0.00    +0.210 HD
ENDBRANCH  17  23
BRANCH  18  25
ATOM     25  O   UNL     1       9.919   2.231  21.478  0.00  0.00    -0.386 OA
ATOM     26  H   UNL     1       9.362   2.812  20.930  0.00  0.00    +0.210 HD
ENDBRANCH  18  25
BRANCH  19  27
ATOM     27  C   UNL     1       8.986   0.143  24.529  0.00  0.00    +0.190 C 
BRANCH  27  28
ATOM     28  O   UNL     1       9.020   0.395  25.927  0.00  0.00    -0.392 OA
ATOM     29  H   UNL     1       8.344  -0.157  26.354  0.00  0.00    +0.210 HD
ENDBRANCH  27  28
ENDBRANCH  19  27
ENDBRANCH  14  15
ENDBRANCH  13  14
ENDBRANCH  12  13
ENDBRANCH  11  12
ENDBRANCH   8  11
ENDBRANCH   5   7
BRANCH   1  32
ATOM     30  N   UNL     1       6.019  -5.265  28.100  0.00  0.00    -0.311 N 
ATOM     31  H   UNL     1       5.222  -4.647  28.157  0.00  0.00    +0.149 HD
ATOM     32  C   UNL     1       6.872  -5.177  27.020  0.00  0.00    +0.244 C 
ATOM     33  O   UNL     1       7.769  -5.978  26.787  0.00  0.00    -0.270 OA
BRANCH  30  34
ATOM     34  C   UNL     1       6.094  -6.372  29.043  0.00  0.00    +0.107 C 
BRANCH  34  35
ATOM     35  C   UNL     1       4.707  -6.895  29.405  0.00  0.00    +0.047 C 
BRANCH  35  36
ATOM     36  C   UNL     1       3.584  -6.122  28.715  0.00  0.00    +0.164 C 
BRANCH  36  37
ATOM     37  O   UNL     1       2.742  -6.994  27.959  0.00  0.00    -0.349 OA
BRANCH  37  42
ATOM     38  C   UNL     1       2.521  -4.574  25.258  0.00  0.00    +0.178 C 
ATOM     39  C   UNL     1       3.596  -5.103  24.307  0.00  0.00    +0.177 C 
ATOM     40  C   UNL     1       3.429  -6.628  24.243  0.00  0.00    +0.179 C 
ATOM     41  C   UNL     1       3.468  -7.262  25.643  0.00  0.00    +0.201 C 
ATOM     42  C   UNL     1       2.532  -6.509  26.626  0.00  0.00    +0.282 C 
ATOM     43  O   UNL     1       2.764  -5.101  26.570  0.00  0.00    -0.341 OA
BRANCH  41  44
ATOM     44  O   UNL     1       3.119  -8.652  25.481  0.00  0.00    -0.384 OA
ATOM     45  H   UNL     1       3.499  -8.972  24.645  0.00  0.00    +0.210 HD
ENDBRANCH  41  44
BRANCH  40  46
ATOM     46  O   UNL     1       4.425  -7.224  23.406  0.00  0.00    -0.386 OA
ATOM     47  H   UNL     1       4.363  -6.767  22.544  0.00  0.00    +0.210 HD
ENDBRANCH  40  46
BRANCH  39  48
ATOM     48  O   UNL     1       3.459  -4.492  23.017  0.00  0.00    -0.386 OA
ATOM     49  H   UNL     1       4.023  -4.965  22.383  0.00  0.00    +0.210 HD
ENDBRANCH  39  48
BRANCH  38  50
ATOM     50  C   UNL     1       2.459  -3.045  25.296  0.00  0.00    +0.190 C 
BRANCH  50  51
ATOM     51  O   UNL     1       2.276  -2.633  26.655  0.00  0.00    -0.392 OA
ATOM     52  H   UNL     1       3.156  -2.426  27.013  0.00  0.00    +0.210 HD
ENDBRANCH  50  51
ENDBRANCH  38  50
ENDBRANCH  37  42
ENDBRANCH  36  37
ENDBRANCH  35  36
ENDBRANCH  34  35
ENDBRANCH  30  34
ENDBRANCH   1  32
BRANCH   3  53
ATOM     53  C   UNL     1       6.930  -3.160  22.378  0.00  0.00    +0.269 C 
BRANCH  53  54
ATOM     54  N   UNL     1       5.751  -3.602  21.631  0.00  0.00    +0.081 NA
ATOM     55  N   UNL     1       5.718  -4.818  21.369  0.00  0.00    -0.014 NA
ATOM     56  N   UNL     1       5.698  -5.932  21.131  0.00  0.00    -0.328 NA
ENDBRANCH  53  54
ENDBRANCH   3  53
TORSDOF 24
ENDMDL
MODEL 8
REMARK VINA RESULT:      -5.8      2.404      4.979
REMARK  Name = 
REMARK  24 active torsions:
REMARK  status: ('A' for Active; 'I' for Inactive)
REMARK    1  A    between atoms: O_1  and  C_2
REMARK    2  A    between atoms: C_2  and  C_3
REMARK    3  A    between atoms: C_6  and  O_8
REMARK    4  A    between atoms: O_8  and  C_9
REMARK    5  A    between atoms: C_9  and  C_10
REMARK    6  A    between atoms: C_10  and  C_11
REMARK    7  A    between atoms: C_11  and  N_12
REMARK    8  A    between atoms: C_13  and  C_15
REMARK    9  A    between atoms: C_17  and  C_25
REMARK   10  A    between atoms: C_19  and  C_20
REMARK   11  A    between atoms: C_20  and  N_21
REMARK   12  A    between atoms: N_27  and  C_28
REMARK   13  A    between atoms: C_28  and  C_29
REMARK   14  A    between atoms: C_29  and  C_30
REMARK   15  A    between atoms: C_30  and  O_31
REMARK   16  A    between atoms: O_31  and  C_32
REMARK   17  A    between atoms: C_35  and  C_37
REMARK   18  A    between atoms: C_37  and  O_38
REMARK   19  A    between atoms: C_39  and  O_41
REMARK   20  A    between atoms: C_42  and  O_44
REMARK   21  A    between atoms: C_45  and  O_47
REMARK   22  A    between atoms: C_48  and  O_50
REMARK   23  A    between atoms: C_51  and  O_53
REMARK   24  A    between atoms: C_54  and  O_56
REMARK                            x       y       z     vdW  Elec       q    Type
REMARK                         _______ _______ _______ _____ _____    ______ ____
ROOT
ATOM      1  C   UNL     1       4.075  -2.395  26.036  0.00  0.00    +0.038 A 
ATOM      2  C   UNL     1       4.190  -1.175  26.718  0.00  0.00    +0.018 A 
ATOM      3  C   UNL     1       5.088  -0.188  26.275  0.00  0.00    -0.018 A 
ATOM      4  C   UNL     1       5.852  -0.432  25.123  0.00  0.00    +0.018 A 
ATOM      5  C   UNL     1       5.746  -1.656  24.449  0.00  0.00    +0.038 A 
ATOM      6  C   UNL     1       4.861  -2.635  24.908  0.00  0.00    +0.026 A 
ENDROOT
BRANCH   5   7
ATOM      7  C   UNL     1       6.525  -1.956  23.220  0.00  0.00    +0.244 C 
ATOM      8  N   UNL     1       7.870  -1.647  23.255  0.00  0.00    -0.311 N 
ATOM      9  H   UNL     1       8.301  -1.295  24.094  0.00  0.00    +0.149 HD
ATOM     10  O   UNL     1       5.962  -2.448  22.251  0.00  0.00    -0.270 OA
BRANCH   8  11
ATOM     11  C   UNL     1       8.700  -1.872  22.087  0.00  0.00    +0.107 C 
BRANCH  11  12
ATOM     12  C   UNL     1      10.047  -1.171  22.221  0.00  0.00    +0.047 C 
BRANCH  12  13
ATOM     13  C   UNL     1      10.132  -0.320  23.483  0.00  0.00    +0.164 C 
BRANCH  13  14
ATOM     14  O   UNL     1       9.226   0.791  23.500  0.00  0.00    -0.349 OA
BRANCH  14  15
ATOM     15  C   UNL     1       9.699   1.923  22.760  0.00  0.00    +0.282 C 
ATOM     16  C   UNL     1       9.958   3.095  23.734  0.00  0.00    +0.201 C 
ATOM     17  C   UNL     1       8.626   3.698  24.211  0.00  0.00    +0.179 C 
ATOM     18  C   UNL     1       7.696   4.001  23.027  0.00  0.00    +0.177 C 
ATOM     19  C   UNL     1       7.541   2.798  22.078  0.00  0.00    +0.178 C 
ATOM     20  O   UNL     1       8.805   2.251  21.693  0.00  0.00    -0.341 OA
BRANCH  16  21
ATOM     21  O   UNL     1      10.819   4.058  23.113  0.00  0.00    -0.384 OA
ATOM     22  H   UNL     1      11.297   3.621  22.385  0.00  0.00    +0.210 HD
ENDBRANCH  16  21
BRANCH  17  23
ATOM     23  O   UNL     1       7.988   2.854  25.175  0.00  0.00    -0.386 OA
ATOM     24  H   UNL     1       8.452   2.952  26.030  0.00  0.00    +0.210 HD
ENDBRANCH  17  23
BRANCH  18  25
ATOM     25  O   UNL     1       8.263   5.121  22.317  0.00  0.00    -0.386 OA
ATOM     26  H   UNL     1       7.542   5.594  21.865  0.00  0.00    +0.210 HD
ENDBRANCH  18  25
BRANCH  19  27
ATOM     27  C   UNL     1       6.543   1.726  22.561  0.00  0.00    +0.190 C 
BRANCH  27  28
ATOM     28  O   UNL     1       5.300   2.298  22.942  0.00  0.00    -0.392 OA
ATOM     29  H   UNL     1       4.622   2.004  22.312  0.00  0.00    +0.210 HD
ENDBRANCH  27  28
ENDBRANCH  19  27
ENDBRANCH  14  15
ENDBRANCH  13  14
ENDBRANCH  12  13
ENDBRANCH  11  12
ENDBRANCH   8  11
ENDBRANCH   5   7
BRANCH   1  32
ATOM     30  N   UNL     1       3.449  -4.024  27.736  0.00  0.00    -0.311 N 
ATOM     31  H   UNL     1       4.162  -3.604  28.316  0.00  0.00    +0.149 HD
ATOM     32  C   UNL     1       3.168  -3.480  26.501  0.00  0.00    +0.244 C 
ATOM     33  O   UNL     1       2.224  -3.822  25.800  0.00  0.00    -0.270 OA
BRANCH  30  34
ATOM     34  C   UNL     1       2.596  -5.041  28.334  0.00  0.00    +0.107 C 
BRANCH  34  35
ATOM     35  C   UNL     1       3.381  -6.307  28.668  0.00  0.00    +0.047 C 
BRANCH  35  36
ATOM     36  C   UNL     1       4.887  -6.139  28.470  0.00  0.00    +0.164 C 
BRANCH  36  37
ATOM     37  O   UNL     1       5.348  -6.883  27.342  0.00  0.00    -0.349 OA
BRANCH  37  42
ATOM     38  C   UNL     1       7.482  -5.052  25.040  0.00  0.00    +0.178 C 
ATOM     39  C   UNL     1       7.083  -5.687  23.707  0.00  0.00    +0.177 C 
ATOM     40  C   UNL     1       5.552  -5.808  23.706  0.00  0.00    +0.179 C 
ATOM     41  C   UNL     1       5.042  -6.571  24.940  0.00  0.00    +0.201 C 
ATOM     42  C   UNL     1       5.688  -6.027  26.242  0.00  0.00    +0.282 C 
ATOM     43  O   UNL     1       7.106  -5.936  26.106  0.00  0.00    -0.341 OA
BRANCH  41  44
ATOM     44  O   UNL     1       3.603  -6.461  24.932  0.00  0.00    -0.384 OA
ATOM     45  H   UNL     1       3.343  -5.841  24.229  0.00  0.00    +0.210 HD
ENDBRANCH  41  44
BRANCH  40  46
ATOM     46  O   UNL     1       5.082  -6.437  22.510  0.00  0.00    -0.386 OA
ATOM     47  H   UNL     1       5.548  -5.996  21.771  0.00  0.00    +0.210 HD
ENDBRANCH  40  46
BRANCH  39  48
ATOM     48  O   UNL     1       7.561  -4.890  22.616  0.00  0.00    -0.386 OA
ATOM     49  H   UNL     1       7.206  -3.990  22.705  0.00  0.00    +0.210 HD
ENDBRANCH  39  48
BRANCH  38  50
ATOM     50  C   UNL     1       8.974  -4.719  25.118  0.00  0.00    +0.190 C 
BRANCH  50  51
ATOM     51  O   UNL     1       9.713  -5.826  24.591  0.00  0.00    -0.392 OA
ATOM     52  H   UNL     1      10.643  -5.695  24.839  0.00  0.00    +0.210 HD
ENDBRANCH  50  51
ENDBRANCH  38  50
ENDBRANCH  37  42
ENDBRANCH  36  37
ENDBRANCH  35  36
ENDBRANCH  34  35
ENDBRANCH  30  34
ENDBRANCH   1  32
BRANCH   3  53
ATOM     53  C   UNL     1       5.213   1.122  27.018  0.00  0.00    +0.269 C 
BRANCH  53  54
ATOM     54  N   UNL     1       5.150   2.268  26.109  0.00  0.00    +0.081 NA
ATOM     55  N   UNL     1       4.046   2.448  25.563  0.00  0.00    -0.014 NA
ATOM     56  N   UNL     1       3.033   2.604  25.066  0.00  0.00    -0.328 NA
ENDBRANCH  53  54
ENDBRANCH   3  53
TORSDOF 24
ENDMDL
MODEL 9
REMARK VINA RESULT:      -5.8      2.773      4.783
REMARK  Name = 
REMARK  24 active torsions:
REMARK  status: ('A' for Active; 'I' for Inactive)
REMARK    1  A    between atoms: O_1  and  C_2
REMARK    2  A    between atoms: C_2  and  C_3
REMARK    3  A    between atoms: C_6  and  O_8
REMARK    4  A    between atoms: O_8  and  C_9
REMARK    5  A    between atoms: C_9  and  C_10
REMARK    6  A    between atoms: C_10  and  C_11
REMARK    7  A    between atoms: C_11  and  N_12
REMARK    8  A    between atoms: C_13  and  C_15
REMARK    9  A    between atoms: C_17  and  C_25
REMARK   10  A    between atoms: C_19  and  C_20
REMARK   11  A    between atoms: C_20  and  N_21
REMARK   12  A    between atoms: N_27  and  C_28
REMARK   13  A    between atoms: C_28  and  C_29
REMARK   14  A    between atoms: C_29  and  C_30
REMARK   15  A    between atoms: C_30  and  O_31
REMARK   16  A    between atoms: O_31  and  C_32
REMARK   17  A    between atoms: C_35  and  C_37
REMARK   18  A    between atoms: C_37  and  O_38
REMARK   19  A    between atoms: C_39  and  O_41
REMARK   20  A    between atoms: C_42  and  O_44
REMARK   21  A    between atoms: C_45  and  O_47
REMARK   22  A    between atoms: C_48  and  O_50
REMARK   23  A    between atoms: C_51  and  O_53
REMARK   24  A    between atoms: C_54  and  O_56
REMARK                            x       y       z     vdW  Elec       q    Type
REMARK                         _______ _______ _______ _____ _____    ______ ____
ROOT
ATOM      1  C   UNL     1       4.958  -1.769  26.699  0.00  0.00    +0.038 A 
ATOM      2  C   UNL     1       6.336  -2.015  26.602  0.00  0.00    +0.018 A 
ATOM      3  C   UNL     1       7.265  -0.979  26.806  0.00  0.00    -0.018 A 
ATOM      4  C   UNL     1       6.794   0.302  27.132  0.00  0.00    +0.018 A 
ATOM      5  C   UNL     1       5.417   0.550  27.215  0.00  0.00    +0.038 A 
ATOM      6  C   UNL     1       4.503  -0.483  26.996  0.00  0.00    +0.026 A 
ENDROOT
BRANCH   5   7
ATOM      7  C   UNL     1       4.871   1.887  27.569  0.00  0.00    +0.244 C 
ATOM      8  N   UNL     1       5.163   2.918  26.698  0.00  0.00    -0.311 N 
ATOM      9  H   UNL     1       5.667   2.750  25.844  0.00  0.00    +0.149 HD
ATOM     10  O   UNL     1       4.205   2.020  28.587  0.00  0.00    -0.270 OA
BRANCH   8  11
ATOM     11  C   UNL     1       4.701   4.263  26.982  0.00  0.00    +0.107 C 
BRANCH  11  12
ATOM     12  C   UNL     1       5.713   5.306  26.520  0.00  0.00    +0.047 C 
BRANCH  12  13
ATOM     13  C   UNL     1       7.078   4.695  26.225  0.00  0.00    +0.164 C 
BRANCH  13  14
ATOM     14  O   UNL     1       7.215   4.188  24.891  0.00  0.00    -0.349 OA
BRANCH  14  15
ATOM     15  C   UNL     1       7.968   2.972  24.818  0.00  0.00    +0.282 C 
ATOM     16  C   UNL     1       9.103   3.138  23.780  0.00  0.00    +0.201 C 
ATOM     17  C   UNL     1       8.529   3.116  22.353  0.00  0.00    +0.179 C 
ATOM     18  C   UNL     1       7.599   1.912  22.145  0.00  0.00    +0.177 C 
ATOM     19  C   UNL     1       6.537   1.791  23.254  0.00  0.00    +0.178 C 
ATOM     20  O   UNL     1       7.116   1.853  24.561  0.00  0.00    -0.341 OA
BRANCH  16  21
ATOM     21  O   UNL     1      10.106   2.138  23.997  0.00  0.00    -0.384 OA
ATOM     22  H   UNL     1      10.364   2.158  24.937  0.00  0.00    +0.210 HD
ENDBRANCH  16  21
BRANCH  17  23
ATOM     23  O   UNL     1       7.871   4.347  22.038  0.00  0.00    -0.386 OA
ATOM     24  H   UNL     1       7.991   4.530  21.085  0.00  0.00    +0.210 HD
ENDBRANCH  17  23
BRANCH  18  25
ATOM     25  O   UNL     1       8.429   0.733  22.123  0.00  0.00    -0.386 OA
ATOM     26  H   UNL     1       8.062   0.113  21.469  0.00  0.00    +0.210 HD
ENDBRANCH  18  25
BRANCH  19  27
ATOM     27  C   UNL     1       5.326   2.729  23.087  0.00  0.00    +0.190 C 
BRANCH  27  28
ATOM     28  O   UNL     1       4.216   2.300  23.863  0.00  0.00    -0.392 OA
ATOM     29  H   UNL     1       4.390   2.519  24.793  0.00  0.00    +0.210 HD
ENDBRANCH  27  28
ENDBRANCH  19  27
ENDBRANCH  14  15
ENDBRANCH  13  14
ENDBRANCH  12  13
ENDBRANCH  11  12
ENDBRANCH   8  11
ENDBRANCH   5   7
BRANCH   1  32
ATOM     30  N   UNL     1       4.081  -3.991  27.178  0.00  0.00    -0.311 N 
ATOM     31  H   UNL     1       4.766  -4.036  27.920  0.00  0.00    +0.149 HD
ATOM     32  C   UNL     1       3.945  -2.830  26.447  0.00  0.00    +0.244 C 
ATOM     33  O   UNL     1       3.047  -2.629  25.639  0.00  0.00    -0.270 OA
BRANCH  30  34
ATOM     34  C   UNL     1       3.114  -5.075  27.076  0.00  0.00    +0.107 C 
BRANCH  34  35
ATOM     35  C   UNL     1       3.763  -6.431  27.339  0.00  0.00    +0.047 C 
BRANCH  35  36
ATOM     36  C   UNL     1       4.801  -6.806  26.282  0.00  0.00    +0.164 C 
BRANCH  36  37
ATOM     37  O   UNL     1       6.032  -6.112  26.495  0.00  0.00    -0.349 OA
BRANCH  37  42
ATOM     38  C   UNL     1       6.356  -4.322  23.349  0.00  0.00    +0.178 C 
ATOM     39  C   UNL     1       7.639  -3.527  23.599  0.00  0.00    +0.177 C 
ATOM     40  C   UNL     1       8.639  -4.483  24.266  0.00  0.00    +0.179 C 
ATOM     41  C   UNL     1       8.049  -5.131  25.529  0.00  0.00    +0.201 C 
ATOM     42  C   UNL     1       6.630  -5.699  25.258  0.00  0.00    +0.282 C 
ATOM     43  O   UNL     1       5.808  -4.726  24.611  0.00  0.00    -0.341 OA
BRANCH  41  44
ATOM     44  O   UNL     1       8.989  -6.136  25.961  0.00  0.00    -0.384 OA
ATOM     45  H   UNL     1       8.504  -6.961  26.135  0.00  0.00    +0.210 HD
ENDBRANCH  41  44
BRANCH  40  46
ATOM     46  O   UNL     1       9.864  -3.815  24.583  0.00  0.00    -0.386 OA
ATOM     47  H   UNL     1       9.611  -2.935  24.926  0.00  0.00    +0.210 HD
ENDBRANCH  40  46
BRANCH  39  48
ATOM     48  O   UNL     1       8.142  -2.997  22.366  0.00  0.00    -0.386 OA
ATOM     49  H   UNL     1       9.104  -3.126  22.337  0.00  0.00    +0.210 HD
ENDBRANCH  39  48
BRANCH  38  50
ATOM     50  C   UNL     1       5.320  -3.540  22.538  0.00  0.00    +0.190 C 
BRANCH  50  51
ATOM     51  O   UNL     1       5.580  -2.141  22.700  0.00  0.00    -0.392 OA
ATOM     52  H   UNL     1       6.503  -2.054  22.993  0.00  0.00    +0.210 HD
ENDBRANCH  50  51
ENDBRANCH  38  50
ENDBRANCH  37  42
ENDBRANCH  36  37
ENDBRANCH  35  36
ENDBRANCH  34  35
ENDBRANCH  30  34
ENDBRANCH   1  32
BRANCH   3  53
ATOM     53  C   UNL     1       8.747  -1.249  26.694  0.00  0.00    +0.269 C 
BRANCH  53  54
ATOM     54  N   UNL     1       9.419  -0.244  25.866  0.00  0.00    +0.081 NA
ATOM     55  N   UNL     1       9.762  -0.635  24.736  0.00  0.00    -0.014 NA
ATOM     56  N   UNL     1      10.074  -1.003  23.704  0.00  0.00    -0.328 NA
ENDBRANCH  53  54
ENDBRANCH   3  53
TORSDOF 24
ENDMDL
