MODEL 1
REMARK VINA RESULT:      -7.6      0.000      0.000
REMARK  Name = 
REMARK  16 active torsions:
REMARK  status: ('A' for Active; 'I' for Inactive)
REMARK    1  A    between atoms: C_1  and  C_2
REMARK    2  A    between atoms: C_2  and  C_3
REMARK    3  A    between atoms: C_2  and  C_4
REMARK    4  A    between atoms: C_4  and  C_5
REMARK    5  A    between atoms: C_5  and  N_7
REMARK    6  A    between atoms: C_5  and  C_11
REMARK    7  A    between atoms: N_13  and  C_14
REMARK    8  A    between atoms: C_14  and  C_15
REMARK    9  A    between atoms: C_20  and  C_23
REMARK   10  A    between atoms: C_25  and  C_29
REMARK   11  A    between atoms: N_27  and  C_28
REMARK   12  A    between atoms: C_34  and  O_35
REMARK   13  A    between atoms: O_35  and  C_36
REMARK   14  A    between atoms: C_36  and  C_37
REMARK   15  A    between atoms: C_40  and  N_41
REMARK   16  A    between atoms: C_42  and  C_43
REMARK                            x       y       z     vdW  Elec       q    Type
REMARK                         _______ _______ _______ _____ _____    ______ ____
ROOT
ATOM      1  C   UNL     1      10.209   4.952  23.729  0.00  0.00    +0.043 A 
ATOM      2  N   UNL     1      11.449   4.440  23.437  0.00  0.00    -0.271 N 
ATOM      3  C   UNL     1      12.686   5.054  23.029  0.00  0.00    +0.172 C 
ATOM      4  N   UNL     1      11.517   3.109  23.527  0.00  0.00    -0.171 NA
ATOM      5  C   UNL     1      10.315   2.716  23.900  0.00  0.00    +0.094 A 
ATOM      6  C   UNL     1       9.438   3.827  24.000  0.00  0.00    +0.053 A 
ENDROOT
BRANCH   1  11
ATOM      7  C   UNL     1       5.839   6.798  25.639  0.00  0.00    +0.233 C 
ATOM      8  N   UNL     1       7.073   6.727  24.983  0.00  0.00    -0.300 N 
ATOM      9  C   UNL     1       8.242   6.789  25.847  0.00  0.00    +0.108 C 
ATOM     10  C   UNL     1       9.565   7.048  25.134  0.00  0.00    +0.028 C 
ATOM     11  C   UNL     1       9.719   6.384  23.770  0.00  0.00    +0.040 C 
ATOM     12  C   UNL     1       8.449   6.578  22.939  0.00  0.00    +0.028 C 
ATOM     13  C   UNL     1       7.223   6.076  23.679  0.00  0.00    +0.108 C 
ATOM     14  O   UNL     1       5.755   7.023  26.850  0.00  0.00    -0.274 OA
BRANCH   7  15
ATOM     15  C   UNL     1       4.576   6.668  24.797  0.00  0.00    +0.200 C 
BRANCH  15  17
ATOM     16  C   UNL     1       4.021   4.846  23.233  0.00  0.00    +0.254 C 
ATOM     17  N   UNL     1       4.340   5.271  24.500  0.00  0.00    -0.304 N 
ATOM     18  H   UNL     1       4.668   4.556  25.146  0.00  0.00    +0.149 HD
ATOM     19  O   UNL     1       3.806   5.638  22.318  0.00  0.00    -0.272 OA
BRANCH  16  20
ATOM     20  C   UNL     1       3.838   3.319  23.082  0.00  0.00    +0.273 C 
BRANCH  20  21
ATOM     21  N   UNL     1       2.404   2.992  23.043  0.00  0.00    -0.101 NA
ATOM     22  C   UNL     1       1.757   2.966  21.942  0.00  0.00    +0.377 C 
ATOM     23  N   UNL     1       0.444   2.649  21.968  0.00  0.00    -0.289 N 
ATOM     24  H   UNL     1       0.106   2.058  21.221  0.00  0.00    +0.255 HD
ATOM     25  H   UNL     1       0.163   2.300  22.877  0.00  0.00    +0.255 HD
ATOM     26  N   UNL     1       2.154   3.259  20.686  0.00  0.00    -0.289 N 
ATOM     27  H   UNL     1       1.694   2.771  19.931  0.00  0.00    +0.255 HD
ATOM     28  H   UNL     1       3.137   3.404  20.515  0.00  0.00    +0.255 HD
ENDBRANCH  20  21
BRANCH  20  29
ATOM     29  C   UNL     1       4.509   2.629  24.283  0.00  0.00    +0.057 C 
BRANCH  29  31
ATOM     30  C   UNL     1       6.102   0.640  24.518  0.00  0.00    +0.007 C 
ATOM     31  C   UNL     1       5.934   2.089  24.061  0.00  0.00    -0.013 C 
ATOM     32  C   UNL     1       6.290   2.182  22.570  0.00  0.00    +0.007 C 
ENDBRANCH  29  31
ENDBRANCH  20  29
ENDBRANCH  16  20
ENDBRANCH  15  17
ENDBRANCH   7  15
ENDBRANCH   1  11
BRANCH   5  33
ATOM     33  C   UNL     1      10.029   1.302  23.987  0.00  0.00    +0.022 A 
ATOM     34  C   UNL     1      10.081   0.748  25.268  0.00  0.00    +0.015 A 
ATOM     35  C   UNL     1       9.685  -0.557  25.474  0.00  0.00    +0.048 A 
ATOM     36  C   UNL     1       9.281  -1.358  24.399  0.00  0.00    +0.141 A 
ATOM     37  C   UNL     1       9.202  -0.810  23.107  0.00  0.00    +0.101 A 
ATOM     38 CL   UNL     1       8.645  -1.813  21.799  0.00  0.00    -0.078 Cl
ATOM     39  C   UNL     1       9.580   0.526  22.893  0.00  0.00    +0.072 A 
ATOM     40 CL   UNL     1       9.509   1.195  21.284  0.00  0.00    -0.081 Cl
BRANCH  36  41
ATOM     41  O   UNL     1       8.959  -2.684  24.563  0.00  0.00    -0.486 OA
BRANCH  41  42
ATOM     42  C   UNL     1       7.864  -2.893  25.456  0.00  0.00    +0.264 C 
BRANCH  42  43
ATOM     43  C   UNL     1       6.790  -3.734  24.839  0.00  0.00    -0.010 A 
ATOM     44  C   UNL     1       6.535  -5.041  25.254  0.00  0.00    +0.009 A 
ATOM     45  C   UNL     1       5.549  -5.795  24.612  0.00  0.00    +0.024 A 
ATOM     46  C   UNL     1       4.819  -5.255  23.546  0.00  0.00    +0.033 A 
ATOM     47  C   UNL     1       5.090  -3.955  23.127  0.00  0.00    +0.024 A 
ATOM     48  C   UNL     1       6.070  -3.200  23.764  0.00  0.00    +0.009 A 
BRANCH  46  49
ATOM     49  N   UNL     1       3.814  -6.047  22.963  0.00  0.00    -0.286 N 
ATOM     50  H   UNL     1       4.128  -6.779  22.340  0.00  0.00    +0.155 HD
ATOM     51  C   UNL     1       2.448  -5.886  23.125  0.00  0.00    +0.214 C 
ATOM     52  O   UNL     1       1.878  -4.957  23.687  0.00  0.00    -0.276 OA
ATOM     53  C   UNL     1       1.651  -6.985  22.481  0.00  0.00    +0.109 C 
ENDBRANCH  46  49
ENDBRANCH  42  43
ENDBRANCH  41  42
ENDBRANCH  36  41
ENDBRANCH   5  33
TORSDOF 12
ENDMDL
MODEL 2
REMARK VINA RESULT:      -7.3      1.731      2.633
REMARK  Name = 
REMARK  16 active torsions:
REMARK  status: ('A' for Active; 'I' for Inactive)
REMARK    1  A    between atoms: C_1  and  C_2
REMARK    2  A    between atoms: C_2  and  C_3
REMARK    3  A    between atoms: C_2  and  C_4
REMARK    4  A    between atoms: C_4  and  C_5
REMARK    5  A    between atoms: C_5  and  N_7
REMARK    6  A    between atoms: C_5  and  C_11
REMARK    7  A    between atoms: N_13  and  C_14
REMARK    8  A    between atoms: C_14  and  C_15
REMARK    9  A    between atoms: C_20  and  C_23
REMARK   10  A    between atoms: C_25  and  C_29
REMARK   11  A    between atoms: N_27  and  C_28
REMARK   12  A    between atoms: C_34  and  O_35
REMARK   13  A    between atoms: O_35  and  C_36
REMARK   14  A    between atoms: C_36  and  C_37
REMARK   15  A    between atoms: C_40  and  N_41
REMARK   16  A    between atoms: C_42  and  C_43
REMARK                            x       y       z     vdW  Elec       q    Type
REMARK                         _______ _______ _______ _____ _____    ______ ____
ROOT
ATOM      1  C   UNL     1      10.170   4.962  23.840  0.00  0.00    +0.043 A 
ATOM      2  N   UNL     1      11.365   4.371  23.512  0.00  0.00    -0.271 N 
ATOM      3  C   UNL     1      12.682   4.904  23.272  0.00  0.00    +0.172 C 
ATOM      4  N   UNL     1      11.288   3.046  23.362  0.00  0.00    -0.171 NA
ATOM      5  C   UNL     1      10.031   2.733  23.609  0.00  0.00    +0.094 A 
ATOM      6  C   UNL     1       9.271   3.902  23.871  0.00  0.00    +0.053 A 
ENDROOT
BRANCH   1  11
ATOM      7  C   UNL     1       5.876   6.935  25.796  0.00  0.00    +0.233 C 
ATOM      8  N   UNL     1       7.145   6.839  25.212  0.00  0.00    -0.300 N 
ATOM      9  C   UNL     1       8.241   6.608  26.142  0.00  0.00    +0.108 C 
ATOM     10  C   UNL     1       9.637   6.833  25.570  0.00  0.00    +0.028 C 
ATOM     11  C   UNL     1       9.830   6.411  24.118  0.00  0.00    +0.040 C 
ATOM     12  C   UNL     1       8.658   6.898  23.263  0.00  0.00    +0.028 C 
ATOM     13  C   UNL     1       7.330   6.418  23.821  0.00  0.00    +0.108 C 
ATOM     14  O   UNL     1       5.719   6.949  27.020  0.00  0.00    -0.274 OA
BRANCH   7  15
ATOM     15  C   UNL     1       4.678   7.107  24.869  0.00  0.00    +0.200 C 
BRANCH  15  17
ATOM     16  C   UNL     1       3.871   5.399  23.288  0.00  0.00    +0.254 C 
ATOM     17  N   UNL     1       4.110   5.809  24.577  0.00  0.00    -0.304 N 
ATOM     18  H   UNL     1       4.130   5.078  25.285  0.00  0.00    +0.149 HD
ATOM     19  O   UNL     1       4.017   6.155  22.329  0.00  0.00    -0.272 OA
BRANCH  16  20
ATOM     20  C   UNL     1       3.295   3.972  23.150  0.00  0.00    +0.273 C 
BRANCH  20  21
ATOM     21  N   UNL     1       4.292   3.093  22.519  0.00  0.00    -0.101 NA
ATOM     22  C   UNL     1       5.172   2.478  23.212  0.00  0.00    +0.377 C 
ATOM     23  N   UNL     1       6.054   1.677  22.577  0.00  0.00    -0.289 N 
ATOM     24  H   UNL     1       6.287   0.807  23.036  0.00  0.00    +0.255 HD
ATOM     25  H   UNL     1       5.795   1.531  21.609  0.00  0.00    +0.255 HD
ATOM     26  N   UNL     1       5.428   2.520  24.536  0.00  0.00    -0.289 N 
ATOM     27  H   UNL     1       5.812   1.687  24.959  0.00  0.00    +0.255 HD
ATOM     28  H   UNL     1       4.774   2.996  25.137  0.00  0.00    +0.255 HD
ENDBRANCH  20  21
BRANCH  20  29
ATOM     29  C   UNL     1       2.024   4.043  22.285  0.00  0.00    +0.057 C 
BRANCH  29  31
ATOM     30  C   UNL     1       1.251   2.297  20.581  0.00  0.00    +0.007 C 
ATOM     31  C   UNL     1       2.140   3.512  20.844  0.00  0.00    -0.013 C 
ATOM     32  C   UNL     1       1.762   4.625  19.856  0.00  0.00    +0.007 C 
ENDBRANCH  29  31
ENDBRANCH  20  29
ENDBRANCH  16  20
ENDBRANCH  15  17
ENDBRANCH   7  15
ENDBRANCH   1  11
BRANCH   5  33
ATOM     33  C   UNL     1       9.596   1.367  23.428  0.00  0.00    +0.022 A 
ATOM     34  C   UNL     1      10.041   0.734  22.266  0.00  0.00    +0.015 A 
ATOM     35  C   UNL     1       9.799  -0.610  22.074  0.00  0.00    +0.048 A 
ATOM     36  C   UNL     1       9.059  -1.343  23.011  0.00  0.00    +0.141 A 
ATOM     37  C   UNL     1       8.622  -0.726  24.195  0.00  0.00    +0.101 A 
ATOM     38 CL   UNL     1       7.751  -1.674  25.366  0.00  0.00    -0.078 Cl
ATOM     39  C   UNL     1       8.885   0.636  24.410  0.00  0.00    +0.072 A 
ATOM     40 CL   UNL     1       8.317   1.406  25.868  0.00  0.00    -0.081 Cl
BRANCH  36  41
ATOM     41  O   UNL     1       8.734  -2.662  22.806  0.00  0.00    -0.486 OA
BRANCH  41  42
ATOM     42  C   UNL     1       7.748  -2.850  21.790  0.00  0.00    +0.264 C 
BRANCH  42  43
ATOM     43  C   UNL     1       6.704  -3.843  22.199  0.00  0.00    -0.010 A 
ATOM     44  C   UNL     1       6.788  -5.194  21.864  0.00  0.00    +0.009 A 
ATOM     45  C   UNL     1       5.763  -6.068  22.234  0.00  0.00    +0.024 A 
ATOM     46  C   UNL     1       4.642  -5.598  22.931  0.00  0.00    +0.033 A 
ATOM     47  C   UNL     1       4.558  -4.245  23.247  0.00  0.00    +0.024 A 
ATOM     48  C   UNL     1       5.577  -3.372  22.882  0.00  0.00    +0.009 A 
BRANCH  46  49
ATOM     49  N   UNL     1       3.659  -6.530  23.310  0.00  0.00    -0.286 N 
ATOM     50  H   UNL     1       2.912  -6.686  22.645  0.00  0.00    +0.155 HD
ATOM     51  C   UNL     1       3.596  -7.209  24.515  0.00  0.00    +0.214 C 
ATOM     52  O   UNL     1       4.298  -7.020  25.503  0.00  0.00    -0.276 OA
ATOM     53  C   UNL     1       2.502  -8.237  24.549  0.00  0.00    +0.109 C 
ENDBRANCH  46  49
ENDBRANCH  42  43
ENDBRANCH  41  42
ENDBRANCH  36  41
ENDBRANCH   5  33
TORSDOF 12
ENDMDL
MODEL 3
REMARK VINA RESULT:      -7.0      3.457      9.459
REMARK  Name = 
REMARK  16 active torsions:
REMARK  status: ('A' for Active; 'I' for Inactive)
REMARK    1  A    between atoms: C_1  and  C_2
REMARK    2  A    between atoms: C_2  and  C_3
REMARK    3  A    between atoms: C_2  and  C_4
REMARK    4  A    between atoms: C_4  and  C_5
REMARK    5  A    between atoms: C_5  and  N_7
REMARK    6  A    between atoms: C_5  and  C_11
REMARK    7  A    between atoms: N_13  and  C_14
REMARK    8  A    between atoms: C_14  and  C_15
REMARK    9  A    between atoms: C_20  and  C_23
REMARK   10  A    between atoms: C_25  and  C_29
REMARK   11  A    between atoms: N_27  and  C_28
REMARK   12  A    between atoms: C_34  and  O_35
REMARK   13  A    between atoms: O_35  and  C_36
REMARK   14  A    between atoms: C_36  and  C_37
REMARK   15  A    between atoms: C_40  and  N_41
REMARK   16  A    between atoms: C_42  and  C_43
REMARK                            x       y       z     vdW  Elec       q    Type
REMARK                         _______ _______ _______ _____ _____    ______ ____
ROOT
ATOM      1  C   UNL     1       9.255   1.844  22.760  0.00  0.00    +0.043 A 
ATOM      2  N   UNL     1       9.489   3.106  23.245  0.00  0.00    -0.271 N 
ATOM      3  C   UNL     1      10.677   3.757  23.735  0.00  0.00    +0.172 C 
ATOM      4  N   UNL     1       8.398   3.876  23.295  0.00  0.00    -0.171 NA
ATOM      5  C   UNL     1       7.417   3.133  22.823  0.00  0.00    +0.094 A 
ATOM      6  C   UNL     1       7.887   1.830  22.512  0.00  0.00    +0.053 A 
ENDROOT
BRANCH   1  11
ATOM      7  C   UNL     1       8.558  -3.132  23.716  0.00  0.00    +0.233 C 
ATOM      8  N   UNL     1       9.166  -1.925  23.354  0.00  0.00    -0.300 N 
ATOM      9  C   UNL     1       8.897  -1.475  21.996  0.00  0.00    +0.108 C 
ATOM     10  C   UNL     1       9.805  -0.360  21.488  0.00  0.00    +0.028 C 
ATOM     11  C   UNL     1      10.202   0.687  22.522  0.00  0.00    +0.040 C 
ATOM     12  C   UNL     1      10.622   0.011  23.829  0.00  0.00    +0.028 C 
ATOM     13  C   UNL     1       9.533  -0.911  24.346  0.00  0.00    +0.108 C 
ATOM     14  O   UNL     1       7.944  -3.825  22.900  0.00  0.00    -0.274 OA
BRANCH   7  15
ATOM     15  C   UNL     1       8.743  -3.621  25.147  0.00  0.00    +0.200 C 
BRANCH  15  17
ATOM     16  C   UNL     1       6.500  -4.237  25.960  0.00  0.00    +0.254 C 
ATOM     17  N   UNL     1       7.724  -4.602  25.453  0.00  0.00    -0.304 N 
ATOM     18  H   UNL     1       7.784  -5.535  25.051  0.00  0.00    +0.149 HD
ATOM     19  O   UNL     1       6.253  -3.078  26.288  0.00  0.00    -0.272 OA
BRANCH  16  20
ATOM     20  C   UNL     1       5.515  -5.403  26.196  0.00  0.00    +0.273 C 
BRANCH  20  21
ATOM     21  N   UNL     1       6.093  -6.355  27.158  0.00  0.00    -0.101 NA
ATOM     22  C   UNL     1       5.904  -6.229  28.415  0.00  0.00    +0.377 C 
ATOM     23  N   UNL     1       6.451  -7.141  29.248  0.00  0.00    -0.289 N 
ATOM     24  H   UNL     1       5.886  -7.433  30.033  0.00  0.00    +0.255 HD
ATOM     25  H   UNL     1       6.824  -7.934  28.739  0.00  0.00    +0.255 HD
ATOM     26  N   UNL     1       5.258  -5.271  29.110  0.00  0.00    -0.289 N 
ATOM     27  H   UNL     1       4.826  -5.544  29.982  0.00  0.00    +0.255 HD
ATOM     28  H   UNL     1       4.713  -4.592  28.602  0.00  0.00    +0.255 HD
ENDBRANCH  20  21
BRANCH  20  29
ATOM     29  C   UNL     1       5.256  -6.099  24.847  0.00  0.00    +0.057 C 
BRANCH  29  31
ATOM     30  C   UNL     1       5.160  -5.675  22.326  0.00  0.00    +0.007 C 
ATOM     31  C   UNL     1       4.705  -5.218  23.711  0.00  0.00    -0.013 C 
ATOM     32  C   UNL     1       3.170  -5.226  23.755  0.00  0.00    +0.007 C 
ENDBRANCH  29  31
ENDBRANCH  20  29
ENDBRANCH  16  20
ENDBRANCH  15  17
ENDBRANCH   7  15
ENDBRANCH   1  11
BRANCH   5  33
ATOM     33  C   UNL     1       6.068   3.649  22.840  0.00  0.00    +0.022 A 
ATOM     34  C   UNL     1       5.093   2.791  23.352  0.00  0.00    +0.015 A 
ATOM     35  C   UNL     1       3.804   3.243  23.544  0.00  0.00    +0.048 A 
ATOM     36  C   UNL     1       3.443   4.546  23.179  0.00  0.00    +0.141 A 
ATOM     37  C   UNL     1       4.417   5.429  22.682  0.00  0.00    +0.101 A 
ATOM     38 CL   UNL     1       3.952   7.059  22.286  0.00  0.00    -0.078 Cl
ATOM     39  C   UNL     1       5.737   4.984  22.507  0.00  0.00    +0.072 A 
ATOM     40 CL   UNL     1       6.937   6.074  21.863  0.00  0.00    -0.081 Cl
BRANCH  36  41
ATOM     41  O   UNL     1       2.149   4.996  23.283  0.00  0.00    -0.486 OA
BRANCH  41  42
ATOM     42  C   UNL     1       1.208   4.173  22.594  0.00  0.00    +0.264 C 
BRANCH  42  43
ATOM     43  C   UNL     1       1.222   4.420  21.117  0.00  0.00    -0.010 A 
ATOM     44  C   UNL     1       1.840   3.550  20.221  0.00  0.00    +0.009 A 
ATOM     45  C   UNL     1       1.860   3.853  18.857  0.00  0.00    +0.024 A 
ATOM     46  C   UNL     1       1.274   5.032  18.380  0.00  0.00    +0.033 A 
ATOM     47  C   UNL     1       0.672   5.904  19.283  0.00  0.00    +0.024 A 
ATOM     48  C   UNL     1       0.648   5.605  20.641  0.00  0.00    +0.009 A 
BRANCH  46  49
ATOM     49  N   UNL     1       1.291   5.267  16.993  0.00  0.00    -0.286 N 
ATOM     50  H   UNL     1       0.807   4.590  16.420  0.00  0.00    +0.155 HD
ATOM     51  C   UNL     1       1.945   6.303  16.348  0.00  0.00    +0.214 C 
ATOM     52  O   UNL     1       2.723   7.108  16.848  0.00  0.00    -0.276 OA
ATOM     53  C   UNL     1       1.648   6.352  14.876  0.00  0.00    +0.109 C 
ENDBRANCH  46  49
ENDBRANCH  42  43
ENDBRANCH  41  42
ENDBRANCH  36  41
ENDBRANCH   5  33
TORSDOF 12
ENDMDL
MODEL 4
REMARK VINA RESULT:      -7.0      1.968      2.439
REMARK  Name = 
REMARK  16 active torsions:
REMARK  status: ('A' for Active; 'I' for Inactive)
REMARK    1  A    between atoms: C_1  and  C_2
REMARK    2  A    between atoms: C_2  and  C_3
REMARK    3  A    between atoms: C_2  and  C_4
REMARK    4  A    between atoms: C_4  and  C_5
REMARK    5  A    between atoms: C_5  and  N_7
REMARK    6  A    between atoms: C_5  and  C_11
REMARK    7  A    between atoms: N_13  and  C_14
REMARK    8  A    between atoms: C_14  and  C_15
REMARK    9  A    between atoms: C_20  and  C_23
REMARK   10  A    between atoms: C_25  and  C_29
REMARK   11  A    between atoms: N_27  and  C_28
REMARK   12  A    between atoms: C_34  and  O_35
REMARK   13  A    between atoms: O_35  and  C_36
REMARK   14  A    between atoms: C_36  and  C_37
REMARK   15  A    between atoms: C_40  and  N_41
REMARK   16  A    between atoms: C_42  and  C_43
REMARK                            x       y       z     vdW  Elec       q    Type
REMARK                         _______ _______ _______ _____ _____    ______ ____
ROOT
ATOM      1  C   UNL     1      10.275   4.856  23.754  0.00  0.00    +0.043 A 
ATOM      2  N   UNL     1      11.489   4.303  23.433  0.00  0.00    -0.271 N 
ATOM      3  C   UNL     1      12.808   4.865  23.285  0.00  0.00    +0.172 C 
ATOM      4  N   UNL     1      11.436   2.991  23.187  0.00  0.00    -0.171 NA
ATOM      5  C   UNL     1      10.175   2.648  23.359  0.00  0.00    +0.094 A 
ATOM      6  C   UNL     1       9.389   3.786  23.674  0.00  0.00    +0.053 A 
ENDROOT
BRANCH   1  11
ATOM      7  C   UNL     1       5.964   6.606  25.879  0.00  0.00    +0.233 C 
ATOM      8  N   UNL     1       7.226   6.575  25.275  0.00  0.00    -0.300 N 
ATOM      9  C   UNL     1       8.341   6.317  26.174  0.00  0.00    +0.108 C 
ATOM     10  C   UNL     1       9.723   6.609  25.598  0.00  0.00    +0.028 C 
ATOM     11  C   UNL     1       9.904   6.277  24.122  0.00  0.00    +0.040 C 
ATOM     12  C   UNL     1       8.708   6.784  23.312  0.00  0.00    +0.028 C 
ATOM     13  C   UNL     1       7.402   6.241  23.859  0.00  0.00    +0.108 C 
ATOM     14  O   UNL     1       5.825   6.544  27.105  0.00  0.00    -0.274 OA
BRANCH   7  15
ATOM     15  C   UNL     1       4.749   6.802  24.981  0.00  0.00    +0.200 C 
BRANCH  15  17
ATOM     16  C   UNL     1       4.231   5.306  23.092  0.00  0.00    +0.254 C 
ATOM     17  N   UNL     1       4.339   5.522  24.445  0.00  0.00    -0.304 N 
ATOM     18  H   UNL     1       4.388   4.691  25.030  0.00  0.00    +0.149 HD
ATOM     19  O   UNL     1       4.362   6.218  22.278  0.00  0.00    -0.272 OA
BRANCH  16  20
ATOM     20  C   UNL     1       3.817   3.874  22.689  0.00  0.00    +0.273 C 
BRANCH  20  21
ATOM     21  N   UNL     1       2.356   3.806  22.524  0.00  0.00    -0.101 NA
ATOM     22  C   UNL     1       1.797   4.091  21.411  0.00  0.00    +0.377 C 
ATOM     23  N   UNL     1       0.453   4.000  21.318  0.00  0.00    -0.289 N 
ATOM     24  H   UNL     1       0.084   3.622  20.457  0.00  0.00    +0.255 HD
ATOM     25  H   UNL     1       0.053   3.544  22.129  0.00  0.00    +0.255 HD
ATOM     26  N   UNL     1       2.329   4.536  20.254  0.00  0.00    -0.289 N 
ATOM     27  H   UNL     1       1.857   4.280  19.399  0.00  0.00    +0.255 HD
ATOM     28  H   UNL     1       3.333   4.543  20.158  0.00  0.00    +0.255 HD
ENDBRANCH  20  21
BRANCH  20  29
ATOM     29  C   UNL     1       4.273   2.907  23.796  0.00  0.00    +0.057 C 
BRANCH  29  31
ATOM     30  C   UNL     1       6.346   2.837  25.295  0.00  0.00    +0.007 C 
ATOM     31  C   UNL     1       5.785   2.629  23.889  0.00  0.00    -0.013 C 
ATOM     32  C   UNL     1       6.068   1.185  23.453  0.00  0.00    +0.007 C 
ENDBRANCH  29  31
ENDBRANCH  20  29
ENDBRANCH  16  20
ENDBRANCH  15  17
ENDBRANCH   7  15
ENDBRANCH   1  11
BRANCH   5  33
ATOM     33  C   UNL     1       9.765   1.294  23.064  0.00  0.00    +0.022 A 
ATOM     34  C   UNL     1       9.336   1.058  21.757  0.00  0.00    +0.015 A 
ATOM     35  C   UNL     1       9.062  -0.228  21.339  0.00  0.00    +0.048 A 
ATOM     36  C   UNL     1       9.156  -1.303  22.231  0.00  0.00    +0.141 A 
ATOM     37  C   UNL     1       9.607  -1.086  23.544  0.00  0.00    +0.101 A 
ATOM     38 CL   UNL     1       9.765  -2.448  24.616  0.00  0.00    -0.078 Cl
ATOM     39  C   UNL     1       9.911   0.217  23.970  0.00  0.00    +0.072 A 
ATOM     40 CL   UNL     1      10.443   0.487  25.610  0.00  0.00    -0.081 Cl
BRANCH  36  41
ATOM     41  O   UNL     1       8.811  -2.581  21.865  0.00  0.00    -0.486 OA
BRANCH  41  42
ATOM     42  C   UNL     1       7.400  -2.781  21.772  0.00  0.00    +0.264 C 
BRANCH  42  43
ATOM     43  C   UNL     1       6.859  -3.518  22.958  0.00  0.00    -0.010 A 
ATOM     44  C   UNL     1       6.142  -2.880  23.969  0.00  0.00    +0.009 A 
ATOM     45  C   UNL     1       5.698  -3.610  25.075  0.00  0.00    +0.024 A 
ATOM     46  C   UNL     1       5.977  -4.977  25.185  0.00  0.00    +0.033 A 
ATOM     47  C   UNL     1       6.708  -5.604  24.180  0.00  0.00    +0.024 A 
ATOM     48  C   UNL     1       7.150  -4.882  23.076  0.00  0.00    +0.009 A 
BRANCH  46  49
ATOM     49  N   UNL     1       5.473  -5.669  26.302  0.00  0.00    -0.286 N 
ATOM     50  H   UNL     1       4.530  -6.025  26.219  0.00  0.00    +0.155 HD
ATOM     51  C   UNL     1       6.127  -5.861  27.508  0.00  0.00    +0.214 C 
ATOM     52  O   UNL     1       7.187  -5.356  27.859  0.00  0.00    -0.276 OA
ATOM     53  C   UNL     1       5.372  -6.763  28.443  0.00  0.00    +0.109 C 
ENDBRANCH  46  49
ENDBRANCH  42  43
ENDBRANCH  41  42
ENDBRANCH  36  41
ENDBRANCH   5  33
TORSDOF 12
ENDMDL
MODEL 5
REMARK VINA RESULT:      -6.7      3.547      8.014
REMARK  Name = 
REMARK  16 active torsions:
REMARK  status: ('A' for Active; 'I' for Inactive)
REMARK    1  A    between atoms: C_1  and  C_2
REMARK    2  A    between atoms: C_2  and  C_3
REMARK    3  A    between atoms: C_2  and  C_4
REMARK    4  A    between atoms: C_4  and  C_5
REMARK    5  A    between atoms: C_5  and  N_7
REMARK    6  A    between atoms: C_5  and  C_11
REMARK    7  A    between atoms: N_13  and  C_14
REMARK    8  A    between atoms: C_14  and  C_15
REMARK    9  A    between atoms: C_20  and  C_23
REMARK   10  A    between atoms: C_25  and  C_29
REMARK   11  A    between atoms: N_27  and  C_28
REMARK   12  A    between atoms: C_34  and  O_35
REMARK   13  A    between atoms: O_35  and  C_36
REMARK   14  A    between atoms: C_36  and  C_37
REMARK   15  A    between atoms: C_40  and  N_41
REMARK   16  A    between atoms: C_42  and  C_43
REMARK                            x       y       z     vdW  Elec       q    Type
REMARK                         _______ _______ _______ _____ _____    ______ ____
ROOT
ATOM      1  C   UNL     1       3.741   1.281  27.646  0.00  0.00    +0.043 A 
ATOM      2  N   UNL     1       3.357   2.462  27.063  0.00  0.00    -0.271 N 
ATOM      3  C   UNL     1       2.213   3.317  27.252  0.00  0.00    +0.172 C 
ATOM      4  N   UNL     1       4.197   2.895  26.118  0.00  0.00    -0.171 NA
ATOM      5  C   UNL     1       5.169   2.005  26.072  0.00  0.00    +0.094 A 
ATOM      6  C   UNL     1       4.914   0.944  26.979  0.00  0.00    +0.053 A 
ENDROOT
BRANCH   1  11
ATOM      7  C   UNL     1       3.350  -3.797  28.114  0.00  0.00    +0.233 C 
ATOM      8  N   UNL     1       3.193  -2.428  28.358  0.00  0.00    -0.300 N 
ATOM      9  C   UNL     1       4.299  -1.790  29.057  0.00  0.00    +0.108 C 
ATOM     10  C   UNL     1       4.001  -0.402  29.616  0.00  0.00    +0.028 C 
ATOM     11  C   UNL     1       3.099   0.474  28.755  0.00  0.00    +0.040 C 
ATOM     12  C   UNL     1       1.896  -0.330  28.255  0.00  0.00    +0.028 C 
ATOM     13  C   UNL     1       2.338  -1.582  27.521  0.00  0.00    +0.108 C 
ATOM     14  O   UNL     1       4.300  -4.438  28.572  0.00  0.00    -0.274 OA
BRANCH   7  15
ATOM     15  C   UNL     1       2.258  -4.509  27.324  0.00  0.00    +0.200 C 
BRANCH  15  17
ATOM     16  C   UNL     1       2.677  -4.271  24.907  0.00  0.00    +0.254 C 
ATOM     17  N   UNL     1       2.808  -4.986  26.073  0.00  0.00    -0.304 N 
ATOM     18  H   UNL     1       3.524  -5.709  26.080  0.00  0.00    +0.149 HD
ATOM     19  O   UNL     1       1.991  -3.253  24.844  0.00  0.00    -0.272 OA
BRANCH  16  20
ATOM     20  C   UNL     1       3.353  -4.904  23.671  0.00  0.00    +0.273 C 
BRANCH  20  21
ATOM     21  N   UNL     1       3.078  -6.350  23.641  0.00  0.00    -0.101 NA
ATOM     22  C   UNL     1       2.062  -6.821  23.025  0.00  0.00    +0.377 C 
ATOM     23  N   UNL     1       1.867  -8.158  23.023  0.00  0.00    -0.289 N 
ATOM     24  H   UNL     1       1.540  -8.566  22.159  0.00  0.00    +0.255 HD
ATOM     25  H   UNL     1       2.673  -8.652  23.389  0.00  0.00    +0.255 HD
ATOM     26  N   UNL     1       1.062  -6.190  22.376  0.00  0.00    -0.289 N 
ATOM     27  H   UNL     1       0.631  -6.679  21.605  0.00  0.00    +0.255 HD
ATOM     28  H   UNL     1       1.145  -5.199  22.212  0.00  0.00    +0.255 HD
ENDBRANCH  20  21
BRANCH  20  29
ATOM     29  C   UNL     1       4.869  -4.653  23.765  0.00  0.00    +0.057 C 
BRANCH  29  31
ATOM     30  C   UNL     1       5.883  -2.407  23.076  0.00  0.00    +0.007 C 
ATOM     31  C   UNL     1       5.500  -3.819  22.635  0.00  0.00    -0.013 C 
ATOM     32  C   UNL     1       6.756  -4.531  22.113  0.00  0.00    +0.007 C 
ENDBRANCH  29  31
ENDBRANCH  20  29
ENDBRANCH  16  20
ENDBRANCH  15  17
ENDBRANCH   7  15
ENDBRANCH   1  11
BRANCH   5  33
ATOM     33  C   UNL     1       6.197   2.134  25.065  0.00  0.00    +0.022 A 
ATOM     34  C   UNL     1       6.036   1.342  23.926  0.00  0.00    +0.015 A 
ATOM     35  C   UNL     1       6.884   1.500  22.849  0.00  0.00    +0.048 A 
ATOM     36  C   UNL     1       7.947   2.410  22.904  0.00  0.00    +0.141 A 
ATOM     37  C   UNL     1       8.109   3.229  24.034  0.00  0.00    +0.101 A 
ATOM     38 CL   UNL     1       9.406   4.389  24.054  0.00  0.00    -0.078 Cl
ATOM     39  C   UNL     1       7.235   3.093  25.125  0.00  0.00    +0.072 A 
ATOM     40 CL   UNL     1       7.457   4.091  26.539  0.00  0.00    -0.081 Cl
BRANCH  36  41
ATOM     41  O   UNL     1       8.854   2.528  21.879  0.00  0.00    -0.486 OA
BRANCH  41  42
ATOM     42  C   UNL     1      10.120   1.938  22.175  0.00  0.00    +0.264 C 
BRANCH  42  43
ATOM     43  C   UNL     1       9.982   0.532  22.669  0.00  0.00    -0.010 A 
ATOM     44  C   UNL     1       9.618  -0.521  21.829  0.00  0.00    +0.009 A 
ATOM     45  C   UNL     1       9.461  -1.807  22.354  0.00  0.00    +0.024 A 
ATOM     46  C   UNL     1       9.655  -2.049  23.719  0.00  0.00    +0.033 A 
ATOM     47  C   UNL     1      10.003  -0.990  24.554  0.00  0.00    +0.024 A 
ATOM     48  C   UNL     1      10.162   0.291  24.036  0.00  0.00    +0.009 A 
BRANCH  46  49
ATOM     49  N   UNL     1       9.520  -3.370  24.184  0.00  0.00    -0.286 N 
ATOM     50  H   UNL     1      10.061  -4.072  23.696  0.00  0.00    +0.155 HD
ATOM     51  C   UNL     1       8.687  -3.796  25.204  0.00  0.00    +0.214 C 
ATOM     52  O   UNL     1       7.833  -3.133  25.783  0.00  0.00    -0.276 OA
ATOM     53  C   UNL     1       8.884  -5.245  25.550  0.00  0.00    +0.109 C 
ENDBRANCH  46  49
ENDBRANCH  42  43
ENDBRANCH  41  42
ENDBRANCH  36  41
ENDBRANCH   5  33
TORSDOF 12
ENDMDL
MODEL 6
REMARK VINA RESULT:      -6.7      3.656     10.386
REMARK  Name = 
REMARK  16 active torsions:
REMARK  status: ('A' for Active; 'I' for Inactive)
REMARK    1  A    between atoms: C_1  and  C_2
REMARK    2  A    between atoms: C_2  and  C_3
REMARK    3  A    between atoms: C_2  and  C_4
REMARK    4  A    between atoms: C_4  and  C_5
REMARK    5  A    between atoms: C_5  and  N_7
REMARK    6  A    between atoms: C_5  and  C_11
REMARK    7  A    between atoms: N_13  and  C_14
REMARK    8  A    between atoms: C_14  and  C_15
REMARK    9  A    between atoms: C_20  and  C_23
REMARK   10  A    between atoms: C_25  and  C_29
REMARK   11  A    between atoms: N_27  and  C_28
REMARK   12  A    between atoms: C_34  and  O_35
REMARK   13  A    between atoms: O_35  and  C_36
REMARK   14  A    between atoms: C_36  and  C_37
REMARK   15  A    between atoms: C_40  and  N_41
REMARK   16  A    between atoms: C_42  and  C_43
REMARK                            x       y       z     vdW  Elec       q    Type
REMARK                         _______ _______ _______ _____ _____    ______ ____
ROOT
ATOM      1  C   UNL     1       7.651  -2.834  22.913  0.00  0.00    +0.043 A 
ATOM      2  N   UNL     1       8.662  -2.175  23.568  0.00  0.00    -0.271 N 
ATOM      3  C   UNL     1       9.945  -2.605  24.064  0.00  0.00    +0.172 C 
ATOM      4  N   UNL     1       8.397  -0.890  23.815  0.00  0.00    -0.171 NA
ATOM      5  C   UNL     1       7.200  -0.670  23.307  0.00  0.00    +0.094 A 
ATOM      6  C   UNL     1       6.663  -1.867  22.766  0.00  0.00    +0.053 A 
ENDROOT
BRANCH   1  11
ATOM      7  C   UNL     1       4.248  -6.435  24.181  0.00  0.00    +0.233 C 
ATOM      8  N   UNL     1       5.363  -5.805  23.615  0.00  0.00    -0.300 N 
ATOM      9  C   UNL     1       5.103  -5.062  22.391  0.00  0.00    +0.108 C 
ATOM     10  C   UNL     1       6.343  -4.661  21.599  0.00  0.00    +0.028 C 
ATOM     11  C   UNL     1       7.557  -4.266  22.431  0.00  0.00    +0.040 C 
ATOM     12  C   UNL     1       7.771  -5.268  23.568  0.00  0.00    +0.028 C 
ATOM     13  C   UNL     1       6.523  -5.411  24.419  0.00  0.00    +0.108 C 
ATOM     14  O   UNL     1       3.153  -6.460  23.611  0.00  0.00    -0.274 OA
BRANCH   7  15
ATOM     15  C   UNL     1       4.440  -7.171  25.501  0.00  0.00    +0.200 C 
BRANCH  15  17
ATOM     16  C   UNL     1       4.257  -5.813  27.550  0.00  0.00    +0.254 C 
ATOM     17  N   UNL     1       3.661  -6.516  26.531  0.00  0.00    -0.304 N 
ATOM     18  H   UNL     1       2.672  -6.332  26.375  0.00  0.00    +0.149 HD
ATOM     19  O   UNL     1       5.476  -5.802  27.704  0.00  0.00    -0.272 OA
BRANCH  16  20
ATOM     20  C   UNL     1       3.280  -5.146  28.543  0.00  0.00    +0.273 C 
BRANCH  20  21
ATOM     21  N   UNL     1       2.394  -6.164  29.129  0.00  0.00    -0.101 NA
ATOM     22  C   UNL     1       2.828  -7.019  29.973  0.00  0.00    +0.377 C 
ATOM     23  N   UNL     1       1.964  -7.923  30.484  0.00  0.00    -0.289 N 
ATOM     24  H   UNL     1       2.063  -8.139  31.466  0.00  0.00    +0.255 HD
ATOM     25  H   UNL     1       1.006  -7.698  30.245  0.00  0.00    +0.255 HD
ATOM     26  N   UNL     1       4.075  -7.227  30.444  0.00  0.00    -0.289 N 
ATOM     27  H   UNL     1       4.160  -7.596  31.381  0.00  0.00    +0.255 HD
ATOM     28  H   UNL     1       4.791  -6.552  30.225  0.00  0.00    +0.255 HD
ENDBRANCH  20  21
BRANCH  20  29
ATOM     29  C   UNL     1       2.453  -4.096  27.779  0.00  0.00    +0.057 C 
BRANCH  29  31
ATOM     30  C   UNL     1       2.186  -1.627  27.159  0.00  0.00    +0.007 C 
ATOM     31  C   UNL     1       3.161  -2.769  27.448  0.00  0.00    -0.013 C 
ATOM     32  C   UNL     1       4.064  -2.363  28.620  0.00  0.00    +0.007 C 
ENDBRANCH  29  31
ENDBRANCH  20  29
ENDBRANCH  16  20
ENDBRANCH  15  17
ENDBRANCH   7  15
ENDBRANCH   1  11
BRANCH   5  33
ATOM     33  C   UNL     1       6.576   0.619  23.502  0.00  0.00    +0.022 A 
ATOM     34  C   UNL     1       6.775   1.553  22.484  0.00  0.00    +0.015 A 
ATOM     35  C   UNL     1       6.104   2.758  22.510  0.00  0.00    +0.048 A 
ATOM     36  C   UNL     1       5.261   3.083  23.580  0.00  0.00    +0.141 A 
ATOM     37  C   UNL     1       5.032   2.145  24.601  0.00  0.00    +0.101 A 
ATOM     38 CL   UNL     1       3.938   2.554  25.891  0.00  0.00    -0.078 Cl
ATOM     39  C   UNL     1       5.693   0.906  24.570  0.00  0.00    +0.072 A 
ATOM     40 CL   UNL     1       5.430  -0.245  25.854  0.00  0.00    -0.081 Cl
BRANCH  36  41
ATOM     41  O   UNL     1       4.644   4.307  23.671  0.00  0.00    -0.486 OA
BRANCH  41  42
ATOM     42  C   UNL     1       5.268   5.185  24.609  0.00  0.00    +0.264 C 
BRANCH  42  43
ATOM     43  C   UNL     1       6.707   5.430  24.276  0.00  0.00    -0.010 A 
ATOM     44  C   UNL     1       7.100   6.114  23.126  0.00  0.00    +0.009 A 
ATOM     45  C   UNL     1       8.459   6.276  22.843  0.00  0.00    +0.024 A 
ATOM     46  C   UNL     1       9.433   5.747  23.698  0.00  0.00    +0.033 A 
ATOM     47  C   UNL     1       9.033   5.051  24.836  0.00  0.00    +0.024 A 
ATOM     48  C   UNL     1       7.682   4.889  25.122  0.00  0.00    +0.009 A 
BRANCH  46  49
ATOM     49  N   UNL     1      10.786   5.972  23.382  0.00  0.00    -0.286 N 
ATOM     50  H   UNL     1      11.046   6.932  23.196  0.00  0.00    +0.155 HD
ATOM     51  C   UNL     1      11.769   5.005  23.259  0.00  0.00    +0.214 C 
ATOM     52  O   UNL     1      11.611   3.789  23.268  0.00  0.00    -0.276 OA
ATOM     53  C   UNL     1      13.138   5.589  23.053  0.00  0.00    +0.109 C 
ENDBRANCH  46  49
ENDBRANCH  42  43
ENDBRANCH  41  42
ENDBRANCH  36  41
ENDBRANCH   5  33
TORSDOF 12
ENDMDL
MODEL 7
REMARK VINA RESULT:      -6.6      3.785      8.080
REMARK  Name = 
REMARK  16 active torsions:
REMARK  status: ('A' for Active; 'I' for Inactive)
REMARK    1  A    between atoms: C_1  and  C_2
REMARK    2  A    between atoms: C_2  and  C_3
REMARK    3  A    between atoms: C_2  and  C_4
REMARK    4  A    between atoms: C_4  and  C_5
REMARK    5  A    between atoms: C_5  and  N_7
REMARK    6  A    between atoms: C_5  and  C_11
REMARK    7  A    between atoms: N_13  and  C_14
REMARK    8  A    between atoms: C_14  and  C_15
REMARK    9  A    between atoms: C_20  and  C_23
REMARK   10  A    between atoms: C_25  and  C_29
REMARK   11  A    between atoms: N_27  and  C_28
REMARK   12  A    between atoms: C_34  and  O_35
REMARK   13  A    between atoms: O_35  and  C_36
REMARK   14  A    between atoms: C_36  and  C_37
REMARK   15  A    between atoms: C_40  and  N_41
REMARK   16  A    between atoms: C_42  and  C_43
REMARK                            x       y       z     vdW  Elec       q    Type
REMARK                         _______ _______ _______ _____ _____    ______ ____
ROOT
ATOM      1  C   UNL     1       3.508   3.084  28.252  0.00  0.00    +0.043 A 
ATOM      2  N   UNL     1       3.202   4.282  27.657  0.00  0.00    -0.271 N 
ATOM      3  C   UNL     1       2.107   5.203  27.826  0.00  0.00    +0.172 C 
ATOM      4  N   UNL     1       4.078   4.659  26.722  0.00  0.00    -0.171 NA
ATOM      5  C   UNL     1       4.997   3.714  26.694  0.00  0.00    +0.094 A 
ATOM      6  C   UNL     1       4.669   2.675  27.603  0.00  0.00    +0.053 A 
ENDROOT
BRANCH   1  11
ATOM      7  C   UNL     1       3.284  -1.966  29.035  0.00  0.00    +0.233 C 
ATOM      8  N   UNL     1       3.051  -0.592  29.169  0.00  0.00    -0.300 N 
ATOM      9  C   UNL     1       4.065   0.141  29.913  0.00  0.00    +0.108 C 
ATOM     10  C   UNL     1       3.663   1.546  30.348  0.00  0.00    +0.028 C 
ATOM     11  C   UNL     1       2.805   2.322  29.356  0.00  0.00    +0.040 C 
ATOM     12  C   UNL     1       1.684   1.432  28.813  0.00  0.00    +0.028 C 
ATOM     13  C   UNL     1       2.238   0.156  28.206  0.00  0.00    +0.108 C 
ATOM     14  O   UNL     1       4.216  -2.531  29.614  0.00  0.00    -0.274 OA
BRANCH   7  15
ATOM     15  C   UNL     1       2.295  -2.777  28.207  0.00  0.00    +0.200 C 
BRANCH  15  17
ATOM     16  C   UNL     1       3.597  -3.485  26.237  0.00  0.00    +0.254 C 
ATOM     17  N   UNL     1       3.015  -3.778  27.448  0.00  0.00    -0.304 N 
ATOM     18  H   UNL     1       3.337  -4.625  27.909  0.00  0.00    +0.149 HD
ATOM     19  O   UNL     1       3.436  -2.398  25.686  0.00  0.00    -0.272 OA
BRANCH  16  20
ATOM     20  C   UNL     1       4.357  -4.656  25.577  0.00  0.00    +0.273 C 
BRANCH  20  21
ATOM     21  N   UNL     1       5.718  -4.741  26.131  0.00  0.00    -0.101 NA
ATOM     22  C   UNL     1       6.100  -5.756  26.806  0.00  0.00    +0.377 C 
ATOM     23  N   UNL     1       7.364  -5.781  27.280  0.00  0.00    -0.289 N 
ATOM     24  H   UNL     1       7.846  -6.668  27.239  0.00  0.00    +0.255 HD
ATOM     25  H   UNL     1       7.924  -5.033  26.888  0.00  0.00    +0.255 HD
ATOM     26  N   UNL     1       5.420  -6.854  27.195  0.00  0.00    -0.289 N 
ATOM     27  H   UNL     1       5.946  -7.709  27.304  0.00  0.00    +0.255 HD
ATOM     28  H   UNL     1       4.499  -7.009  26.815  0.00  0.00    +0.255 HD
ENDBRANCH  20  21
BRANCH  20  29
ATOM     29  C   UNL     1       4.415  -4.403  24.060  0.00  0.00    +0.057 C 
BRANCH  29  31
ATOM     30  C   UNL     1       5.627  -6.061  22.534  0.00  0.00    +0.007 C 
ATOM     31  C   UNL     1       4.294  -5.638  23.149  0.00  0.00    -0.013 C 
ATOM     32  C   UNL     1       3.726  -6.815  23.955  0.00  0.00    +0.007 C 
ENDBRANCH  29  31
ENDBRANCH  20  29
ENDBRANCH  16  20
ENDBRANCH  15  17
ENDBRANCH   7  15
ENDBRANCH   1  11
BRANCH   5  33
ATOM     33  C   UNL     1       6.045   3.777  25.701  0.00  0.00    +0.022 A 
ATOM     34  C   UNL     1       7.289   4.220  26.155  0.00  0.00    +0.015 A 
ATOM     35  C   UNL     1       8.386   4.177  25.319  0.00  0.00    +0.048 A 
ATOM     36  C   UNL     1       8.256   3.745  23.993  0.00  0.00    +0.141 A 
ATOM     37  C   UNL     1       7.017   3.275  23.528  0.00  0.00    +0.101 A 
ATOM     38 CL   UNL     1       6.897   2.693  21.892  0.00  0.00    -0.078 Cl
ATOM     39  C   UNL     1       5.900   3.292  24.380  0.00  0.00    +0.072 A 
ATOM     40 CL   UNL     1       4.356   2.736  23.790  0.00  0.00    -0.081 Cl
BRANCH  36  41
ATOM     41  O   UNL     1       9.314   3.769  23.116  0.00  0.00    -0.486 OA
BRANCH  41  42
ATOM     42  C   UNL     1      10.463   3.070  23.597  0.00  0.00    +0.264 C 
BRANCH  42  43
ATOM     43  C   UNL     1      10.233   1.592  23.661  0.00  0.00    -0.010 A 
ATOM     44  C   UNL     1      10.235   0.888  24.864  0.00  0.00    +0.009 A 
ATOM     45  C   UNL     1      10.059  -0.498  24.860  0.00  0.00    +0.024 A 
ATOM     46  C   UNL     1       9.892  -1.192  23.656  0.00  0.00    +0.033 A 
ATOM     47  C   UNL     1       9.907  -0.485  22.457  0.00  0.00    +0.024 A 
ATOM     48  C   UNL     1      10.080   0.895  22.456  0.00  0.00    +0.009 A 
BRANCH  46  49
ATOM     49  N   UNL     1       9.682  -2.582  23.715  0.00  0.00    -0.286 N 
ATOM     50  H   UNL     1      10.494  -3.163  23.552  0.00  0.00    +0.155 HD
ATOM     51  C   UNL     1       8.471  -3.218  23.928  0.00  0.00    +0.214 C 
ATOM     52  O   UNL     1       7.362  -2.696  23.965  0.00  0.00    -0.276 OA
ATOM     53  C   UNL     1       8.612  -4.706  24.077  0.00  0.00    +0.109 C 
ENDBRANCH  46  49
ENDBRANCH  42  43
ENDBRANCH  41  42
ENDBRANCH  36  41
ENDBRANCH   5  33
TORSDOF 12
ENDMDL
MODEL 8
REMARK VINA RESULT:      -6.5      1.682      2.593
REMARK  Name = 
REMARK  16 active torsions:
REMARK  status: ('A' for Active; 'I' for Inactive)
REMARK    1  A    between atoms: C_1  and  C_2
REMARK    2  A    between atoms: C_2  and  C_3
REMARK    3  A    between atoms: C_2  and  C_4
REMARK    4  A    between atoms: C_4  and  C_5
REMARK    5  A    between atoms: C_5  and  N_7
REMARK    6  A    between atoms: C_5  and  C_11
REMARK    7  A    between atoms: N_13  and  C_14
REMARK    8  A    between atoms: C_14  and  C_15
REMARK    9  A    between atoms: C_20  and  C_23
REMARK   10  A    between atoms: C_25  and  C_29
REMARK   11  A    between atoms: N_27  and  C_28
REMARK   12  A    between atoms: C_34  and  O_35
REMARK   13  A    between atoms: O_35  and  C_36
REMARK   14  A    between atoms: C_36  and  C_37
REMARK   15  A    between atoms: C_40  and  N_41
REMARK   16  A    between atoms: C_42  and  C_43
REMARK                            x       y       z     vdW  Elec       q    Type
REMARK                         _______ _______ _______ _____ _____    ______ ____
ROOT
ATOM      1  C   UNL     1      10.269   4.954  23.769  0.00  0.00    +0.043 A 
ATOM      2  N   UNL     1      11.502   4.437  23.461  0.00  0.00    -0.271 N 
ATOM      3  C   UNL     1      12.747   5.049  23.071  0.00  0.00    +0.172 C 
ATOM      4  N   UNL     1      11.554   3.103  23.510  0.00  0.00    -0.171 NA
ATOM      5  C   UNL     1      10.348   2.713  23.871  0.00  0.00    +0.094 A 
ATOM      6  C   UNL     1       9.484   3.831  24.005  0.00  0.00    +0.053 A 
ENDROOT
BRANCH   1  11
ATOM      7  C   UNL     1       5.829   6.774  25.540  0.00  0.00    +0.233 C 
ATOM      8  N   UNL     1       7.094   6.716  24.944  0.00  0.00    -0.300 N 
ATOM      9  C   UNL     1       8.218   6.718  25.869  0.00  0.00    +0.108 C 
ATOM     10  C   UNL     1       9.579   6.991  25.238  0.00  0.00    +0.028 C 
ATOM     11  C   UNL     1       9.795   6.390  23.854  0.00  0.00    +0.040 C 
ATOM     12  C   UNL     1       8.572   6.643  22.969  0.00  0.00    +0.028 C 
ATOM     13  C   UNL     1       7.303   6.125  23.620  0.00  0.00    +0.108 C 
ATOM     14  O   UNL     1       5.685   6.943  26.754  0.00  0.00    -0.274 OA
BRANCH   7  15
ATOM     15  C   UNL     1       4.610   6.704  24.628  0.00  0.00    +0.200 C 
BRANCH  15  17
ATOM     16  C   UNL     1       3.607   4.453  24.562  0.00  0.00    +0.254 C 
ATOM     17  N   UNL     1       4.505   5.372  24.072  0.00  0.00    -0.304 N 
ATOM     18  H   UNL     1       4.888   5.178  23.150  0.00  0.00    +0.149 HD
ATOM     19  O   UNL     1       2.934   4.676  25.567  0.00  0.00    -0.272 OA
BRANCH  16  20
ATOM     20  C   UNL     1       3.599   3.092  23.832  0.00  0.00    +0.273 C 
BRANCH  20  21
ATOM     21  N   UNL     1       4.933   2.475  23.917  0.00  0.00    -0.101 NA
ATOM     22  C   UNL     1       5.248   1.700  24.883  0.00  0.00    +0.377 C 
ATOM     23  N   UNL     1       6.483   1.155  24.900  0.00  0.00    -0.289 N 
ATOM     24  H   UNL     1       6.549   0.193  25.201  0.00  0.00    +0.255 HD
ATOM     25  H   UNL     1       6.970   1.307  24.025  0.00  0.00    +0.255 HD
ATOM     26  N   UNL     1       4.548   1.340  25.978  0.00  0.00    -0.289 N 
ATOM     27  H   UNL     1       4.738   0.427  26.368  0.00  0.00    +0.255 HD
ATOM     28  H   UNL     1       3.573   1.591  26.031  0.00  0.00    +0.255 HD
ENDBRANCH  20  21
BRANCH  20  29
ATOM     29  C   UNL     1       3.217   3.333  22.361  0.00  0.00    +0.057 C 
BRANCH  29  31
ATOM     30  C   UNL     1       0.731   3.930  22.475  0.00  0.00    +0.007 C 
ATOM     31  C   UNL     1       1.782   2.953  21.950  0.00  0.00    -0.013 C 
ATOM     32  C   UNL     1       1.685   2.898  20.419  0.00  0.00    +0.007 C 
ENDBRANCH  29  31
ENDBRANCH  20  29
ENDBRANCH  16  20
ENDBRANCH  15  17
ENDBRANCH   7  15
ENDBRANCH   1  11
BRANCH   5  33
ATOM     33  C   UNL     1      10.046   1.301  23.916  0.00  0.00    +0.022 A 
ATOM     34  C   UNL     1      10.256   0.671  25.144  0.00  0.00    +0.015 A 
ATOM     35  C   UNL     1       9.863  -0.638  25.327  0.00  0.00    +0.048 A 
ATOM     36  C   UNL     1       9.301  -1.369  24.273  0.00  0.00    +0.141 A 
ATOM     37  C   UNL     1       9.062  -0.743  23.037  0.00  0.00    +0.101 A 
ATOM     38 CL   UNL     1       8.313  -1.659  21.761  0.00  0.00    -0.078 Cl
ATOM     39  C   UNL     1       9.437   0.597  22.850  0.00  0.00    +0.072 A 
ATOM     40 CL   UNL     1       9.166   1.362  21.306  0.00  0.00    -0.081 Cl
BRANCH  36  41
ATOM     41  O   UNL     1       8.975  -2.697  24.403  0.00  0.00    -0.486 OA
BRANCH  41  42
ATOM     42  C   UNL     1       8.660  -3.072  25.744  0.00  0.00    +0.264 C 
BRANCH  42  43
ATOM     43  C   UNL     1       7.400  -3.878  25.820  0.00  0.00    -0.010 A 
ATOM     44  C   UNL     1       6.354  -3.713  24.913  0.00  0.00    +0.009 A 
ATOM     45  C   UNL     1       5.183  -4.462  25.058  0.00  0.00    +0.024 A 
ATOM     46  C   UNL     1       5.044  -5.371  26.114  0.00  0.00    +0.033 A 
ATOM     47  C   UNL     1       6.086  -5.518  27.025  0.00  0.00    +0.024 A 
ATOM     48  C   UNL     1       7.254  -4.776  26.884  0.00  0.00    +0.009 A 
BRANCH  46  49
ATOM     49  N   UNL     1       3.857  -6.124  26.188  0.00  0.00    -0.286 N 
ATOM     50  H   UNL     1       3.232  -5.897  26.950  0.00  0.00    +0.155 HD
ATOM     51  C   UNL     1       3.497  -7.166  25.351  0.00  0.00    +0.214 C 
ATOM     52  O   UNL     1       4.195  -7.698  24.496  0.00  0.00    -0.276 OA
ATOM     53  C   UNL     1       2.104  -7.666  25.610  0.00  0.00    +0.109 C 
ENDBRANCH  46  49
ENDBRANCH  42  43
ENDBRANCH  41  42
ENDBRANCH  36  41
ENDBRANCH   5  33
TORSDOF 12
ENDMDL
MODEL 9
REMARK VINA RESULT:      -6.4      1.971      2.342
REMARK  Name = 
REMARK  16 active torsions:
REMARK  status: ('A' for Active; 'I' for Inactive)
REMARK    1  A    between atoms: C_1  and  C_2
REMARK    2  A    between atoms: C_2  and  C_3
REMARK    3  A    between atoms: C_2  and  C_4
REMARK    4  A    between atoms: C_4  and  C_5
REMARK    5  A    between atoms: C_5  and  N_7
REMARK    6  A    between atoms: C_5  and  C_11
REMARK    7  A    between atoms: N_13  and  C_14
REMARK    8  A    between atoms: C_14  and  C_15
REMARK    9  A    between atoms: C_20  and  C_23
REMARK   10  A    between atoms: C_25  and  C_29
REMARK   11  A    between atoms: N_27  and  C_28
REMARK   12  A    between atoms: C_34  and  O_35
REMARK   13  A    between atoms: O_35  and  C_36
REMARK   14  A    between atoms: C_36  and  C_37
REMARK   15  A    between atoms: C_40  and  N_41
REMARK   16  A    between atoms: C_42  and  C_43
REMARK                            x       y       z     vdW  Elec       q    Type
REMARK                         _______ _______ _______ _____ _____    ______ ____
ROOT
ATOM      1  C   UNL     1      10.097   4.927  23.757  0.00  0.00    +0.043 A 
ATOM      2  N   UNL     1      11.363   4.496  23.446  0.00  0.00    -0.271 N 
ATOM      3  C   UNL     1      12.568   5.195  23.078  0.00  0.00    +0.172 C 
ATOM      4  N   UNL     1      11.500   3.168  23.467  0.00  0.00    -0.171 NA
ATOM      5  C   UNL     1      10.319   2.693  23.812  0.00  0.00    +0.094 A 
ATOM      6  C   UNL     1       9.385   3.751  23.964  0.00  0.00    +0.053 A 
ENDROOT
BRANCH   1  11
ATOM      7  C   UNL     1       6.527   6.702  26.960  0.00  0.00    +0.233 C 
ATOM      8  N   UNL     1       7.456   6.638  25.915  0.00  0.00    -0.300 N 
ATOM      9  C   UNL     1       8.844   6.846  26.302  0.00  0.00    +0.108 C 
ATOM     10  C   UNL     1       9.807   7.108  25.149  0.00  0.00    +0.028 C 
ATOM     11  C   UNL     1       9.532   6.327  23.870  0.00  0.00    +0.040 C 
ATOM     12  C   UNL     1       8.040   6.371  23.532  0.00  0.00    +0.028 C 
ATOM     13  C   UNL     1       7.197   5.874  24.691  0.00  0.00    +0.108 C 
ATOM     14  O   UNL     1       6.852   7.037  28.103  0.00  0.00    -0.274 OA
BRANCH   7  15
ATOM     15  C   UNL     1       5.066   6.424  26.632  0.00  0.00    +0.200 C 
BRANCH  15  17
ATOM     16  C   UNL     1       3.601   4.454  26.412  0.00  0.00    +0.254 C 
ATOM     17  N   UNL     1       4.805   5.008  26.776  0.00  0.00    -0.304 N 
ATOM     18  H   UNL     1       5.582   4.360  26.888  0.00  0.00    +0.149 HD
ATOM     19  O   UNL     1       2.649   5.147  26.058  0.00  0.00    -0.272 OA
BRANCH  16  20
ATOM     20  C   UNL     1       3.501   2.924  26.597  0.00  0.00    +0.273 C 
BRANCH  20  21
ATOM     21  N   UNL     1       2.835   2.620  27.874  0.00  0.00    -0.101 NA
ATOM     22  C   UNL     1       2.034   1.631  27.988  0.00  0.00    +0.377 C 
ATOM     23  N   UNL     1       1.461   1.396  29.188  0.00  0.00    -0.289 N 
ATOM     24  H   UNL     1       1.376   0.428  29.467  0.00  0.00    +0.255 HD
ATOM     25  H   UNL     1       1.879   1.960  29.918  0.00  0.00    +0.255 HD
ATOM     26  N   UNL     1       1.593   0.752  27.065  0.00  0.00    -0.289 N 
ATOM     27  H   UNL     1       1.359  -0.177  27.387  0.00  0.00    +0.255 HD
ATOM     28  H   UNL     1       2.028   0.751  26.156  0.00  0.00    +0.255 HD
ENDBRANCH  20  21
BRANCH  20  29
ATOM     29  C   UNL     1       4.925   2.341  26.588  0.00  0.00    +0.057 C 
BRANCH  29  31
ATOM     30  C   UNL     1       5.237   2.267  24.049  0.00  0.00    +0.007 C 
ATOM     31  C   UNL     1       5.314   1.491  25.364  0.00  0.00    -0.013 C 
ATOM     32  C   UNL     1       6.744   0.961  25.542  0.00  0.00    +0.007 C 
ENDBRANCH  29  31
ENDBRANCH  20  29
ENDBRANCH  16  20
ENDBRANCH  15  17
ENDBRANCH   7  15
ENDBRANCH   1  11
BRANCH   5  33
ATOM     33  C   UNL     1      10.108   1.264  23.824  0.00  0.00    +0.022 A 
ATOM     34  C   UNL     1      10.407   0.614  25.023  0.00  0.00    +0.015 A 
ATOM     35  C   UNL     1      10.104  -0.722  25.180  0.00  0.00    +0.048 A 
ATOM     36  C   UNL     1       9.547  -1.456  24.125  0.00  0.00    +0.141 A 
ATOM     37  C   UNL     1       9.220  -0.813  22.920  0.00  0.00    +0.101 A 
ATOM     38 CL   UNL     1       8.479  -1.737  21.645  0.00  0.00    -0.078 Cl
ATOM     39  C   UNL     1       9.503   0.554  22.760  0.00  0.00    +0.072 A 
ATOM     40 CL   UNL     1       9.123   1.344  21.252  0.00  0.00    -0.081 Cl
BRANCH  36  41
ATOM     41  O   UNL     1       9.310  -2.806  24.227  0.00  0.00    -0.486 OA
BRANCH  41  42
ATOM     42  C   UNL     1       8.523  -3.158  25.365  0.00  0.00    +0.264 C 
BRANCH  42  43
ATOM     43  C   UNL     1       7.393  -4.072  25.005  0.00  0.00    -0.010 A 
ATOM     44  C   UNL     1       6.582  -4.670  25.969  0.00  0.00    +0.009 A 
ATOM     45  C   UNL     1       5.569  -5.549  25.577  0.00  0.00    +0.024 A 
ATOM     46  C   UNL     1       5.366  -5.846  24.224  0.00  0.00    +0.033 A 
ATOM     47  C   UNL     1       6.191  -5.257  23.269  0.00  0.00    +0.024 A 
ATOM     48  C   UNL     1       7.199  -4.380  23.654  0.00  0.00    +0.009 A 
BRANCH  46  49
ATOM     49  N   UNL     1       4.308  -6.709  23.886  0.00  0.00    -0.286 N 
ATOM     50  H   UNL     1       4.476  -7.697  24.026  0.00  0.00    +0.155 HD
ATOM     51  C   UNL     1       3.090  -6.337  23.343  0.00  0.00    +0.214 C 
ATOM     52  O   UNL     1       2.775  -5.223  22.939  0.00  0.00    -0.276 OA
ATOM     53  C   UNL     1       2.126  -7.483  23.232  0.00  0.00    +0.109 C 
ENDBRANCH  46  49
ENDBRANCH  42  43
ENDBRANCH  41  42
ENDBRANCH  36  41
ENDBRANCH   5  33
TORSDOF 12
ENDMDL
