MODEL 1
REMARK VINA RESULT:      -8.2      0.000      0.000
REMARK  Name = 
REMARK  7 active torsions:
REMARK  status: ('A' for Active; 'I' for Inactive)
REMARK    1  A    between atoms: C_2  and  C_4
REMARK    2  A    between atoms: C_4  and  C_5
REMARK    3  A    between atoms: C_4  and  C_22
REMARK    4  A    between atoms: C_4  and  C_28
REMARK    5  A    between atoms: N_9  and  C_10
REMARK    6  A    between atoms: C_10  and  C_11
REMARK    7  A    between atoms: C_11  and  C_12
REMARK                            x       y       z     vdW  Elec       q    Type
REMARK                         _______ _______ _______ _____ _____    ______ ____
ROOT
ATOM      1  C   UNL     1       7.997  -3.676  25.057  0.00  0.00    +0.100 C 
ENDROOT
BRANCH   1   2
ATOM      2  C   UNL     1       6.787  -4.552  24.560  0.00  0.00    -0.028 A 
ATOM      3  C   UNL     1       6.509  -4.660  23.181  0.00  0.00    +0.005 A 
ATOM      4  C   UNL     1       5.527  -5.533  22.699  0.00  0.00    +0.000 A 
ATOM      5  C   UNL     1       4.815  -6.339  23.580  0.00  0.00    +0.000 A 
ATOM      6  C   UNL     1       5.081  -6.268  24.941  0.00  0.00    +0.000 A 
ATOM      7  C   UNL     1       6.054  -5.386  25.427  0.00  0.00    +0.005 A 
ENDBRANCH   1   2
BRANCH   1   8
ATOM      8  C   UNL     1       8.527  -2.731  23.914  0.00  0.00    -0.028 A 
ATOM      9  C   UNL     1       9.908  -2.500  23.750  0.00  0.00    +0.005 A 
ATOM     10  C   UNL     1      10.415  -1.735  22.691  0.00  0.00    +0.000 A 
ATOM     11  C   UNL     1       9.547  -1.089  21.822  0.00  0.00    +0.000 A 
ATOM     12  C   UNL     1       8.177  -1.231  21.998  0.00  0.00    +0.000 A 
ATOM     13  C   UNL     1       7.677  -2.056  23.014  0.00  0.00    +0.005 A 
ENDBRANCH   1   8
BRANCH   1  17
ATOM     14  N   UNL     1       9.522  -4.890  26.721  0.00  0.00    -0.328 N 
ATOM     15  H   UNL     1       8.909  -4.651  27.487  0.00  0.00    +0.145 HD
ATOM     16  H   UNL     1      10.099  -5.708  26.882  0.00  0.00    +0.145 HD
ATOM     17  C   UNL     1       9.082  -4.795  25.429  0.00  0.00    +0.226 C 
ATOM     18  O   UNL     1       9.499  -5.657  24.652  0.00  0.00    -0.275 OA
ENDBRANCH   1  17
BRANCH   1  19
ATOM     19  C   UNL     1       7.625  -2.843  26.377  0.00  0.00    +0.028 C 
ATOM     20  C   UNL     1       8.292  -1.474  26.555  0.00  0.00    +0.089 C 
ATOM     21  N   UNL     1       7.290  -0.419  26.361  0.00  0.00    -0.302 NA
ATOM     22  C   UNL     1       5.978  -1.060  26.213  0.00  0.00    +0.085 C 
ATOM     23  C   UNL     1       6.157  -2.508  26.652  0.00  0.00    +0.022 C 
BRANCH  21  24
ATOM     24  C   UNL     1       7.658   0.464  25.238  0.00  0.00    +0.089 C 
BRANCH  24  25
ATOM     25  C   UNL     1       9.170   0.692  25.052  0.00  0.00    +0.050 C 
BRANCH  25  26
ATOM     26  C   UNL     1       9.495   2.100  24.588  0.00  0.00    -0.046 A 
ATOM     27  C   UNL     1      10.640   2.338  23.798  0.00  0.00    +0.007 A 
ATOM     28  C   UNL     1      10.973   3.619  23.349  0.00  0.00    +0.046 A 
ATOM     29  C   UNL     1      10.135   4.656  23.698  0.00  0.00    +0.124 A 
ATOM     30  O   UNL     1      10.333   5.953  23.325  0.00  0.00    -0.491 OA
ATOM     31  C   UNL     1       9.224   6.677  23.900  0.00  0.00    +0.234 C 
ATOM     32  C   UNL     1       8.295   5.724  24.660  0.00  0.00    +0.080 C 
ATOM     33  C   UNL     1       8.992   4.441  24.455  0.00  0.00    -0.002 A 
ATOM     34  C   UNL     1       8.659   3.174  24.916  0.00  0.00    +0.011 A 
ENDBRANCH  25  26
ENDBRANCH  24  25
ENDBRANCH  21  24
ENDBRANCH   1  19
TORSDOF 7
ENDMDL
MODEL 2
REMARK VINA RESULT:      -8.1      2.191      3.885
REMARK  Name = 
REMARK  7 active torsions:
REMARK  status: ('A' for Active; 'I' for Inactive)
REMARK    1  A    between atoms: C_2  and  C_4
REMARK    2  A    between atoms: C_4  and  C_5
REMARK    3  A    between atoms: C_4  and  C_22
REMARK    4  A    between atoms: C_4  and  C_28
REMARK    5  A    between atoms: N_9  and  C_10
REMARK    6  A    between atoms: C_10  and  C_11
REMARK    7  A    between atoms: C_11  and  C_12
REMARK                            x       y       z     vdW  Elec       q    Type
REMARK                         _______ _______ _______ _____ _____    ______ ____
ROOT
ATOM      1  C   UNL     1       5.698  -4.920  23.758  0.00  0.00    +0.100 C 
ENDROOT
BRANCH   1   2
ATOM      2  C   UNL     1       4.233  -5.450  23.978  0.00  0.00    -0.028 A 
ATOM      3  C   UNL     1       3.129  -4.693  23.532  0.00  0.00    +0.005 A 
ATOM      4  C   UNL     1       1.824  -5.196  23.592  0.00  0.00    +0.000 A 
ATOM      5  C   UNL     1       1.591  -6.478  24.076  0.00  0.00    +0.000 A 
ATOM      6  C   UNL     1       2.660  -7.254  24.504  0.00  0.00    +0.000 A 
ATOM      7  C   UNL     1       3.965  -6.748  24.457  0.00  0.00    +0.005 A 
ENDBRANCH   1   2
BRANCH   1   8
ATOM      8  C   UNL     1       5.776  -3.359  23.954  0.00  0.00    -0.028 A 
ATOM      9  C   UNL     1       5.273  -2.751  25.123  0.00  0.00    +0.005 A 
ATOM     10  C   UNL     1       5.406  -1.377  25.365  0.00  0.00    +0.000 A 
ATOM     11  C   UNL     1       5.954  -0.550  24.395  0.00  0.00    +0.000 A 
ATOM     12  C   UNL     1       6.392  -1.102  23.199  0.00  0.00    +0.000 A 
ATOM     13  C   UNL     1       6.324  -2.486  22.991  0.00  0.00    +0.005 A 
ENDBRANCH   1   8
BRANCH   1  17
ATOM     14  N   UNL     1       6.458  -6.572  21.953  0.00  0.00    -0.328 N 
ATOM     15  H   UNL     1       6.221  -7.356  22.543  0.00  0.00    +0.145 HD
ATOM     16  H   UNL     1       6.466  -6.777  20.959  0.00  0.00    +0.145 HD
ATOM     17  C   UNL     1       5.968  -5.324  22.232  0.00  0.00    +0.226 C 
ATOM     18  O   UNL     1       5.685  -4.625  21.257  0.00  0.00    -0.275 OA
ENDBRANCH   1  17
BRANCH   1  19
ATOM     19  C   UNL     1       6.753  -5.678  24.701  0.00  0.00    +0.028 C 
ATOM     20  C   UNL     1       8.222  -5.255  24.593  0.00  0.00    +0.089 C 
ATOM     21  N   UNL     1       8.605  -4.526  25.808  0.00  0.00    -0.302 NA
ATOM     22  C   UNL     1       7.484  -4.595  26.752  0.00  0.00    +0.085 C 
ATOM     23  C   UNL     1       6.538  -5.662  26.216  0.00  0.00    +0.022 C 
BRANCH  21  24
ATOM     24  C   UNL     1       9.041  -3.154  25.490  0.00  0.00    +0.089 C 
BRANCH  24  25
ATOM     25  C   UNL     1       9.872  -3.012  24.200  0.00  0.00    +0.050 C 
BRANCH  25  26
ATOM     26  C   UNL     1       9.815  -1.610  23.622  0.00  0.00    -0.046 A 
ATOM     27  C   UNL     1       9.881  -1.417  22.225  0.00  0.00    +0.007 A 
ATOM     28  C   UNL     1       9.830  -0.143  21.653  0.00  0.00    +0.046 A 
ATOM     29  C   UNL     1       9.704   0.933  22.503  0.00  0.00    +0.124 A 
ATOM     30  O   UNL     1       9.636   2.230  22.083  0.00  0.00    -0.491 OA
ATOM     31  C   UNL     1       9.503   3.005  23.294  0.00  0.00    +0.234 C 
ATOM     32  C   UNL     1       9.479   2.086  24.521  0.00  0.00    +0.080 C 
ATOM     33  C   UNL     1       9.615   0.766  23.878  0.00  0.00    -0.002 A 
ATOM     34  C   UNL     1       9.676  -0.494  24.456  0.00  0.00    +0.011 A 
ENDBRANCH  25  26
ENDBRANCH  24  25
ENDBRANCH  21  24
ENDBRANCH   1  19
TORSDOF 7
ENDMDL
MODEL 3
REMARK VINA RESULT:      -8.0      0.875      1.877
REMARK  Name = 
REMARK  7 active torsions:
REMARK  status: ('A' for Active; 'I' for Inactive)
REMARK    1  A    between atoms: C_2  and  C_4
REMARK    2  A    between atoms: C_4  and  C_5
REMARK    3  A    between atoms: C_4  and  C_22
REMARK    4  A    between atoms: C_4  and  C_28
REMARK    5  A    between atoms: N_9  and  C_10
REMARK    6  A    between atoms: C_10  and  C_11
REMARK    7  A    between atoms: C_11  and  C_12
REMARK                            x       y       z     vdW  Elec       q    Type
REMARK                         _______ _______ _______ _____ _____    ______ ____
ROOT
ATOM      1  C   UNL     1       8.006  -3.683  24.655  0.00  0.00    +0.100 C 
ENDROOT
BRANCH   1   2
ATOM      2  C   UNL     1       7.138  -4.741  23.878  0.00  0.00    -0.028 A 
ATOM      3  C   UNL     1       5.864  -5.108  24.362  0.00  0.00    +0.005 A 
ATOM      4  C   UNL     1       5.014  -5.942  23.628  0.00  0.00    +0.000 A 
ATOM      5  C   UNL     1       5.403  -6.410  22.378  0.00  0.00    +0.000 A 
ATOM      6  C   UNL     1       6.643  -6.049  21.866  0.00  0.00    +0.000 A 
ATOM      7  C   UNL     1       7.501  -5.226  22.605  0.00  0.00    +0.005 A 
ENDBRANCH   1   2
BRANCH   1   8
ATOM      8  C   UNL     1       8.668  -2.650  23.667  0.00  0.00    -0.028 A 
ATOM      9  C   UNL     1       7.947  -2.137  22.570  0.00  0.00    +0.005 A 
ATOM     10  C   UNL     1       8.477  -1.152  21.725  0.00  0.00    +0.000 A 
ATOM     11  C   UNL     1       9.787  -0.726  21.889  0.00  0.00    +0.000 A 
ATOM     12  C   UNL     1      10.554  -1.265  22.914  0.00  0.00    +0.000 A 
ATOM     13  C   UNL     1       9.996  -2.195  23.801  0.00  0.00    +0.005 A 
ENDBRANCH   1   8
BRANCH   1  17
ATOM     14  N   UNL     1       8.817  -5.230  26.531  0.00  0.00    -0.328 N 
ATOM     15  H   UNL     1       7.869  -5.511  26.735  0.00  0.00    +0.145 HD
ATOM     16  H   UNL     1       9.527  -5.896  26.815  0.00  0.00    +0.145 HD
ATOM     17  C   UNL     1       9.114  -4.612  25.346  0.00  0.00    +0.226 C 
ATOM     18  O   UNL     1      10.205  -4.896  24.848  0.00  0.00    -0.275 OA
ENDBRANCH   1  17
BRANCH   1  19
ATOM     19  C   UNL     1       7.157  -2.938  25.794  0.00  0.00    +0.028 C 
ATOM     20  C   UNL     1       7.848  -1.800  26.555  0.00  0.00    +0.089 C 
ATOM     21  N   UNL     1       7.256  -0.520  26.150  0.00  0.00    -0.302 NA
ATOM     22  C   UNL     1       6.115  -0.802  25.273  0.00  0.00    +0.085 C 
ATOM     23  C   UNL     1       5.822  -2.290  25.418  0.00  0.00    +0.022 C 
BRANCH  21  24
ATOM     24  C   UNL     1       8.270   0.368  25.551  0.00  0.00    +0.089 C 
BRANCH  24  25
ATOM     25  C   UNL     1       7.788   1.195  24.345  0.00  0.00    +0.050 C 
BRANCH  25  26
ATOM     26  C   UNL     1       8.525   2.516  24.210  0.00  0.00    -0.046 A 
ATOM     27  C   UNL     1       7.873   3.726  24.533  0.00  0.00    +0.007 A 
ATOM     28  C   UNL     1       8.517   4.961  24.424  0.00  0.00    +0.046 A 
ATOM     29  C   UNL     1       9.826   4.964  23.997  0.00  0.00    +0.124 A 
ATOM     30  O   UNL     1      10.577   6.094  23.851  0.00  0.00    -0.491 OA
ATOM     31  C   UNL     1      11.865   5.626  23.396  0.00  0.00    +0.234 C 
ATOM     32  C   UNL     1      11.872   4.098  23.278  0.00  0.00    +0.080 C 
ATOM     33  C   UNL     1      10.493   3.784  23.696  0.00  0.00    -0.002 A 
ATOM     34  C   UNL     1       9.859   2.553  23.789  0.00  0.00    +0.011 A 
ENDBRANCH  25  26
ENDBRANCH  24  25
ENDBRANCH  21  24
ENDBRANCH   1  19
TORSDOF 7
ENDMDL
MODEL 4
REMARK VINA RESULT:      -7.8      2.204      7.608
REMARK  Name = 
REMARK  7 active torsions:
REMARK  status: ('A' for Active; 'I' for Inactive)
REMARK    1  A    between atoms: C_2  and  C_4
REMARK    2  A    between atoms: C_4  and  C_5
REMARK    3  A    between atoms: C_4  and  C_22
REMARK    4  A    between atoms: C_4  and  C_28
REMARK    5  A    between atoms: N_9  and  C_10
REMARK    6  A    between atoms: C_10  and  C_11
REMARK    7  A    between atoms: C_11  and  C_12
REMARK                            x       y       z     vdW  Elec       q    Type
REMARK                         _______ _______ _______ _____ _____    ______ ____
ROOT
ATOM      1  C   UNL     1       8.330   1.545  23.806  0.00  0.00    +0.100 C 
ENDROOT
BRANCH   1   2
ATOM      2  C   UNL     1       7.986   0.432  24.864  0.00  0.00    -0.028 A 
ATOM      3  C   UNL     1       8.934   0.063  25.841  0.00  0.00    +0.005 A 
ATOM      4  C   UNL     1       8.613  -0.824  26.874  0.00  0.00    +0.000 A 
ATOM      5  C   UNL     1       7.329  -1.346  26.974  0.00  0.00    +0.000 A 
ATOM      6  C   UNL     1       6.368  -0.985  26.037  0.00  0.00    +0.000 A 
ATOM      7  C   UNL     1       6.691  -0.108  24.995  0.00  0.00    +0.005 A 
ENDBRANCH   1   2
BRANCH   1   8
ATOM      8  C   UNL     1       8.453   2.961  24.485  0.00  0.00    -0.028 A 
ATOM      9  C   UNL     1       9.406   3.898  24.034  0.00  0.00    +0.005 A 
ATOM     10  C   UNL     1       9.481   5.195  24.560  0.00  0.00    +0.000 A 
ATOM     11  C   UNL     1       8.673   5.562  25.626  0.00  0.00    +0.000 A 
ATOM     12  C   UNL     1       7.774   4.640  26.147  0.00  0.00    +0.000 A 
ATOM     13  C   UNL     1       7.652   3.369  25.571  0.00  0.00    +0.005 A 
ENDBRANCH   1   8
BRANCH   1  17
ATOM     14  N   UNL     1       6.564   2.643  22.308  0.00  0.00    -0.328 N 
ATOM     15  H   UNL     1       7.182   3.418  22.114  0.00  0.00    +0.145 HD
ATOM     16  H   UNL     1       5.851   2.486  21.605  0.00  0.00    +0.145 HD
ATOM     17  C   UNL     1       7.058   1.480  22.834  0.00  0.00    +0.226 C 
ATOM     18  O   UNL     1       6.527   0.440  22.438  0.00  0.00    -0.275 OA
ENDBRANCH   1  17
BRANCH   1  19
ATOM     19  C   UNL     1       9.652   1.183  22.971  0.00  0.00    +0.028 C 
ATOM     20  C   UNL     1      10.568   0.095  23.543  0.00  0.00    +0.089 C 
ATOM     21  N   UNL     1      10.465  -1.109  22.710  0.00  0.00    -0.302 NA
ATOM     22  C   UNL     1       9.635  -0.787  21.544  0.00  0.00    +0.085 C 
ATOM     23  C   UNL     1       9.508   0.731  21.515  0.00  0.00    +0.022 C 
BRANCH  21  24
ATOM     24  C   UNL     1       9.979  -2.259  23.496  0.00  0.00    +0.089 C 
BRANCH  24  25
ATOM     25  C   UNL     1       8.559  -2.741  23.144  0.00  0.00    +0.050 C 
BRANCH  25  26
ATOM     26  C   UNL     1       7.998  -3.704  24.174  0.00  0.00    -0.046 A 
ATOM     27  C   UNL     1       8.814  -4.164  25.230  0.00  0.00    +0.007 A 
ATOM     28  C   UNL     1       8.334  -5.050  26.200  0.00  0.00    +0.046 A 
ATOM     29  C   UNL     1       7.023  -5.460  26.097  0.00  0.00    +0.124 A 
ATOM     30  O   UNL     1       6.423  -6.315  26.975  0.00  0.00    -0.491 OA
ATOM     31  C   UNL     1       5.070  -6.454  26.489  0.00  0.00    +0.234 C 
ATOM     32  C   UNL     1       4.858  -5.602  25.233  0.00  0.00    +0.080 C 
ATOM     33  C   UNL     1       6.197  -5.003  25.079  0.00  0.00    -0.002 A 
ATOM     34  C   UNL     1       6.667  -4.133  24.106  0.00  0.00    +0.011 A 
ENDBRANCH  25  26
ENDBRANCH  24  25
ENDBRANCH  21  24
ENDBRANCH   1  19
TORSDOF 7
ENDMDL
MODEL 5
REMARK VINA RESULT:      -7.8      2.135      7.985
REMARK  Name = 
REMARK  7 active torsions:
REMARK  status: ('A' for Active; 'I' for Inactive)
REMARK    1  A    between atoms: C_2  and  C_4
REMARK    2  A    between atoms: C_4  and  C_5
REMARK    3  A    between atoms: C_4  and  C_22
REMARK    4  A    between atoms: C_4  and  C_28
REMARK    5  A    between atoms: N_9  and  C_10
REMARK    6  A    between atoms: C_10  and  C_11
REMARK    7  A    between atoms: C_11  and  C_12
REMARK                            x       y       z     vdW  Elec       q    Type
REMARK                         _______ _______ _______ _____ _____    ______ ____
ROOT
ATOM      1  C   UNL     1       8.203   2.515  23.596  0.00  0.00    +0.100 C 
ENDROOT
BRANCH   1   2
ATOM      2  C   UNL     1       9.346   3.593  23.689  0.00  0.00    -0.028 A 
ATOM      3  C   UNL     1      10.689   3.226  23.458  0.00  0.00    +0.005 A 
ATOM      4  C   UNL     1      11.709   4.181  23.402  0.00  0.00    +0.000 A 
ATOM      5  C   UNL     1      11.412   5.531  23.549  0.00  0.00    +0.000 A 
ATOM      6  C   UNL     1      10.096   5.924  23.757  0.00  0.00    +0.000 A 
ATOM      7  C   UNL     1       9.075   4.969  23.827  0.00  0.00    +0.005 A 
ENDBRANCH   1   2
BRANCH   1   8
ATOM      8  C   UNL     1       8.771   1.060  23.800  0.00  0.00    -0.028 A 
ATOM      9  C   UNL     1       8.426   0.019  22.914  0.00  0.00    +0.005 A 
ATOM     10  C   UNL     1       8.983  -1.263  23.019  0.00  0.00    +0.000 A 
ATOM     11  C   UNL     1       9.824  -1.573  24.078  0.00  0.00    +0.000 A 
ATOM     12  C   UNL     1      10.127  -0.593  25.014  0.00  0.00    +0.000 A 
ATOM     13  C   UNL     1       9.626   0.707  24.865  0.00  0.00    +0.005 A 
ENDBRANCH   1   8
BRANCH   1  17
ATOM     14  N   UNL     1       8.400   2.199  21.060  0.00  0.00    -0.328 N 
ATOM     15  H   UNL     1       8.932   1.350  21.188  0.00  0.00    +0.145 HD
ATOM     16  H   UNL     1       7.918   2.266  20.171  0.00  0.00    +0.145 HD
ATOM     17  C   UNL     1       7.676   2.723  22.097  0.00  0.00    +0.226 C 
ATOM     18  O   UNL     1       6.603   3.250  21.795  0.00  0.00    -0.275 OA
ENDBRANCH   1  17
BRANCH   1  19
ATOM     19  C   UNL     1       7.010   2.823  24.623  0.00  0.00    +0.028 C 
ATOM     20  C   UNL     1       5.965   1.722  24.839  0.00  0.00    +0.089 C 
ATOM     21  N   UNL     1       6.137   1.150  26.180  0.00  0.00    -0.302 NA
ATOM     22  C   UNL     1       7.151   1.940  26.886  0.00  0.00    +0.085 C 
ATOM     23  C   UNL     1       7.354   3.208  26.065  0.00  0.00    +0.022 C 
BRANCH  21  24
ATOM     24  C   UNL     1       6.441  -0.292  26.107  0.00  0.00    +0.089 C 
BRANCH  24  25
ATOM     25  C   UNL     1       5.401  -1.144  25.356  0.00  0.00    +0.050 C 
BRANCH  25  26
ATOM     26  C   UNL     1       6.012  -2.377  24.714  0.00  0.00    -0.046 A 
ATOM     27  C   UNL     1       6.877  -3.207  25.458  0.00  0.00    +0.007 A 
ATOM     28  C   UNL     1       7.458  -4.352  24.905  0.00  0.00    +0.046 A 
ATOM     29  C   UNL     1       7.150  -4.655  23.596  0.00  0.00    +0.124 A 
ATOM     30  O   UNL     1       7.639  -5.742  22.932  0.00  0.00    -0.491 OA
ATOM     31  C   UNL     1       7.055  -5.663  21.614  0.00  0.00    +0.234 C 
ATOM     32  C   UNL     1       6.140  -4.438  21.502  0.00  0.00    +0.080 C 
ATOM     33  C   UNL     1       6.284  -3.864  22.853  0.00  0.00    -0.002 A 
ATOM     34  C   UNL     1       5.712  -2.720  23.390  0.00  0.00    +0.011 A 
ENDBRANCH  25  26
ENDBRANCH  24  25
ENDBRANCH  21  24
ENDBRANCH   1  19
TORSDOF 7
ENDMDL
MODEL 6
REMARK VINA RESULT:      -7.7      2.218      3.755
REMARK  Name = 
REMARK  7 active torsions:
REMARK  status: ('A' for Active; 'I' for Inactive)
REMARK    1  A    between atoms: C_2  and  C_4
REMARK    2  A    between atoms: C_4  and  C_5
REMARK    3  A    between atoms: C_4  and  C_22
REMARK    4  A    between atoms: C_4  and  C_28
REMARK    5  A    between atoms: N_9  and  C_10
REMARK    6  A    between atoms: C_10  and  C_11
REMARK    7  A    between atoms: C_11  and  C_12
REMARK                            x       y       z     vdW  Elec       q    Type
REMARK                         _______ _______ _______ _____ _____    ______ ____
ROOT
ATOM      1  C   UNL     1       6.167  -3.762  24.593  0.00  0.00    +0.100 C 
ENDROOT
BRANCH   1   2
ATOM      2  C   UNL     1       5.740  -4.613  25.847  0.00  0.00    -0.028 A 
ATOM      3  C   UNL     1       5.292  -5.942  25.685  0.00  0.00    +0.005 A 
ATOM      4  C   UNL     1       5.033  -6.766  26.785  0.00  0.00    +0.000 A 
ATOM      5  C   UNL     1       5.240  -6.294  28.076  0.00  0.00    +0.000 A 
ATOM      6  C   UNL     1       5.700  -4.997  28.266  0.00  0.00    +0.000 A 
ATOM      7  C   UNL     1       5.946  -4.166  27.167  0.00  0.00    +0.005 A 
ENDBRANCH   1   2
BRANCH   1   8
ATOM      8  C   UNL     1       6.427  -2.259  24.984  0.00  0.00    -0.028 A 
ATOM      9  C   UNL     1       6.070  -1.213  24.108  0.00  0.00    +0.005 A 
ATOM     10  C   UNL     1       6.209   0.136  24.463  0.00  0.00    +0.000 A 
ATOM     11  C   UNL     1       6.806   0.481  25.666  0.00  0.00    +0.000 A 
ATOM     12  C   UNL     1       7.239  -0.523  26.523  0.00  0.00    +0.000 A 
ATOM     13  C   UNL     1       7.033  -1.869  26.197  0.00  0.00    +0.005 A 
ENDBRANCH   1   8
BRANCH   1  17
ATOM     14  N   UNL     1       3.636  -3.716  24.193  0.00  0.00    -0.328 N 
ATOM     15  H   UNL     1       3.506  -3.078  24.964  0.00  0.00    +0.145 HD
ATOM     16  H   UNL     1       2.902  -3.689  23.494  0.00  0.00    +0.145 HD
ATOM     17  C   UNL     1       4.879  -3.899  23.650  0.00  0.00    +0.226 C 
ATOM     18  O   UNL     1       4.915  -4.072  22.430  0.00  0.00    -0.275 OA
ENDBRANCH   1  17
BRANCH   1  19
ATOM     19  C   UNL     1       7.438  -4.398  23.847  0.00  0.00    +0.028 C 
ATOM     20  C   UNL     1       8.328  -3.446  23.040  0.00  0.00    +0.089 C 
ATOM     21  N   UNL     1       9.607  -3.273  23.738  0.00  0.00    -0.302 NA
ATOM     22  C   UNL     1       9.630  -4.191  24.882  0.00  0.00    +0.085 C 
ATOM     23  C   UNL     1       8.475  -5.163  24.674  0.00  0.00    +0.022 C 
BRANCH  21  24
ATOM     24  C   UNL     1       9.830  -1.860  24.095  0.00  0.00    +0.089 C 
BRANCH  24  25
ATOM     25  C   UNL     1      10.428  -0.986  22.976  0.00  0.00    +0.050 C 
BRANCH  25  26
ATOM     26  C   UNL     1       9.675   0.319  22.790  0.00  0.00    -0.046 A 
ATOM     27  C   UNL     1       8.804   0.483  21.692  0.00  0.00    +0.007 A 
ATOM     28  C   UNL     1       8.092   1.668  21.487  0.00  0.00    +0.046 A 
ATOM     29  C   UNL     1       8.261   2.681  22.404  0.00  0.00    +0.124 A 
ATOM     30  O   UNL     1       7.625   3.887  22.332  0.00  0.00    -0.491 OA
ATOM     31  C   UNL     1       8.090   4.620  23.486  0.00  0.00    +0.234 C 
ATOM     32  C   UNL     1       9.067   3.770  24.306  0.00  0.00    +0.080 C 
ATOM     33  C   UNL     1       9.095   2.533  23.503  0.00  0.00    -0.002 A 
ATOM     34  C   UNL     1       9.816   1.365  23.710  0.00  0.00    +0.011 A 
ENDBRANCH  25  26
ENDBRANCH  24  25
ENDBRANCH  21  24
ENDBRANCH   1  19
TORSDOF 7
ENDMDL
MODEL 7
REMARK VINA RESULT:      -7.6      1.857      3.058
REMARK  Name = 
REMARK  7 active torsions:
REMARK  status: ('A' for Active; 'I' for Inactive)
REMARK    1  A    between atoms: C_2  and  C_4
REMARK    2  A    between atoms: C_4  and  C_5
REMARK    3  A    between atoms: C_4  and  C_22
REMARK    4  A    between atoms: C_4  and  C_28
REMARK    5  A    between atoms: N_9  and  C_10
REMARK    6  A    between atoms: C_10  and  C_11
REMARK    7  A    between atoms: C_11  and  C_12
REMARK                            x       y       z     vdW  Elec       q    Type
REMARK                         _______ _______ _______ _____ _____    ______ ____
ROOT
ATOM      1  C   UNL     1       6.474  -5.155  23.824  0.00  0.00    +0.100 C 
ENDROOT
BRANCH   1   2
ATOM      2  C   UNL     1       4.966  -5.599  23.759  0.00  0.00    -0.028 A 
ATOM      3  C   UNL     1       4.557  -6.815  24.347  0.00  0.00    +0.005 A 
ATOM      4  C   UNL     1       3.207  -7.174  24.422  0.00  0.00    +0.000 A 
ATOM      5  C   UNL     1       2.227  -6.315  23.936  0.00  0.00    +0.000 A 
ATOM      6  C   UNL     1       2.598  -5.102  23.370  0.00  0.00    +0.000 A 
ATOM      7  C   UNL     1       3.949  -4.748  23.281  0.00  0.00    +0.005 A 
ENDBRANCH   1   2
BRANCH   1   8
ATOM      8  C   UNL     1       6.629  -3.613  23.543  0.00  0.00    -0.028 A 
ATOM      9  C   UNL     1       7.616  -3.136  22.656  0.00  0.00    +0.005 A 
ATOM     10  C   UNL     1       7.722  -1.780  22.319  0.00  0.00    +0.000 A 
ATOM     11  C   UNL     1       6.910  -0.843  22.941  0.00  0.00    +0.000 A 
ATOM     12  C   UNL     1       5.977  -1.267  23.877  0.00  0.00    +0.000 A 
ATOM     13  C   UNL     1       5.825  -2.631  24.157  0.00  0.00    +0.005 A 
ENDBRANCH   1   8
BRANCH   1  17
ATOM     14  N   UNL     1       6.356  -6.350  21.560  0.00  0.00    -0.328 N 
ATOM     15  H   UNL     1       5.626  -5.728  21.248  0.00  0.00    +0.145 HD
ATOM     16  H   UNL     1       6.892  -6.781  20.815  0.00  0.00    +0.145 HD
ATOM     17  C   UNL     1       7.124  -6.024  22.646  0.00  0.00    +0.226 C 
ATOM     18  O   UNL     1       8.309  -6.359  22.589  0.00  0.00    -0.275 OA
ENDBRANCH   1  17
BRANCH   1  19
ATOM     19  C   UNL     1       7.155  -5.564  25.219  0.00  0.00    +0.028 C 
ATOM     20  C   UNL     1       8.599  -5.107  25.457  0.00  0.00    +0.089 C 
ATOM     21  N   UNL     1       8.609  -4.051  26.476  0.00  0.00    -0.302 NA
ATOM     22  C   UNL     1       7.248  -3.917  27.007  0.00  0.00    +0.085 C 
ATOM     23  C   UNL     1       6.478  -5.140  26.525  0.00  0.00    +0.022 C 
BRANCH  21  24
ATOM     24  C   UNL     1       9.171  -2.798  25.937  0.00  0.00    +0.089 C 
BRANCH  24  25
ATOM     25  C   UNL     1       8.550  -1.506  26.498  0.00  0.00    +0.050 C 
BRANCH  25  26
ATOM     26  C   UNL     1       8.964  -0.272  25.716  0.00  0.00    -0.046 A 
ATOM     27  C   UNL     1      10.109  -0.309  24.891  0.00  0.00    +0.007 A 
ATOM     28  C   UNL     1      10.522   0.805  24.154  0.00  0.00    +0.046 A 
ATOM     29  C   UNL     1       9.764   1.951  24.250  0.00  0.00    +0.124 A 
ATOM     30  O   UNL     1      10.046   3.107  23.582  0.00  0.00    -0.491 OA
ATOM     31  C   UNL     1       9.000   4.023  23.971  0.00  0.00    +0.234 C 
ATOM     32  C   UNL     1       8.020   3.344  24.934  0.00  0.00    +0.080 C 
ATOM     33  C   UNL     1       8.622   2.002  25.037  0.00  0.00    -0.002 A 
ATOM     34  C   UNL     1       8.210   0.906  25.781  0.00  0.00    +0.011 A 
ENDBRANCH  25  26
ENDBRANCH  24  25
ENDBRANCH  21  24
ENDBRANCH   1  19
TORSDOF 7
ENDMDL
MODEL 8
REMARK VINA RESULT:      -7.6      1.894      3.402
REMARK  Name = 
REMARK  7 active torsions:
REMARK  status: ('A' for Active; 'I' for Inactive)
REMARK    1  A    between atoms: C_2  and  C_4
REMARK    2  A    between atoms: C_4  and  C_5
REMARK    3  A    between atoms: C_4  and  C_22
REMARK    4  A    between atoms: C_4  and  C_28
REMARK    5  A    between atoms: N_9  and  C_10
REMARK    6  A    between atoms: C_10  and  C_11
REMARK    7  A    between atoms: C_11  and  C_12
REMARK                            x       y       z     vdW  Elec       q    Type
REMARK                         _______ _______ _______ _____ _____    ______ ____
ROOT
ATOM      1  C   UNL     1       7.063  -4.317  25.459  0.00  0.00    +0.100 C 
ENDROOT
BRANCH   1   2
ATOM      2  C   UNL     1       6.159  -4.907  26.604  0.00  0.00    -0.028 A 
ATOM      3  C   UNL     1       5.473  -4.043  27.484  0.00  0.00    +0.005 A 
ATOM      4  C   UNL     1       4.560  -4.532  28.425  0.00  0.00    +0.000 A 
ATOM      5  C   UNL     1       4.288  -5.893  28.494  0.00  0.00    +0.000 A 
ATOM      6  C   UNL     1       4.933  -6.766  27.627  0.00  0.00    +0.000 A 
ATOM      7  C   UNL     1       5.857  -6.281  26.694  0.00  0.00    +0.005 A 
ENDBRANCH   1   2
BRANCH   1   8
ATOM      8  C   UNL     1       6.678  -4.922  24.057  0.00  0.00    -0.028 A 
ATOM      9  C   UNL     1       5.349  -5.295  23.772  0.00  0.00    +0.005 A 
ATOM     10  C   UNL     1       4.959  -5.755  22.507  0.00  0.00    +0.000 A 
ATOM     11  C   UNL     1       5.910  -5.957  21.516  0.00  0.00    +0.000 A 
ATOM     12  C   UNL     1       7.242  -5.672  21.785  0.00  0.00    +0.000 A 
ATOM     13  C   UNL     1       7.616  -5.144  23.027  0.00  0.00    +0.005 A 
ENDBRANCH   1   8
BRANCH   1  17
ATOM     14  N   UNL     1       9.279  -5.535  25.045  0.00  0.00    -0.328 N 
ATOM     15  H   UNL     1       9.190  -5.399  24.049  0.00  0.00    +0.145 HD
ATOM     16  H   UNL     1      10.230  -5.672  25.370  0.00  0.00    +0.145 HD
ATOM     17  C   UNL     1       8.523  -4.795  25.913  0.00  0.00    +0.226 C 
ATOM     18  O   UNL     1       9.073  -4.473  26.969  0.00  0.00    -0.275 OA
ENDBRANCH   1  17
BRANCH   1  19
ATOM     19  C   UNL     1       7.017  -2.713  25.433  0.00  0.00    +0.028 C 
ATOM     20  C   UNL     1       8.263  -1.983  24.917  0.00  0.00    +0.089 C 
ATOM     21  N   UNL     1       7.968  -1.392  23.607  0.00  0.00    -0.302 NA
ATOM     22  C   UNL     1       6.541  -1.587  23.330  0.00  0.00    +0.085 C 
ATOM     23  C   UNL     1       5.904  -2.016  24.646  0.00  0.00    +0.022 C 
BRANCH  21  24
ATOM     24  C   UNL     1       8.863  -1.933  22.566  0.00  0.00    +0.089 C 
BRANCH  24  25
ATOM     25  C   UNL     1       9.517  -0.881  21.652  0.00  0.00    +0.050 C 
BRANCH  25  26
ATOM     26  C   UNL     1       9.400   0.528  22.206  0.00  0.00    -0.046 A 
ATOM     27  C   UNL     1      10.363   1.012  23.118  0.00  0.00    +0.007 A 
ATOM     28  C   UNL     1      10.292   2.302  23.649  0.00  0.00    +0.046 A 
ATOM     29  C   UNL     1       9.245   3.102  23.246  0.00  0.00    +0.124 A 
ATOM     30  O   UNL     1       9.055   4.383  23.678  0.00  0.00    -0.491 OA
ATOM     31  C   UNL     1       7.861   4.828  23.001  0.00  0.00    +0.234 C 
ATOM     32  C   UNL     1       7.314   3.724  22.089  0.00  0.00    +0.080 C 
ATOM     33  C   UNL     1       8.299   2.654  22.334  0.00  0.00    -0.002 A 
ATOM     34  C   UNL     1       8.355   1.371  21.809  0.00  0.00    +0.011 A 
ENDBRANCH  25  26
ENDBRANCH  24  25
ENDBRANCH  21  24
ENDBRANCH   1  19
TORSDOF 7
ENDMDL
MODEL 9
REMARK VINA RESULT:      -7.5      1.896      3.452
REMARK  Name = 
REMARK  7 active torsions:
REMARK  status: ('A' for Active; 'I' for Inactive)
REMARK    1  A    between atoms: C_2  and  C_4
REMARK    2  A    between atoms: C_4  and  C_5
REMARK    3  A    between atoms: C_4  and  C_22
REMARK    4  A    between atoms: C_4  and  C_28
REMARK    5  A    between atoms: N_9  and  C_10
REMARK    6  A    between atoms: C_10  and  C_11
REMARK    7  A    between atoms: C_11  and  C_12
REMARK                            x       y       z     vdW  Elec       q    Type
REMARK                         _______ _______ _______ _____ _____    ______ ____
ROOT
ATOM      1  C   UNL     1       7.102  -4.206  25.397  0.00  0.00    +0.100 C 
ENDROOT
BRANCH   1   2
ATOM      2  C   UNL     1       5.957  -3.338  26.041  0.00  0.00    -0.028 A 
ATOM      3  C   UNL     1       5.551  -3.572  27.372  0.00  0.00    +0.005 A 
ATOM      4  C   UNL     1       4.633  -2.735  28.014  0.00  0.00    +0.000 A 
ATOM      5  C   UNL     1       4.116  -1.626  27.354  0.00  0.00    +0.000 A 
ATOM      6  C   UNL     1       4.513  -1.359  26.049  0.00  0.00    +0.000 A 
ATOM      7  C   UNL     1       5.421  -2.204  25.400  0.00  0.00    +0.005 A 
ENDBRANCH   1   2
BRANCH   1   8
ATOM      8  C   UNL     1       6.827  -4.473  23.870  0.00  0.00    -0.028 A 
ATOM      9  C   UNL     1       7.381  -5.597  23.222  0.00  0.00    +0.005 A 
ATOM     10  C   UNL     1       7.085  -5.909  21.888  0.00  0.00    +0.000 A 
ATOM     11  C   UNL     1       6.307  -5.047  21.128  0.00  0.00    +0.000 A 
ATOM     12  C   UNL     1       5.806  -3.891  21.711  0.00  0.00    +0.000 A 
ATOM     13  C   UNL     1       6.044  -3.620  23.065  0.00  0.00    +0.005 A 
ENDBRANCH   1   8
BRANCH   1  17
ATOM     14  N   UNL     1       8.015  -5.876  27.113  0.00  0.00    -0.328 N 
ATOM     15  H   UNL     1       8.535  -5.146  27.577  0.00  0.00    +0.145 HD
ATOM     16  H   UNL     1       7.798  -6.676  27.698  0.00  0.00    +0.145 HD
ATOM     17  C   UNL     1       7.004  -5.561  26.247  0.00  0.00    +0.226 C 
ATOM     18  O   UNL     1       6.032  -6.319  26.253  0.00  0.00    -0.275 OA
ENDBRANCH   1  17
BRANCH   1  19
ATOM     19  C   UNL     1       8.547  -3.546  25.623  0.00  0.00    +0.028 C 
ATOM     20  C   UNL     1       9.441  -3.373  24.389  0.00  0.00    +0.089 C 
ATOM     21  N   UNL     1       9.530  -1.947  24.053  0.00  0.00    -0.302 NA
ATOM     22  C   UNL     1       8.852  -1.187  25.109  0.00  0.00    +0.085 C 
ATOM     23  C   UNL     1       8.635  -2.158  26.263  0.00  0.00    +0.022 C 
BRANCH  21  24
ATOM     24  C   UNL     1       9.012  -1.686  22.697  0.00  0.00    +0.089 C 
BRANCH  24  25
ATOM     25  C   UNL     1       9.793  -0.635  21.887  0.00  0.00    +0.050 C 
BRANCH  25  26
ATOM     26  C   UNL     1       9.465   0.786  22.306  0.00  0.00    -0.046 A 
ATOM     27  C   UNL     1      10.381   1.524  23.086  0.00  0.00    +0.007 A 
ATOM     28  C   UNL     1      10.117   2.836  23.490  0.00  0.00    +0.046 A 
ATOM     29  C   UNL     1       8.924   3.398  23.093  0.00  0.00    +0.124 A 
ATOM     30  O   UNL     1       8.539   4.669  23.409  0.00  0.00    -0.491 OA
ATOM     31  C   UNL     1       7.246   4.829  22.787  0.00  0.00    +0.234 C 
ATOM     32  C   UNL     1       6.847   3.554  22.035  0.00  0.00    +0.080 C 
ATOM     33  C   UNL     1       8.018   2.699  22.307  0.00  0.00    -0.002 A 
ATOM     34  C   UNL     1       8.266   1.392  21.910  0.00  0.00    +0.011 A 
ENDBRANCH  25  26
ENDBRANCH  24  25
ENDBRANCH  21  24
ENDBRANCH   1  19
TORSDOF 7
ENDMDL
