MODEL 1
REMARK VINA RESULT:      -5.4      0.000      0.000
REMARK  Name = 
REMARK  12 active torsions:
REMARK  status: ('A' for Active; 'I' for Inactive)
REMARK    1  A    between atoms: C_1  and  C_2
REMARK    2  A    between atoms: C_2  and  C_3
REMARK    3  A    between atoms: C_2  and  N_4
REMARK    4  A    between atoms: N_4  and  C_5
REMARK    5  A    between atoms: C_5  and  C_6
REMARK    6  A    between atoms: C_6  and  O_7
REMARK    7  A    between atoms: C_6  and  C_8
REMARK    8  A    between atoms: C_8  and  O_9
REMARK    9  A    between atoms: O_9  and  C_10
REMARK   10  A    between atoms: C_15  and  O_16
REMARK   11  A    between atoms: O_16  and  C_17
REMARK   12  A    between atoms: C_17  and  C_18
REMARK                            x       y       z     vdW  Elec       q    Type
REMARK                         _______ _______ _______ _____ _____    ______ ____
ROOT
ATOM      1  O   UNL     1       8.262  -4.493  24.818  0.00  0.00    -0.486 OA
ENDROOT
BRANCH   1   2
ATOM      2  C   UNL     1       8.627  -3.478  23.967  0.00  0.00    +0.162 A 
ATOM      3  C   UNL     1       7.691  -3.041  23.020  0.00  0.00    +0.162 A 
ATOM      4  C   UNL     1       7.988  -1.904  22.250  0.00  0.00    +0.049 A 
ATOM      5  C   UNL     1       9.233  -1.279  22.346  0.00  0.00    +0.004 A 
ATOM      6  C   UNL     1      10.198  -1.792  23.202  0.00  0.00    +0.004 A 
ATOM      7  C   UNL     1       9.900  -2.892  24.002  0.00  0.00    +0.049 A 
BRANCH   3   8
ATOM      8  O   UNL     1       6.515  -3.749  22.882  0.00  0.00    -0.484 OA
BRANCH   8   9
ATOM      9  C   UNL     1       6.116  -3.987  21.528  0.00  0.00    +0.256 C 
BRANCH   9  10
ATOM     10  C   UNL     1       6.275  -5.439  21.188  0.00  0.00    +0.006 C 
ATOM     11  C   UNL     1       6.676  -6.368  22.069  0.00  0.00    +0.007 C 
ENDBRANCH   9  10
ENDBRANCH   8   9
ENDBRANCH   3   8
ENDBRANCH   1   2
BRANCH   1  12
ATOM     12  C   UNL     1       8.072  -4.129  26.193  0.00  0.00    +0.261 C 
BRANCH  12  13
ATOM     13  C   UNL     1       7.042  -5.015  26.927  0.00  0.00    +0.166 C 
BRANCH  13  14
ATOM     14  O   UNL     1       7.646  -5.985  27.799  0.00  0.00    -0.387 OA
ATOM     15  H   UNL     1       7.334  -5.823  28.704  0.00  0.00    +0.210 HD
ENDBRANCH  13  14
BRANCH  13  16
ATOM     16  C   UNL     1       6.196  -5.782  25.887  0.00  0.00    +0.115 C 
BRANCH  16  17
ATOM     17  N   UNL     1       5.199  -4.897  25.273  0.00  0.00    -0.311 NA
ATOM     18  H   UNL     1       5.064  -4.097  25.900  0.00  0.00    +0.122 HD
BRANCH  17  20
ATOM     19  C   UNL     1       3.306  -4.871  23.755  0.00  0.00    +0.023 C 
ATOM     20  C   UNL     1       3.920  -5.549  24.982  0.00  0.00    +0.048 C 
ATOM     21  C   UNL     1       4.097  -7.044  24.705  0.00  0.00    +0.023 C 
ENDBRANCH  17  20
ENDBRANCH  16  17
ENDBRANCH  13  16
ENDBRANCH  12  13
ENDBRANCH   1  12
TORSDOF 10
ENDMDL
MODEL 2
REMARK VINA RESULT:      -5.4      2.621      5.748
REMARK  Name = 
REMARK  12 active torsions:
REMARK  status: ('A' for Active; 'I' for Inactive)
REMARK    1  A    between atoms: C_1  and  C_2
REMARK    2  A    between atoms: C_2  and  C_3
REMARK    3  A    between atoms: C_2  and  N_4
REMARK    4  A    between atoms: N_4  and  C_5
REMARK    5  A    between atoms: C_5  and  C_6
REMARK    6  A    between atoms: C_6  and  O_7
REMARK    7  A    between atoms: C_6  and  C_8
REMARK    8  A    between atoms: C_8  and  O_9
REMARK    9  A    between atoms: O_9  and  C_10
REMARK   10  A    between atoms: C_15  and  O_16
REMARK   11  A    between atoms: O_16  and  C_17
REMARK   12  A    between atoms: C_17  and  C_18
REMARK                            x       y       z     vdW  Elec       q    Type
REMARK                         _______ _______ _______ _____ _____    ______ ____
ROOT
ATOM      1  O   UNL     1       8.125  -3.301  22.871  0.00  0.00    -0.486 OA
ENDROOT
BRANCH   1   2
ATOM      2  C   UNL     1       8.085  -3.871  24.120  0.00  0.00    +0.162 A 
ATOM      3  C   UNL     1       6.913  -4.535  24.506  0.00  0.00    +0.162 A 
ATOM      4  C   UNL     1       6.908  -5.256  25.712  0.00  0.00    +0.049 A 
ATOM      5  C   UNL     1       8.013  -5.229  26.565  0.00  0.00    +0.004 A 
ATOM      6  C   UNL     1       9.127  -4.472  26.230  0.00  0.00    +0.004 A 
ATOM      7  C   UNL     1       9.160  -3.788  25.018  0.00  0.00    +0.049 A 
BRANCH   3   8
ATOM      8  O   UNL     1       5.808  -4.449  23.684  0.00  0.00    -0.484 OA
BRANCH   8   9
ATOM      9  C   UNL     1       5.299  -5.708  23.233  0.00  0.00    +0.256 C 
BRANCH   9  10
ATOM     10  C   UNL     1       6.161  -6.251  22.132  0.00  0.00    +0.006 C 
ATOM     11  C   UNL     1       6.272  -5.677  20.925  0.00  0.00    +0.007 C 
ENDBRANCH   9  10
ENDBRANCH   8   9
ENDBRANCH   3   8
ENDBRANCH   1   2
BRANCH   1  12
ATOM     12  C   UNL     1       8.303  -1.877  22.830  0.00  0.00    +0.261 C 
BRANCH  12  13
ATOM     13  C   UNL     1       9.295  -1.412  21.742  0.00  0.00    +0.166 C 
BRANCH  13  14
ATOM     14  O   UNL     1      10.655  -1.792  22.013  0.00  0.00    -0.387 OA
ATOM     15  H   UNL     1      11.114  -1.917  21.166  0.00  0.00    +0.210 HD
ENDBRANCH  13  14
BRANCH  13  16
ATOM     16  C   UNL     1       9.251   0.129  21.635  0.00  0.00    +0.115 C 
BRANCH  16  17
ATOM     17  N   UNL     1       8.984   0.733  22.946  0.00  0.00    -0.311 NA
ATOM     18  H   UNL     1       8.202   1.385  22.835  0.00  0.00    +0.122 HD
BRANCH  17  20
ATOM     19  C   UNL     1       9.683   2.772  24.060  0.00  0.00    +0.023 C 
ATOM     20  C   UNL     1      10.142   1.408  23.538  0.00  0.00    +0.048 C 
ATOM     21  C   UNL     1      10.745   0.597  24.687  0.00  0.00    +0.023 C 
ENDBRANCH  17  20
ENDBRANCH  16  17
ENDBRANCH  13  16
ENDBRANCH  12  13
ENDBRANCH   1  12
TORSDOF 10
ENDMDL
MODEL 3
REMARK VINA RESULT:      -5.4      2.116      3.563
REMARK  Name = 
REMARK  12 active torsions:
REMARK  status: ('A' for Active; 'I' for Inactive)
REMARK    1  A    between atoms: C_1  and  C_2
REMARK    2  A    between atoms: C_2  and  C_3
REMARK    3  A    between atoms: C_2  and  N_4
REMARK    4  A    between atoms: N_4  and  C_5
REMARK    5  A    between atoms: C_5  and  C_6
REMARK    6  A    between atoms: C_6  and  O_7
REMARK    7  A    between atoms: C_6  and  C_8
REMARK    8  A    between atoms: C_8  and  O_9
REMARK    9  A    between atoms: O_9  and  C_10
REMARK   10  A    between atoms: C_15  and  O_16
REMARK   11  A    between atoms: O_16  and  C_17
REMARK   12  A    between atoms: C_17  and  C_18
REMARK                            x       y       z     vdW  Elec       q    Type
REMARK                         _______ _______ _______ _____ _____    ______ ____
ROOT
ATOM      1  O   UNL     1       8.737  -2.758  22.938  0.00  0.00    -0.486 OA
ENDROOT
BRANCH   1   2
ATOM      2  C   UNL     1       8.582  -1.445  22.567  0.00  0.00    +0.162 A 
ATOM      3  C   UNL     1       7.416  -0.778  22.965  0.00  0.00    +0.162 A 
ATOM      4  C   UNL     1       7.311   0.603  22.731  0.00  0.00    +0.049 A 
ATOM      5  C   UNL     1       8.301   1.285  22.022  0.00  0.00    +0.004 A 
ATOM      6  C   UNL     1       9.398   0.593  21.527  0.00  0.00    +0.004 A 
ATOM      7  C   UNL     1       9.534  -0.768  21.790  0.00  0.00    +0.049 A 
BRANCH   3   8
ATOM      8  O   UNL     1       6.414  -1.510  23.570  0.00  0.00    -0.484 OA
BRANCH   8   9
ATOM      9  C   UNL     1       5.934  -0.962  24.802  0.00  0.00    +0.256 C 
BRANCH   9  10
ATOM     10  C   UNL     1       6.717  -1.513  25.956  0.00  0.00    +0.006 C 
ATOM     11  C   UNL     1       7.652  -0.816  26.619  0.00  0.00    +0.007 C 
ENDBRANCH   9  10
ENDBRANCH   8   9
ENDBRANCH   3   8
ENDBRANCH   1   2
BRANCH   1  12
ATOM     12  C   UNL     1       9.546  -2.996  24.100  0.00  0.00    +0.261 C 
BRANCH  12  13
ATOM     13  C   UNL     1       9.195  -4.307  24.836  0.00  0.00    +0.166 C 
BRANCH  13  14
ATOM     14  O   UNL     1      10.341  -5.131  25.109  0.00  0.00    -0.387 OA
ATOM     15  H   UNL     1      10.119  -5.734  25.837  0.00  0.00    +0.210 HD
ENDBRANCH  13  14
BRANCH  13  16
ATOM     16  C   UNL     1       8.219  -5.134  23.968  0.00  0.00    +0.115 C 
BRANCH  16  17
ATOM     17  N   UNL     1       6.865  -4.571  24.029  0.00  0.00    -0.311 NA
ATOM     18  H   UNL     1       6.474  -4.799  24.949  0.00  0.00    +0.122 HD
BRANCH  17  20
ATOM     19  C   UNL     1       6.843  -5.639  21.850  0.00  0.00    +0.023 C 
ATOM     20  C   UNL     1       5.978  -5.036  22.960  0.00  0.00    +0.048 C 
ATOM     21  C   UNL     1       4.987  -6.087  23.463  0.00  0.00    +0.023 C 
ENDBRANCH  17  20
ENDBRANCH  16  17
ENDBRANCH  13  16
ENDBRANCH  12  13
ENDBRANCH   1  12
TORSDOF 10
ENDMDL
MODEL 4
REMARK VINA RESULT:      -5.3      2.896      6.338
REMARK  Name = 
REMARK  12 active torsions:
REMARK  status: ('A' for Active; 'I' for Inactive)
REMARK    1  A    between atoms: C_1  and  C_2
REMARK    2  A    between atoms: C_2  and  C_3
REMARK    3  A    between atoms: C_2  and  N_4
REMARK    4  A    between atoms: N_4  and  C_5
REMARK    5  A    between atoms: C_5  and  C_6
REMARK    6  A    between atoms: C_6  and  O_7
REMARK    7  A    between atoms: C_6  and  C_8
REMARK    8  A    between atoms: C_8  and  O_9
REMARK    9  A    between atoms: O_9  and  C_10
REMARK   10  A    between atoms: C_15  and  O_16
REMARK   11  A    between atoms: O_16  and  C_17
REMARK   12  A    between atoms: C_17  and  C_18
REMARK                            x       y       z     vdW  Elec       q    Type
REMARK                         _______ _______ _______ _____ _____    ______ ____
ROOT
ATOM      1  O   UNL     1       7.797  -2.018  23.562  0.00  0.00    -0.486 OA
ENDROOT
BRANCH   1   2
ATOM      2  C   UNL     1       7.457  -3.227  23.006  0.00  0.00    +0.162 A 
ATOM      3  C   UNL     1       8.136  -4.371  23.447  0.00  0.00    +0.162 A 
ATOM      4  C   UNL     1       7.697  -5.631  23.007  0.00  0.00    +0.049 A 
ATOM      5  C   UNL     1       6.671  -5.743  22.067  0.00  0.00    +0.004 A 
ATOM      6  C   UNL     1       6.082  -4.598  21.547  0.00  0.00    +0.004 A 
ATOM      7  C   UNL     1       6.480  -3.345  22.007  0.00  0.00    +0.049 A 
BRANCH   3   8
ATOM      8  O   UNL     1       9.213  -4.211  24.294  0.00  0.00    -0.484 OA
BRANCH   8   9
ATOM      9  C   UNL     1       9.306  -5.189  25.335  0.00  0.00    +0.256 C 
BRANCH   9  10
ATOM     10  C   UNL     1       8.598  -4.705  26.565  0.00  0.00    +0.006 C 
ATOM     11  C   UNL     1       7.477  -5.264  27.044  0.00  0.00    +0.007 C 
ENDBRANCH   9  10
ENDBRANCH   8   9
ENDBRANCH   3   8
ENDBRANCH   1   2
BRANCH   1  12
ATOM     12  C   UNL     1       8.125  -0.967  22.640  0.00  0.00    +0.261 C 
BRANCH  12  13
ATOM     13  C   UNL     1       9.631  -0.629  22.604  0.00  0.00    +0.166 C 
BRANCH  13  14
ATOM     14  O   UNL     1      10.418  -1.614  21.914  0.00  0.00    -0.387 OA
ATOM     15  H   UNL     1      10.388  -2.442  22.420  0.00  0.00    +0.210 HD
ENDBRANCH  13  14
BRANCH  13  16
ATOM     16  C   UNL     1      10.167  -0.530  24.050  0.00  0.00    +0.115 C 
BRANCH  16  17
ATOM     17  N   UNL     1      10.759   0.790  24.295  0.00  0.00    -0.311 NA
ATOM     18  H   UNL     1      10.848   0.908  25.310  0.00  0.00    +0.122 HD
BRANCH  17  20
ATOM     19  C   UNL     1       8.942   2.342  24.719  0.00  0.00    +0.023 C 
ATOM     20  C   UNL     1      10.004   1.900  23.709  0.00  0.00    +0.048 C 
ATOM     21  C   UNL     1      10.911   3.085  23.370  0.00  0.00    +0.023 C 
ENDBRANCH  17  20
ENDBRANCH  16  17
ENDBRANCH  13  16
ENDBRANCH  12  13
ENDBRANCH   1  12
TORSDOF 10
ENDMDL
MODEL 5
REMARK VINA RESULT:      -5.3      2.842      6.379
REMARK  Name = 
REMARK  12 active torsions:
REMARK  status: ('A' for Active; 'I' for Inactive)
REMARK    1  A    between atoms: C_1  and  C_2
REMARK    2  A    between atoms: C_2  and  C_3
REMARK    3  A    between atoms: C_2  and  N_4
REMARK    4  A    between atoms: N_4  and  C_5
REMARK    5  A    between atoms: C_5  and  C_6
REMARK    6  A    between atoms: C_6  and  O_7
REMARK    7  A    between atoms: C_6  and  C_8
REMARK    8  A    between atoms: C_8  and  O_9
REMARK    9  A    between atoms: O_9  and  C_10
REMARK   10  A    between atoms: C_15  and  O_16
REMARK   11  A    between atoms: O_16  and  C_17
REMARK   12  A    between atoms: C_17  and  C_18
REMARK                            x       y       z     vdW  Elec       q    Type
REMARK                         _______ _______ _______ _____ _____    ______ ____
ROOT
ATOM      1  O   UNL     1       8.353  -3.127  23.186  0.00  0.00    -0.486 OA
ENDROOT
BRANCH   1   2
ATOM      2  C   UNL     1       7.392  -4.102  23.079  0.00  0.00    +0.162 A 
ATOM      3  C   UNL     1       6.625  -4.402  24.213  0.00  0.00    +0.162 A 
ATOM      4  C   UNL     1       5.536  -5.281  24.081  0.00  0.00    +0.049 A 
ATOM      5  C   UNL     1       5.282  -5.928  22.871  0.00  0.00    +0.004 A 
ATOM      6  C   UNL     1       6.119  -5.716  21.784  0.00  0.00    +0.004 A 
ATOM      7  C   UNL     1       7.175  -4.814  21.890  0.00  0.00    +0.049 A 
BRANCH   3   8
ATOM      8  O   UNL     1       6.974  -3.822  25.415  0.00  0.00    -0.484 OA
BRANCH   8   9
ATOM      9  C   UNL     1       7.525  -4.726  26.377  0.00  0.00    +0.256 C 
BRANCH   9  10
ATOM     10  C   UNL     1       9.011  -4.545  26.468  0.00  0.00    +0.006 C 
ATOM     11  C   UNL     1       9.883  -5.137  25.638  0.00  0.00    +0.007 C 
ENDBRANCH   9  10
ENDBRANCH   8   9
ENDBRANCH   3   8
ENDBRANCH   1   2
BRANCH   1  12
ATOM     12  C   UNL     1       8.037  -1.859  22.593  0.00  0.00    +0.261 C 
BRANCH  12  13
ATOM     13  C   UNL     1       9.120  -1.350  21.617  0.00  0.00    +0.166 C 
BRANCH  13  14
ATOM     14  O   UNL     1      10.451  -1.745  21.989  0.00  0.00    -0.387 OA
ATOM     15  H   UNL     1      11.032  -0.970  21.920  0.00  0.00    +0.210 HD
ENDBRANCH  13  14
BRANCH  13  16
ATOM     16  C   UNL     1       9.084   0.194  21.575  0.00  0.00    +0.115 C 
BRANCH  16  17
ATOM     17  N   UNL     1      10.236   0.760  22.287  0.00  0.00    -0.311 NA
ATOM     18  H   UNL     1      10.938   0.020  22.382  0.00  0.00    +0.122 HD
BRANCH  17  20
ATOM     19  C   UNL     1      10.768   0.635  24.652  0.00  0.00    +0.023 C 
ATOM     20  C   UNL     1       9.906   1.331  23.596  0.00  0.00    +0.048 C 
ATOM     21  C   UNL     1      10.164   2.839  23.637  0.00  0.00    +0.023 C 
ENDBRANCH  17  20
ENDBRANCH  16  17
ENDBRANCH  13  16
ENDBRANCH  12  13
ENDBRANCH   1  12
TORSDOF 10
ENDMDL
MODEL 6
REMARK VINA RESULT:      -5.3      2.534      4.660
REMARK  Name = 
REMARK  12 active torsions:
REMARK  status: ('A' for Active; 'I' for Inactive)
REMARK    1  A    between atoms: C_1  and  C_2
REMARK    2  A    between atoms: C_2  and  C_3
REMARK    3  A    between atoms: C_2  and  N_4
REMARK    4  A    between atoms: N_4  and  C_5
REMARK    5  A    between atoms: C_5  and  C_6
REMARK    6  A    between atoms: C_6  and  O_7
REMARK    7  A    between atoms: C_6  and  C_8
REMARK    8  A    between atoms: C_8  and  O_9
REMARK    9  A    between atoms: O_9  and  C_10
REMARK   10  A    between atoms: C_15  and  O_16
REMARK   11  A    between atoms: O_16  and  C_17
REMARK   12  A    between atoms: C_17  and  C_18
REMARK                            x       y       z     vdW  Elec       q    Type
REMARK                         _______ _______ _______ _____ _____    ______ ____
ROOT
ATOM      1  O   UNL     1       8.814  -2.277  22.420  0.00  0.00    -0.486 OA
ENDROOT
BRANCH   1   2
ATOM      2  C   UNL     1       9.278  -1.010  22.675  0.00  0.00    +0.162 A 
ATOM      3  C   UNL     1       9.676  -0.703  23.984  0.00  0.00    +0.162 A 
ATOM      4  C   UNL     1      10.297   0.533  24.230  0.00  0.00    +0.049 A 
ATOM      5  C   UNL     1      10.424   1.485  23.217  0.00  0.00    +0.004 A 
ATOM      6  C   UNL     1       9.920   1.218  21.951  0.00  0.00    +0.004 A 
ATOM      7  C   UNL     1       9.341  -0.020  21.684  0.00  0.00    +0.049 A 
BRANCH   3   8
ATOM      8  O   UNL     1       9.437  -1.629  24.978  0.00  0.00    -0.484 OA
BRANCH   8   9
ATOM      9  C   UNL     1       8.734  -1.117  26.115  0.00  0.00    +0.256 C 
BRANCH   9  10
ATOM     10  C   UNL     1       7.320  -0.784  25.744  0.00  0.00    +0.006 C 
ATOM     11  C   UNL     1       6.249  -1.382  26.287  0.00  0.00    +0.007 C 
ENDBRANCH   9  10
ENDBRANCH   8   9
ENDBRANCH   3   8
ENDBRANCH   1   2
BRANCH   1  12
ATOM     12  C   UNL     1       7.390  -2.450  22.460  0.00  0.00    +0.261 C 
BRANCH  12  13
ATOM     13  C   UNL     1       6.930  -3.864  22.042  0.00  0.00    +0.166 C 
BRANCH  13  14
ATOM     14  O   UNL     1       5.552  -3.917  21.636  0.00  0.00    -0.387 OA
ATOM     15  H   UNL     1       5.514  -4.225  20.716  0.00  0.00    +0.210 HD
ENDBRANCH  13  14
BRANCH  13  16
ATOM     16  C   UNL     1       7.105  -4.831  23.234  0.00  0.00    +0.115 C 
BRANCH  16  17
ATOM     17  N   UNL     1       7.874  -4.195  24.311  0.00  0.00    -0.311 NA
ATOM     18  H   UNL     1       8.684  -3.733  23.884  0.00  0.00    +0.122 HD
BRANCH  17  20
ATOM     19  C   UNL     1       9.825  -5.051  25.471  0.00  0.00    +0.023 C 
ATOM     20  C   UNL     1       8.300  -5.119  25.365  0.00  0.00    +0.048 C 
ATOM     21  C   UNL     1       7.677  -4.762  26.716  0.00  0.00    +0.023 C 
ENDBRANCH  17  20
ENDBRANCH  16  17
ENDBRANCH  13  16
ENDBRANCH  12  13
ENDBRANCH   1  12
TORSDOF 10
ENDMDL
MODEL 7
REMARK VINA RESULT:      -5.0      2.740      4.235
REMARK  Name = 
REMARK  12 active torsions:
REMARK  status: ('A' for Active; 'I' for Inactive)
REMARK    1  A    between atoms: C_1  and  C_2
REMARK    2  A    between atoms: C_2  and  C_3
REMARK    3  A    between atoms: C_2  and  N_4
REMARK    4  A    between atoms: N_4  and  C_5
REMARK    5  A    between atoms: C_5  and  C_6
REMARK    6  A    between atoms: C_6  and  O_7
REMARK    7  A    between atoms: C_6  and  C_8
REMARK    8  A    between atoms: C_8  and  O_9
REMARK    9  A    between atoms: O_9  and  C_10
REMARK   10  A    between atoms: C_15  and  O_16
REMARK   11  A    between atoms: O_16  and  C_17
REMARK   12  A    between atoms: C_17  and  C_18
REMARK                            x       y       z     vdW  Elec       q    Type
REMARK                         _______ _______ _______ _____ _____    ______ ____
ROOT
ATOM      1  O   UNL     1       8.659  -2.217  24.287  0.00  0.00    -0.486 OA
ENDROOT
BRANCH   1   2
ATOM      2  C   UNL     1       8.969  -1.146  23.485  0.00  0.00    +0.162 A 
ATOM      3  C   UNL     1       9.180   0.098  24.096  0.00  0.00    +0.162 A 
ATOM      4  C   UNL     1       9.650   1.166  23.314  0.00  0.00    +0.049 A 
ATOM      5  C   UNL     1       9.807   1.027  21.934  0.00  0.00    +0.004 A 
ATOM      6  C   UNL     1       9.483  -0.175  21.319  0.00  0.00    +0.004 A 
ATOM      7  C   UNL     1       9.057  -1.254  22.090  0.00  0.00    +0.049 A 
BRANCH   3   8
ATOM      8  O   UNL     1       8.913   0.222  25.444  0.00  0.00    -0.484 OA
BRANCH   8   9
ATOM      9  C   UNL     1       7.792   1.055  25.757  0.00  0.00    +0.256 C 
BRANCH   9  10
ATOM     10  C   UNL     1       6.575   0.214  26.008  0.00  0.00    +0.006 C 
ATOM     11  C   UNL     1       5.323   0.694  25.980  0.00  0.00    +0.007 C 
ENDBRANCH   9  10
ENDBRANCH   8   9
ENDBRANCH   3   8
ENDBRANCH   1   2
BRANCH   1  12
ATOM     12  C   UNL     1       9.639  -3.264  24.352  0.00  0.00    +0.261 C 
BRANCH  12  13
ATOM     13  C   UNL     1       9.169  -4.497  25.153  0.00  0.00    +0.166 C 
BRANCH  13  14
ATOM     14  O   UNL     1      10.141  -5.555  25.192  0.00  0.00    -0.387 OA
ATOM     15  H   UNL     1      10.367  -5.732  26.119  0.00  0.00    +0.210 HD
ENDBRANCH  13  14
BRANCH  13  16
ATOM     16  C   UNL     1       7.884  -5.065  24.510  0.00  0.00    +0.115 C 
BRANCH  16  17
ATOM     17  N   UNL     1       7.769  -4.633  23.112  0.00  0.00    -0.311 NA
ATOM     18  H   UNL     1       8.073  -3.656  23.062  0.00  0.00    +0.122 HD
BRANCH  17  20
ATOM     19  C   UNL     1       6.002  -3.443  21.948  0.00  0.00    +0.023 C 
ATOM     20  C   UNL     1       6.424  -4.786  22.550  0.00  0.00    +0.048 C 
ATOM     21  C   UNL     1       6.382  -5.867  21.468  0.00  0.00    +0.023 C 
ENDBRANCH  17  20
ENDBRANCH  16  17
ENDBRANCH  13  16
ENDBRANCH  12  13
ENDBRANCH   1  12
TORSDOF 10
ENDMDL
MODEL 8
REMARK VINA RESULT:      -5.0      2.537      4.187
REMARK  Name = 
REMARK  12 active torsions:
REMARK  status: ('A' for Active; 'I' for Inactive)
REMARK    1  A    between atoms: C_1  and  C_2
REMARK    2  A    between atoms: C_2  and  C_3
REMARK    3  A    between atoms: C_2  and  N_4
REMARK    4  A    between atoms: N_4  and  C_5
REMARK    5  A    between atoms: C_5  and  C_6
REMARK    6  A    between atoms: C_6  and  O_7
REMARK    7  A    between atoms: C_6  and  C_8
REMARK    8  A    between atoms: C_8  and  O_9
REMARK    9  A    between atoms: O_9  and  C_10
REMARK   10  A    between atoms: C_15  and  O_16
REMARK   11  A    between atoms: O_16  and  C_17
REMARK   12  A    between atoms: C_17  and  C_18
REMARK                            x       y       z     vdW  Elec       q    Type
REMARK                         _______ _______ _______ _____ _____    ______ ____
ROOT
ATOM      1  O   UNL     1       8.885  -2.657  25.336  0.00  0.00    -0.486 OA
ENDROOT
BRANCH   1   2
ATOM      2  C   UNL     1       7.850  -1.757  25.269  0.00  0.00    +0.162 A 
ATOM      3  C   UNL     1       7.948  -0.703  24.351  0.00  0.00    +0.162 A 
ATOM      4  C   UNL     1       6.836   0.134  24.158  0.00  0.00    +0.049 A 
ATOM      5  C   UNL     1       5.687  -0.012  24.937  0.00  0.00    +0.004 A 
ATOM      6  C   UNL     1       5.643  -0.985  25.927  0.00  0.00    +0.004 A 
ATOM      7  C   UNL     1       6.722  -1.847  26.099  0.00  0.00    +0.049 A 
BRANCH   3   8
ATOM      8  O   UNL     1       9.139  -0.528  23.675  0.00  0.00    -0.484 OA
BRANCH   8   9
ATOM      9  C   UNL     1       9.091  -0.860  22.284  0.00  0.00    +0.256 C 
BRANCH   9  10
ATOM     10  C   UNL     1       9.363   0.357  21.451  0.00  0.00    +0.006 C 
ATOM     11  C   UNL     1       9.932   1.473  21.931  0.00  0.00    +0.007 C 
ENDBRANCH   9  10
ENDBRANCH   8   9
ENDBRANCH   3   8
ENDBRANCH   1   2
BRANCH   1  12
ATOM     12  C   UNL     1       8.740  -3.719  26.290  0.00  0.00    +0.261 C 
BRANCH  12  13
ATOM     13  C   UNL     1       8.874  -5.127  25.668  0.00  0.00    +0.166 C 
BRANCH  13  14
ATOM     14  O   UNL     1      10.152  -5.356  25.052  0.00  0.00    -0.387 OA
ATOM     15  H   UNL     1      10.263  -4.720  24.327  0.00  0.00    +0.210 HD
ENDBRANCH  13  14
BRANCH  13  16
ATOM     16  C   UNL     1       7.791  -5.310  24.581  0.00  0.00    +0.115 C 
BRANCH  16  17
ATOM     17  N   UNL     1       8.257  -4.791  23.290  0.00  0.00    -0.311 NA
ATOM     18  H   UNL     1       8.832  -3.963  23.476  0.00  0.00    +0.122 HD
BRANCH  17  20
ATOM     19  C   UNL     1       6.808  -5.752  21.597  0.00  0.00    +0.023 C 
ATOM     20  C   UNL     1       7.179  -4.472  22.351  0.00  0.00    +0.048 C 
ATOM     21  C   UNL     1       5.943  -3.927  23.070  0.00  0.00    +0.023 C 
ENDBRANCH  17  20
ENDBRANCH  16  17
ENDBRANCH  13  16
ENDBRANCH  12  13
ENDBRANCH   1  12
TORSDOF 10
ENDMDL
MODEL 9
REMARK VINA RESULT:      -4.8      1.897      4.250
REMARK  Name = 
REMARK  12 active torsions:
REMARK  status: ('A' for Active; 'I' for Inactive)
REMARK    1  A    between atoms: C_1  and  C_2
REMARK    2  A    between atoms: C_2  and  C_3
REMARK    3  A    between atoms: C_2  and  N_4
REMARK    4  A    between atoms: N_4  and  C_5
REMARK    5  A    between atoms: C_5  and  C_6
REMARK    6  A    between atoms: C_6  and  O_7
REMARK    7  A    between atoms: C_6  and  C_8
REMARK    8  A    between atoms: C_8  and  O_9
REMARK    9  A    between atoms: O_9  and  C_10
REMARK   10  A    between atoms: C_15  and  O_16
REMARK   11  A    between atoms: O_16  and  C_17
REMARK   12  A    between atoms: C_17  and  C_18
REMARK                            x       y       z     vdW  Elec       q    Type
REMARK                         _______ _______ _______ _____ _____    ______ ____
ROOT
ATOM      1  O   UNL     1       7.792  -4.339  22.594  0.00  0.00    -0.486 OA
ENDROOT
BRANCH   1   2
ATOM      2  C   UNL     1       8.153  -4.131  23.903  0.00  0.00    +0.162 A 
ATOM      3  C   UNL     1       8.173  -2.814  24.381  0.00  0.00    +0.162 A 
ATOM      4  C   UNL     1       8.386  -2.595  25.753  0.00  0.00    +0.049 A 
ATOM      5  C   UNL     1       8.676  -3.657  26.611  0.00  0.00    +0.004 A 
ATOM      6  C   UNL     1       8.771  -4.947  26.105  0.00  0.00    +0.004 A 
ATOM      7  C   UNL     1       8.520  -5.181  24.756  0.00  0.00    +0.049 A 
BRANCH   3   8
ATOM      8  O   UNL     1       7.986  -1.784  23.482  0.00  0.00    -0.484 OA
BRANCH   8   9
ATOM      9  C   UNL     1       9.182  -1.096  23.103  0.00  0.00    +0.256 C 
BRANCH   9  10
ATOM     10  C   UNL     1       8.870  -0.033  22.092  0.00  0.00    +0.006 C 
ATOM     11  C   UNL     1       9.712   0.964  21.779  0.00  0.00    +0.007 C 
ENDBRANCH   9  10
ENDBRANCH   8   9
ENDBRANCH   3   8
ENDBRANCH   1   2
BRANCH   1  12
ATOM     12  C   UNL     1       7.328  -5.657  22.268  0.00  0.00    +0.261 C 
BRANCH  12  13
ATOM     13  C   UNL     1       5.981  -5.665  21.512  0.00  0.00    +0.166 C 
BRANCH  13  14
ATOM     14  O   UNL     1       5.770  -4.488  20.714  0.00  0.00    -0.387 OA
ATOM     15  H   UNL     1       5.348  -4.753  19.881  0.00  0.00    +0.210 HD
ENDBRANCH  13  14
BRANCH  13  16
ATOM     16  C   UNL     1       4.824  -5.753  22.532  0.00  0.00    +0.115 C 
BRANCH  16  17
ATOM     17  N   UNL     1       5.300  -6.286  23.814  0.00  0.00    -0.311 NA
ATOM     18  H   UNL     1       5.191  -7.305  23.787  0.00  0.00    +0.122 HD
BRANCH  17  20
ATOM     19  C   UNL     1       5.263  -6.314  26.240  0.00  0.00    +0.023 C 
ATOM     20  C   UNL     1       4.620  -5.723  24.983  0.00  0.00    +0.048 C 
ATOM     21  C   UNL     1       4.730  -4.197  25.022  0.00  0.00    +0.023 C 
ENDBRANCH  17  20
ENDBRANCH  16  17
ENDBRANCH  13  16
ENDBRANCH  12  13
ENDBRANCH   1  12
TORSDOF 10
ENDMDL
