MODEL 1
REMARK VINA RESULT:      -6.2      0.000      0.000
REMARK  Name = 
REMARK  3 active torsions:
REMARK  status: ('A' for Active; 'I' for Inactive)
REMARK    1  A    between atoms: C_2  and  C_3
REMARK    2  A    between atoms: C_3  and  C_4
REMARK    3  A    between atoms: N_6  and  O_7
REMARK                            x       y       z     vdW  Elec       q    Type
REMARK                         _______ _______ _______ _____ _____    ______ ____
ROOT
ATOM      1  C   UNL     1       8.095  -3.512  23.972  0.00  0.00    +0.146 C 
ATOM      2  C   UNL     1       7.765  -3.308  22.498  0.00  0.00    +0.231 C 
ATOM      3  O   UNL     1       7.160  -4.164  21.844  0.00  0.00    -0.274 OA
ATOM      4  N   UNL     1       8.036  -2.107  21.908  0.00  0.00    -0.284 N 
ATOM      5  H   UNL     1       7.661  -2.002  20.973  0.00  0.00    +0.155 HD
ATOM      6  C   UNL     1       8.850  -1.089  22.423  0.00  0.00    +0.047 A 
ATOM      7  C   UNL     1       9.623  -1.258  23.578  0.00  0.00    +0.030 A 
ATOM      8  C   UNL     1      10.454  -0.216  24.007  0.00  0.00    +0.016 A 
ATOM      9  C   UNL     1      10.514   0.983  23.295  0.00  0.00    +0.001 A 
ATOM     10  C   UNL     1       9.749   1.144  22.142  0.00  0.00    +0.002 A 
ATOM     11  C   UNL     1       8.922   0.110  21.704  0.00  0.00    +0.024 A 
ATOM     12  S   UNL     1       9.688  -2.793  24.469  0.00  0.00    -0.110 S 
ENDROOT
BRANCH   1  13
ATOM     13  C   UNL     1       8.001  -4.988  24.377  0.00  0.00    +0.121 C 
BRANCH  13  14
ATOM     14  C   UNL     1       7.344  -5.223  25.722  0.00  0.00    +0.237 C 
ATOM     15  N   UNL     1       8.140  -5.796  26.679  0.00  0.00    -0.197 N 
ATOM     16  H   UNL     1       9.025  -6.262  26.477  0.00  0.00    +0.182 HD
ATOM     17  O   UNL     1       6.171  -4.929  25.949  0.00  0.00    -0.274 OA
BRANCH  15  18
ATOM     18  O   UNL     1       7.534  -6.057  27.927  0.00  0.00    -0.295 OA
ATOM     19  H   UNL     1       8.233  -5.780  28.558  0.00  0.00    +0.241 HD
ENDBRANCH  15  18
ENDBRANCH  13  14
ENDBRANCH   1  13
TORSDOF 3
ENDMDL
MODEL 2
REMARK VINA RESULT:      -6.2      2.536      3.238
REMARK  Name = 
REMARK  3 active torsions:
REMARK  status: ('A' for Active; 'I' for Inactive)
REMARK    1  A    between atoms: C_2  and  C_3
REMARK    2  A    between atoms: C_3  and  C_4
REMARK    3  A    between atoms: N_6  and  O_7
REMARK                            x       y       z     vdW  Elec       q    Type
REMARK                         _______ _______ _______ _____ _____    ______ ____
ROOT
ATOM      1  C   UNL     1       8.711  -1.884  25.336  0.00  0.00    +0.146 C 
ATOM      2  C   UNL     1       8.994  -0.686  26.234  0.00  0.00    +0.231 C 
ATOM      3  O   UNL     1       8.862  -0.749  27.462  0.00  0.00    -0.274 OA
ATOM      4  N   UNL     1       9.518   0.451  25.692  0.00  0.00    -0.284 N 
ATOM      5  H   UNL     1       9.810   1.147  26.369  0.00  0.00    +0.155 HD
ATOM      6  C   UNL     1       9.586   0.773  24.330  0.00  0.00    +0.047 A 
ATOM      7  C   UNL     1       8.965  -0.004  23.345  0.00  0.00    +0.030 A 
ATOM      8  C   UNL     1       9.029   0.405  22.007  0.00  0.00    +0.016 A 
ATOM      9  C   UNL     1       9.705   1.574  21.653  0.00  0.00    +0.001 A 
ATOM     10  C   UNL     1      10.314   2.348  22.637  0.00  0.00    +0.002 A 
ATOM     11  C   UNL     1      10.252   1.951  23.974  0.00  0.00    +0.024 A 
ATOM     12  S   UNL     1       7.991  -1.437  23.730  0.00  0.00    -0.110 S 
ENDROOT
BRANCH   1  13
ATOM     13  C   UNL     1       7.863  -2.943  26.051  0.00  0.00    +0.121 C 
BRANCH  13  14
ATOM     14  C   UNL     1       8.550  -4.284  26.214  0.00  0.00    +0.237 C 
ATOM     15  N   UNL     1       9.504  -4.580  25.277  0.00  0.00    -0.197 N 
ATOM     16  H   UNL     1       9.606  -4.081  24.392  0.00  0.00    +0.182 HD
ATOM     17  O   UNL     1       8.271  -5.067  27.121  0.00  0.00    -0.274 OA
BRANCH  15  18
ATOM     18  O   UNL     1      10.128  -5.841  25.391  0.00  0.00    -0.295 OA
ATOM     19  H   UNL     1      11.063  -5.628  25.182  0.00  0.00    +0.241 HD
ENDBRANCH  15  18
ENDBRANCH  13  14
ENDBRANCH   1  13
TORSDOF 3
ENDMDL
MODEL 3
REMARK VINA RESULT:      -6.2      1.845      2.050
REMARK  Name = 
REMARK  3 active torsions:
REMARK  status: ('A' for Active; 'I' for Inactive)
REMARK    1  A    between atoms: C_2  and  C_3
REMARK    2  A    between atoms: C_3  and  C_4
REMARK    3  A    between atoms: N_6  and  O_7
REMARK                            x       y       z     vdW  Elec       q    Type
REMARK                         _______ _______ _______ _____ _____    ______ ____
ROOT
ATOM      1  C   UNL     1       7.856  -2.715  23.528  0.00  0.00    +0.146 C 
ATOM      2  C   UNL     1       6.503  -2.057  23.284  0.00  0.00    +0.231 C 
ATOM      3  O   UNL     1       5.445  -2.680  23.420  0.00  0.00    -0.274 OA
ATOM      4  N   UNL     1       6.444  -0.718  23.025  0.00  0.00    -0.284 N 
ATOM      5  H   UNL     1       5.507  -0.331  23.016  0.00  0.00    +0.155 HD
ATOM      6  C   UNL     1       7.517   0.114  22.676  0.00  0.00    +0.047 A 
ATOM      7  C   UNL     1       8.795  -0.387  22.402  0.00  0.00    +0.030 A 
ATOM      8  C   UNL     1       9.808   0.496  22.008  0.00  0.00    +0.016 A 
ATOM      9  C   UNL     1       9.552   1.863  21.890  0.00  0.00    +0.001 A 
ATOM     10  C   UNL     1       8.277   2.356  22.157  0.00  0.00    +0.002 A 
ATOM     11  C   UNL     1       7.260   1.483  22.545  0.00  0.00    +0.024 A 
ATOM     12  S   UNL     1       9.165  -2.124  22.416  0.00  0.00    -0.110 S 
ENDROOT
BRANCH   1  13
ATOM     13  C   UNL     1       7.757  -4.244  23.506  0.00  0.00    +0.121 C 
BRANCH  13  14
ATOM     14  C   UNL     1       8.437  -4.929  24.675  0.00  0.00    +0.237 C 
ATOM     15  N   UNL     1       7.621  -5.261  25.724  0.00  0.00    -0.197 N 
ATOM     16  H   UNL     1       6.681  -4.883  25.855  0.00  0.00    +0.182 HD
ATOM     17  O   UNL     1       9.643  -5.169  24.694  0.00  0.00    -0.274 OA
BRANCH  15  18
ATOM     18  O   UNL     1       8.243  -5.865  26.838  0.00  0.00    -0.295 OA
ATOM     19  H   UNL     1       8.465  -6.757  26.491  0.00  0.00    +0.241 HD
ENDBRANCH  15  18
ENDBRANCH  13  14
ENDBRANCH   1  13
TORSDOF 3
ENDMDL
MODEL 4
REMARK VINA RESULT:      -5.9      3.165      6.286
REMARK  Name = 
REMARK  3 active torsions:
REMARK  status: ('A' for Active; 'I' for Inactive)
REMARK    1  A    between atoms: C_2  and  C_3
REMARK    2  A    between atoms: C_3  and  C_4
REMARK    3  A    between atoms: N_6  and  O_7
REMARK                            x       y       z     vdW  Elec       q    Type
REMARK                         _______ _______ _______ _____ _____    ______ ____
ROOT
ATOM      1  C   UNL     1       8.288  -2.148  22.927  0.00  0.00    +0.146 C 
ATOM      2  C   UNL     1       9.064  -3.107  23.822  0.00  0.00    +0.231 C 
ATOM      3  O   UNL     1      10.298  -3.086  23.880  0.00  0.00    -0.274 OA
ATOM      4  N   UNL     1       8.385  -3.931  24.672  0.00  0.00    -0.284 N 
ATOM      5  H   UNL     1       8.969  -4.432  25.331  0.00  0.00    +0.155 HD
ATOM      6  C   UNL     1       7.013  -4.216  24.641  0.00  0.00    +0.047 A 
ATOM      7  C   UNL     1       6.180  -3.782  23.603  0.00  0.00    +0.030 A 
ATOM      8  C   UNL     1       4.828  -4.147  23.609  0.00  0.00    +0.016 A 
ATOM      9  C   UNL     1       4.310  -4.934  24.638  0.00  0.00    +0.001 A 
ATOM     10  C   UNL     1       5.144  -5.370  25.665  0.00  0.00    +0.002 A 
ATOM     11  C   UNL     1       6.493  -5.016  25.666  0.00  0.00    +0.024 A 
ATOM     12  S   UNL     1       6.791  -2.878  22.202  0.00  0.00    -0.110 S 
ENDROOT
BRANCH   1  13
ATOM     13  C   UNL     1       9.183  -1.527  21.848  0.00  0.00    +0.121 C 
BRANCH  13  14
ATOM     14  C   UNL     1       9.640  -0.115  22.155  0.00  0.00    +0.237 C 
ATOM     15  N   UNL     1       9.299   0.833  21.228  0.00  0.00    -0.197 N 
ATOM     16  H   UNL     1       8.979   0.616  20.283  0.00  0.00    +0.182 HD
ATOM     17  O   UNL     1      10.282   0.170  23.166  0.00  0.00    -0.274 OA
BRANCH  15  18
ATOM     18  O   UNL     1       9.749   2.148  21.479  0.00  0.00    -0.295 OA
ATOM     19  H   UNL     1       9.410   2.313  22.386  0.00  0.00    +0.241 HD
ENDBRANCH  15  18
ENDBRANCH  13  14
ENDBRANCH   1  13
TORSDOF 3
ENDMDL
MODEL 5
REMARK VINA RESULT:      -5.8      2.027      2.212
REMARK  Name = 
REMARK  3 active torsions:
REMARK  status: ('A' for Active; 'I' for Inactive)
REMARK    1  A    between atoms: C_2  and  C_3
REMARK    2  A    between atoms: C_3  and  C_4
REMARK    3  A    between atoms: N_6  and  O_7
REMARK                            x       y       z     vdW  Elec       q    Type
REMARK                         _______ _______ _______ _____ _____    ______ ____
ROOT
ATOM      1  C   UNL     1       6.699  -3.348  24.356  0.00  0.00    +0.146 C 
ATOM      2  C   UNL     1       5.688  -2.208  24.306  0.00  0.00    +0.231 C 
ATOM      3  O   UNL     1       4.564  -2.315  24.809  0.00  0.00    -0.274 OA
ATOM      4  N   UNL     1       6.064  -0.997  23.801  0.00  0.00    -0.284 N 
ATOM      5  H   UNL     1       5.386  -0.256  23.932  0.00  0.00    +0.155 HD
ATOM      6  C   UNL     1       7.216  -0.727  23.050  0.00  0.00    +0.047 A 
ATOM      7  C   UNL     1       8.067  -1.741  22.592  0.00  0.00    +0.030 A 
ATOM      8  C   UNL     1       9.173  -1.403  21.802  0.00  0.00    +0.016 A 
ATOM      9  C   UNL     1       9.430  -0.072  21.471  0.00  0.00    +0.001 A 
ATOM     10  C   UNL     1       8.576   0.932  21.922  0.00  0.00    +0.002 A 
ATOM     11  C   UNL     1       7.469   0.606  22.706  0.00  0.00    +0.024 A 
ATOM     12  S   UNL     1       7.741  -3.463  22.873  0.00  0.00    -0.110 S 
ENDROOT
BRANCH   1  13
ATOM     13  C   UNL     1       6.028  -4.690  24.670  0.00  0.00    +0.121 C 
BRANCH  13  14
ATOM     14  C   UNL     1       6.240  -5.174  26.091  0.00  0.00    +0.237 C 
ATOM     15  N   UNL     1       7.511  -5.584  26.394  0.00  0.00    -0.197 N 
ATOM     16  H   UNL     1       8.224  -5.792  25.694  0.00  0.00    +0.182 HD
ATOM     17  O   UNL     1       5.334  -5.208  26.923  0.00  0.00    -0.274 OA
BRANCH  15  18
ATOM     18  O   UNL     1       7.718  -6.074  27.702  0.00  0.00    -0.295 OA
ATOM     19  H   UNL     1       7.593  -5.267  28.247  0.00  0.00    +0.241 HD
ENDBRANCH  15  18
ENDBRANCH  13  14
ENDBRANCH   1  13
TORSDOF 3
ENDMDL
MODEL 6
REMARK VINA RESULT:      -5.8      2.386      2.980
REMARK  Name = 
REMARK  3 active torsions:
REMARK  status: ('A' for Active; 'I' for Inactive)
REMARK    1  A    between atoms: C_2  and  C_3
REMARK    2  A    between atoms: C_3  and  C_4
REMARK    3  A    between atoms: N_6  and  O_7
REMARK                            x       y       z     vdW  Elec       q    Type
REMARK                         _______ _______ _______ _____ _____    ______ ____
ROOT
ATOM      1  C   UNL     1       7.752  -2.956  23.392  0.00  0.00    +0.146 C 
ATOM      2  C   UNL     1       9.226  -2.768  23.730  0.00  0.00    +0.231 C 
ATOM      3  O   UNL     1       9.884  -3.656  24.284  0.00  0.00    -0.274 OA
ATOM      4  N   UNL     1       9.874  -1.643  23.309  0.00  0.00    -0.284 N 
ATOM      5  H   UNL     1      10.878  -1.656  23.447  0.00  0.00    +0.155 HD
ATOM      6  C   UNL     1       9.280  -0.471  22.821  0.00  0.00    +0.047 A 
ATOM      7  C   UNL     1       7.896  -0.264  22.850  0.00  0.00    +0.030 A 
ATOM      8  C   UNL     1       7.374   0.953  22.393  0.00  0.00    +0.016 A 
ATOM      9  C   UNL     1       8.221   1.952  21.911  0.00  0.00    +0.001 A 
ATOM     10  C   UNL     1       9.598   1.745  21.891  0.00  0.00    +0.002 A 
ATOM     11  C   UNL     1      10.128   0.538  22.349  0.00  0.00    +0.024 A 
ATOM     12  S   UNL     1       6.767  -1.439  23.555  0.00  0.00    -0.110 S 
ENDROOT
BRANCH   1  13
ATOM     13  C   UNL     1       7.130  -4.111  24.187  0.00  0.00    +0.121 C 
BRANCH  13  14
ATOM     14  C   UNL     1       6.150  -4.953  23.395  0.00  0.00    +0.237 C 
ATOM     15  N   UNL     1       6.704  -5.788  22.461  0.00  0.00    -0.197 N 
ATOM     16  H   UNL     1       7.664  -5.706  22.124  0.00  0.00    +0.182 HD
ATOM     17  O   UNL     1       4.933  -4.894  23.568  0.00  0.00    -0.274 OA
BRANCH  15  18
ATOM     18  O   UNL     1       5.803  -6.553  21.688  0.00  0.00    -0.295 OA
ATOM     19  H   UNL     1       5.102  -6.767  22.341  0.00  0.00    +0.241 HD
ENDBRANCH  15  18
ENDBRANCH  13  14
ENDBRANCH   1  13
TORSDOF 3
ENDMDL
MODEL 7
REMARK VINA RESULT:      -5.7      3.420      5.878
REMARK  Name = 
REMARK  3 active torsions:
REMARK  status: ('A' for Active; 'I' for Inactive)
REMARK    1  A    between atoms: C_2  and  C_3
REMARK    2  A    between atoms: C_3  and  C_4
REMARK    3  A    between atoms: N_6  and  O_7
REMARK                            x       y       z     vdW  Elec       q    Type
REMARK                         _______ _______ _______ _____ _____    ______ ____
ROOT
ATOM      1  C   UNL     1       9.546  -1.041  24.438  0.00  0.00    +0.146 C 
ATOM      2  C   UNL     1       9.643  -1.910  23.190  0.00  0.00    +0.231 C 
ATOM      3  O   UNL     1      10.651  -1.910  22.476  0.00  0.00    -0.274 OA
ATOM      4  N   UNL     1       8.647  -2.801  22.912  0.00  0.00    -0.284 N 
ATOM      5  H   UNL     1       8.849  -3.437  22.150  0.00  0.00    +0.155 HD
ATOM      6  C   UNL     1       7.372  -2.837  23.495  0.00  0.00    +0.047 A 
ATOM      7  C   UNL     1       6.913  -1.833  24.356  0.00  0.00    +0.030 A 
ATOM      8  C   UNL     1       5.609  -1.907  24.861  0.00  0.00    +0.016 A 
ATOM      9  C   UNL     1       4.772  -2.968  24.515  0.00  0.00    +0.001 A 
ATOM     10  C   UNL     1       5.230  -3.961  23.652  0.00  0.00    +0.002 A 
ATOM     11  C   UNL     1       6.526  -3.894  23.139  0.00  0.00    +0.024 A 
ATOM     12  S   UNL     1       7.877  -0.395  24.749  0.00  0.00    -0.110 S 
ENDROOT
BRANCH   1  13
ATOM     13  C   UNL     1      10.585   0.086  24.429  0.00  0.00    +0.121 C 
BRANCH  13  14
ATOM     14  C   UNL     1      10.177   1.303  23.622  0.00  0.00    +0.237 C 
ATOM     15  N   UNL     1      10.166   1.136  22.263  0.00  0.00    -0.197 N 
ATOM     16  H   UNL     1      10.618   0.358  21.781  0.00  0.00    +0.182 HD
ATOM     17  O   UNL     1       9.879   2.376  24.144  0.00  0.00    -0.274 OA
BRANCH  15  18
ATOM     18  O   UNL     1       9.824   2.270  21.493  0.00  0.00    -0.295 OA
ATOM     19  H   UNL     1      10.069   3.008  22.093  0.00  0.00    +0.241 HD
ENDBRANCH  15  18
ENDBRANCH  13  14
ENDBRANCH   1  13
TORSDOF 3
ENDMDL
MODEL 8
REMARK VINA RESULT:      -5.6      2.013      2.351
REMARK  Name = 
REMARK  3 active torsions:
REMARK  status: ('A' for Active; 'I' for Inactive)
REMARK    1  A    between atoms: C_2  and  C_3
REMARK    2  A    between atoms: C_3  and  C_4
REMARK    3  A    between atoms: N_6  and  O_7
REMARK                            x       y       z     vdW  Elec       q    Type
REMARK                         _______ _______ _______ _____ _____    ______ ____
ROOT
ATOM      1  C   UNL     1       8.283  -3.220  25.562  0.00  0.00    +0.146 C 
ATOM      2  C   UNL     1       9.468  -3.552  24.664  0.00  0.00    +0.231 C 
ATOM      3  O   UNL     1       9.906  -4.703  24.567  0.00  0.00    -0.274 OA
ATOM      4  N   UNL     1       9.990  -2.585  23.855  0.00  0.00    -0.284 N 
ATOM      5  H   UNL     1      10.678  -2.916  23.189  0.00  0.00    +0.155 HD
ATOM      6  C   UNL     1       9.746  -1.207  23.936  0.00  0.00    +0.047 A 
ATOM      7  C   UNL     1       9.026  -0.634  24.991  0.00  0.00    +0.030 A 
ATOM      8  C   UNL     1       8.864   0.757  25.036  0.00  0.00    +0.016 A 
ATOM      9  C   UNL     1       9.413   1.568  24.042  0.00  0.00    +0.001 A 
ATOM     10  C   UNL     1      10.135   0.994  22.998  0.00  0.00    +0.002 A 
ATOM     11  C   UNL     1      10.306  -0.390  22.947  0.00  0.00    +0.024 A 
ATOM     12  S   UNL     1       8.400  -1.588  26.351  0.00  0.00    -0.110 S 
ENDROOT
BRANCH   1  13
ATOM     13  C   UNL     1       8.028  -4.321  26.598  0.00  0.00    +0.121 C 
BRANCH  13  14
ATOM     14  C   UNL     1       6.903  -5.269  26.235  0.00  0.00    +0.237 C 
ATOM     15  N   UNL     1       6.259  -5.001  25.056  0.00  0.00    -0.197 N 
ATOM     16  H   UNL     1       6.334  -4.114  24.556  0.00  0.00    +0.182 HD
ATOM     17  O   UNL     1       6.576  -6.216  26.949  0.00  0.00    -0.274 OA
BRANCH  15  18
ATOM     18  O   UNL     1       5.183  -5.851  24.720  0.00  0.00    -0.295 OA
ATOM     19  H   UNL     1       4.407  -5.330  25.021  0.00  0.00    +0.241 HD
ENDBRANCH  15  18
ENDBRANCH  13  14
ENDBRANCH   1  13
TORSDOF 3
ENDMDL
MODEL 9
REMARK VINA RESULT:      -5.5      3.342      6.239
REMARK  Name = 
REMARK  3 active torsions:
REMARK  status: ('A' for Active; 'I' for Inactive)
REMARK    1  A    between atoms: C_2  and  C_3
REMARK    2  A    between atoms: C_3  and  C_4
REMARK    3  A    between atoms: N_6  and  O_7
REMARK                            x       y       z     vdW  Elec       q    Type
REMARK                         _______ _______ _______ _____ _____    ______ ____
ROOT
ATOM      1  C   UNL     1       8.657  -1.113  22.972  0.00  0.00    +0.146 C 
ATOM      2  C   UNL     1       9.870  -2.022  23.129  0.00  0.00    +0.231 C 
ATOM      3  O   UNL     1      10.900  -1.851  22.467  0.00  0.00    -0.274 OA
ATOM      4  N   UNL     1       9.873  -2.977  24.104  0.00  0.00    -0.284 N 
ATOM      5  H   UNL     1      10.763  -3.442  24.238  0.00  0.00    +0.155 HD
ATOM      6  C   UNL     1       8.765  -3.428  24.834  0.00  0.00    +0.047 A 
ATOM      7  C   UNL     1       7.456  -3.036  24.529  0.00  0.00    +0.030 A 
ATOM      8  C   UNL     1       6.391  -3.567  25.267  0.00  0.00    +0.016 A 
ATOM      9  C   UNL     1       6.626  -4.476  26.299  0.00  0.00    +0.001 A 
ATOM     10  C   UNL     1       7.929  -4.869  26.595  0.00  0.00    +0.002 A 
ATOM     11  C   UNL     1       8.997  -4.350  25.862  0.00  0.00    +0.024 A 
ATOM     12  S   UNL     1       7.070  -1.976  23.158  0.00  0.00    -0.110 S 
ENDROOT
BRANCH   1  13
ATOM     13  C   UNL     1       8.708  -0.318  21.662  0.00  0.00    +0.121 C 
BRANCH  13  14
ATOM     14  C   UNL     1       9.048   1.148  21.836  0.00  0.00    +0.237 C 
ATOM     15  N   UNL     1       7.980   2.004  21.873  0.00  0.00    -0.197 N 
ATOM     16  H   UNL     1       7.038   1.752  21.571  0.00  0.00    +0.182 HD
ATOM     17  O   UNL     1      10.206   1.554  21.932  0.00  0.00    -0.274 OA
BRANCH  15  18
ATOM     18  O   UNL     1       8.280   3.379  21.997  0.00  0.00    -0.295 OA
ATOM     19  H   UNL     1       8.709   3.418  22.880  0.00  0.00    +0.241 HD
ENDBRANCH  15  18
ENDBRANCH  13  14
ENDBRANCH   1  13
TORSDOF 3
ENDMDL
