MODEL 1
REMARK VINA RESULT:      -6.4      0.000      0.000
REMARK  Name = 
REMARK  9 active torsions:
REMARK  status: ('A' for Active; 'I' for Inactive)
REMARK    1  A    between atoms: C_1  and  C_2
REMARK    2  A    between atoms: C_2  and  C_3
REMARK    3  A    between atoms: C_3  and  C_4
REMARK    4  A    between atoms: C_3  and  C_14
REMARK    5  A    between atoms: C_4  and  C_5
REMARK    6  A    between atoms: C_4  and  C_7
REMARK    7  A    between atoms: C_5  and  C_6
REMARK    8  A    between atoms: C_10  and  O_11
REMARK    9  A    between atoms: C_17  and  O_18
REMARK                            x       y       z     vdW  Elec       q    Type
REMARK                         _______ _______ _______ _____ _____    ______ ____
ROOT
ATOM      1  C   UNL     1       8.548  -2.230  24.626  0.00  0.00    +0.026 C 
ENDROOT
BRANCH   1   2
ATOM      2  C   UNL     1       9.126  -1.088  23.757  0.00  0.00    -0.043 A 
ATOM      3  C   UNL     1       9.126  -1.125  22.352  0.00  0.00    +0.007 A 
ATOM      4  C   UNL     1       9.538  -0.014  21.594  0.00  0.00    +0.045 A 
ATOM      5  C   UNL     1       9.989   1.131  22.233  0.00  0.00    +0.117 A 
ATOM      6  C   UNL     1      10.120   1.154  23.612  0.00  0.00    +0.045 A 
ATOM      7  C   UNL     1       9.716   0.049  24.355  0.00  0.00    +0.007 A 
BRANCH   5   8
ATOM      8  O   UNL     1      10.288   2.225  21.474  0.00  0.00    -0.507 OA
ATOM      9  H   UNL     1      11.033   1.989  20.893  0.00  0.00    +0.292 HD
ENDBRANCH   5   8
ENDBRANCH   1   2
BRANCH   1  11
ATOM     10  C   UNL     1       6.152  -1.181  24.323  0.00  0.00    +0.004 C 
ATOM     11  C   UNL     1       7.154  -1.878  25.230  0.00  0.00    +0.005 C 
ENDBRANCH   1  11
BRANCH   1  12
ATOM     12  C   UNL     1       8.674  -3.746  24.108  0.00  0.00    +0.026 C 
BRANCH  12  13
ATOM     13  C   UNL     1       7.436  -4.502  23.584  0.00  0.00    -0.043 A 
ATOM     14  C   UNL     1       6.587  -5.211  24.459  0.00  0.00    +0.007 A 
ATOM     15  C   UNL     1       5.405  -5.817  24.018  0.00  0.00    +0.045 A 
ATOM     16  C   UNL     1       5.075  -5.767  22.673  0.00  0.00    +0.117 A 
ATOM     17  C   UNL     1       5.946  -5.191  21.765  0.00  0.00    +0.045 A 
ATOM     18  C   UNL     1       7.119  -4.580  22.219  0.00  0.00    +0.007 A 
BRANCH  16  19
ATOM     19  O   UNL     1       3.877  -6.286  22.285  0.00  0.00    -0.507 OA
ATOM     20  H   UNL     1       3.188  -5.638  22.511  0.00  0.00    +0.292 HD
ENDBRANCH  16  19
ENDBRANCH  12  13
BRANCH  12  21
ATOM     21  C   UNL     1       9.558  -4.606  25.092  0.00  0.00    +0.005 C 
ATOM     22  C   UNL     1       9.263  -4.557  26.594  0.00  0.00    +0.004 C 
ENDBRANCH  12  21
ENDBRANCH   1  12
TORSDOF 7
ENDMDL
MODEL 2
REMARK VINA RESULT:      -6.3      1.980      6.480
REMARK  Name = 
REMARK  9 active torsions:
REMARK  status: ('A' for Active; 'I' for Inactive)
REMARK    1  A    between atoms: C_1  and  C_2
REMARK    2  A    between atoms: C_2  and  C_3
REMARK    3  A    between atoms: C_3  and  C_4
REMARK    4  A    between atoms: C_3  and  C_14
REMARK    5  A    between atoms: C_4  and  C_5
REMARK    6  A    between atoms: C_4  and  C_7
REMARK    7  A    between atoms: C_5  and  C_6
REMARK    8  A    between atoms: C_10  and  O_11
REMARK    9  A    between atoms: C_17  and  O_18
REMARK                            x       y       z     vdW  Elec       q    Type
REMARK                         _______ _______ _______ _____ _____    ______ ____
ROOT
ATOM      1  C   UNL     1       6.992  -3.377  23.042  0.00  0.00    +0.026 C 
ENDROOT
BRANCH   1   2
ATOM      2  C   UNL     1       7.166  -4.220  24.328  0.00  0.00    -0.043 A 
ATOM      3  C   UNL     1       8.390  -4.326  25.010  0.00  0.00    +0.007 A 
ATOM      4  C   UNL     1       8.480  -4.990  26.247  0.00  0.00    +0.045 A 
ATOM      5  C   UNL     1       7.355  -5.587  26.795  0.00  0.00    +0.117 A 
ATOM      6  C   UNL     1       6.163  -5.609  26.089  0.00  0.00    +0.045 A 
ATOM      7  C   UNL     1       6.083  -4.955  24.864  0.00  0.00    +0.007 A 
BRANCH   5   8
ATOM      8  O   UNL     1       7.452  -6.138  28.040  0.00  0.00    -0.507 OA
ATOM      9  H   UNL     1       7.551  -7.101  27.932  0.00  0.00    +0.292 HD
ENDBRANCH   5   8
ENDBRANCH   1   2
BRANCH   1  11
ATOM     10  C   UNL     1       6.776  -5.429  21.407  0.00  0.00    +0.004 C 
ATOM     11  C   UNL     1       6.192  -4.128  21.935  0.00  0.00    +0.005 C 
ENDBRANCH   1  11
BRANCH   1  12
ATOM     12  C   UNL     1       6.625  -1.818  23.174  0.00  0.00    +0.026 C 
BRANCH  12  13
ATOM     13  C   UNL     1       7.591  -0.737  22.649  0.00  0.00    -0.043 A 
ATOM     14  C   UNL     1       7.189   0.611  22.538  0.00  0.00    +0.007 A 
ATOM     15  C   UNL     1       8.080   1.623  22.160  0.00  0.00    +0.045 A 
ATOM     16  C   UNL     1       9.387   1.293  21.837  0.00  0.00    +0.117 A 
ATOM     17  C   UNL     1       9.783  -0.033  21.812  0.00  0.00    +0.045 A 
ATOM     18  C   UNL     1       8.887  -1.034  22.200  0.00  0.00    +0.007 A 
BRANCH  16  19
ATOM     19  O   UNL     1      10.256   2.305  21.561  0.00  0.00    -0.507 OA
ATOM     20  H   UNL     1       9.766   3.142  21.632  0.00  0.00    +0.292 HD
ENDBRANCH  16  19
ENDBRANCH  12  13
BRANCH  12  21
ATOM     21  C   UNL     1       6.046  -1.494  24.606  0.00  0.00    +0.005 C 
ATOM     22  C   UNL     1       6.986  -0.941  25.681  0.00  0.00    +0.004 C 
ENDBRANCH  12  21
ENDBRANCH   1  12
TORSDOF 7
ENDMDL
MODEL 3
REMARK VINA RESULT:      -6.1      1.173      2.639
REMARK  Name = 
REMARK  9 active torsions:
REMARK  status: ('A' for Active; 'I' for Inactive)
REMARK    1  A    between atoms: C_1  and  C_2
REMARK    2  A    between atoms: C_2  and  C_3
REMARK    3  A    between atoms: C_3  and  C_4
REMARK    4  A    between atoms: C_3  and  C_14
REMARK    5  A    between atoms: C_4  and  C_5
REMARK    6  A    between atoms: C_4  and  C_7
REMARK    7  A    between atoms: C_5  and  C_6
REMARK    8  A    between atoms: C_10  and  O_11
REMARK    9  A    between atoms: C_17  and  O_18
REMARK                            x       y       z     vdW  Elec       q    Type
REMARK                         _______ _______ _______ _____ _____    ______ ____
ROOT
ATOM      1  C   UNL     1       8.421  -2.984  23.903  0.00  0.00    +0.026 C 
ENDROOT
BRANCH   1   2
ATOM      2  C   UNL     1       9.001  -1.701  23.262  0.00  0.00    -0.043 A 
ATOM      3  C   UNL     1       8.978  -1.465  21.877  0.00  0.00    +0.007 A 
ATOM      4  C   UNL     1       9.392  -0.232  21.341  0.00  0.00    +0.045 A 
ATOM      5  C   UNL     1       9.868   0.764  22.181  0.00  0.00    +0.117 A 
ATOM      6  C   UNL     1      10.021   0.517  23.536  0.00  0.00    +0.045 A 
ATOM      7  C   UNL     1       9.615  -0.707  24.058  0.00  0.00    +0.007 A 
BRANCH   5   8
ATOM      8  O   UNL     1      10.169   1.981  21.643  0.00  0.00    -0.507 OA
ATOM      9  H   UNL     1      10.944   1.867  21.064  0.00  0.00    +0.292 HD
ENDBRANCH   5   8
ENDBRANCH   1   2
BRANCH   1  11
ATOM     10  C   UNL     1       9.351  -5.213  24.952  0.00  0.00    +0.004 C 
ATOM     11  C   UNL     1       9.438  -3.698  24.845  0.00  0.00    +0.005 C 
ENDBRANCH   1  11
BRANCH   1  12
ATOM     12  C   UNL     1       6.913  -2.965  24.461  0.00  0.00    +0.026 C 
BRANCH  12  13
ATOM     13  C   UNL     1       6.039  -4.234  24.401  0.00  0.00    -0.043 A 
ATOM     14  C   UNL     1       5.432  -4.648  23.196  0.00  0.00    +0.007 A 
ATOM     15  C   UNL     1       4.720  -5.849  23.098  0.00  0.00    +0.045 A 
ATOM     16  C   UNL     1       4.559  -6.639  24.225  0.00  0.00    +0.117 A 
ATOM     17  C   UNL     1       5.030  -6.204  25.451  0.00  0.00    +0.045 A 
ATOM     18  C   UNL     1       5.749  -5.007  25.535  0.00  0.00    +0.007 A 
BRANCH  16  19
ATOM     19  O   UNL     1       3.940  -7.844  24.082  0.00  0.00    -0.507 OA
ATOM     20  H   UNL     1       4.259  -8.425  24.794  0.00  0.00    +0.292 HD
ENDBRANCH  16  19
ENDBRANCH  12  13
BRANCH  12  21
ATOM     21  C   UNL     1       6.155  -1.663  23.993  0.00  0.00    +0.005 C 
ATOM     22  C   UNL     1       5.877  -0.556  25.014  0.00  0.00    +0.004 C 
ENDBRANCH  12  21
ENDBRANCH   1  12
TORSDOF 7
ENDMDL
MODEL 4
REMARK VINA RESULT:      -5.9      1.750      6.684
REMARK  Name = 
REMARK  9 active torsions:
REMARK  status: ('A' for Active; 'I' for Inactive)
REMARK    1  A    between atoms: C_1  and  C_2
REMARK    2  A    between atoms: C_2  and  C_3
REMARK    3  A    between atoms: C_3  and  C_4
REMARK    4  A    between atoms: C_3  and  C_14
REMARK    5  A    between atoms: C_4  and  C_5
REMARK    6  A    between atoms: C_4  and  C_7
REMARK    7  A    between atoms: C_5  and  C_6
REMARK    8  A    between atoms: C_10  and  O_11
REMARK    9  A    between atoms: C_17  and  O_18
REMARK                            x       y       z     vdW  Elec       q    Type
REMARK                         _______ _______ _______ _____ _____    ______ ____
ROOT
ATOM      1  C   UNL     1       8.167  -1.535  24.525  0.00  0.00    +0.026 C 
ENDROOT
BRANCH   1   2
ATOM      2  C   UNL     1       7.454  -2.592  23.649  0.00  0.00    -0.043 A 
ATOM      3  C   UNL     1       6.374  -2.278  22.806  0.00  0.00    +0.007 A 
ATOM      4  C   UNL     1       5.836  -3.234  21.926  0.00  0.00    +0.045 A 
ATOM      5  C   UNL     1       6.347  -4.523  21.906  0.00  0.00    +0.117 A 
ATOM      6  C   UNL     1       7.326  -4.898  22.813  0.00  0.00    +0.045 A 
ATOM      7  C   UNL     1       7.849  -3.948  23.684  0.00  0.00    +0.007 A 
BRANCH   5   8
ATOM      8  O   UNL     1       5.872  -5.399  20.974  0.00  0.00    -0.507 OA
ATOM      9  H   UNL     1       4.945  -5.164  20.791  0.00  0.00    +0.292 HD
ENDBRANCH   5   8
ENDBRANCH   1   2
BRANCH   1  11
ATOM     10  C   UNL     1       8.744  -0.951  27.027  0.00  0.00    +0.004 C 
ATOM     11  C   UNL     1       8.357  -2.004  26.000  0.00  0.00    +0.005 C 
ENDBRANCH   1  11
BRANCH   1  12
ATOM     12  C   UNL     1       9.430  -0.745  23.922  0.00  0.00    +0.026 C 
BRANCH  12  13
ATOM     13  C   UNL     1       9.428   0.795  23.843  0.00  0.00    -0.043 A 
ATOM     14  C   UNL     1      10.633   1.527  23.784  0.00  0.00    +0.007 A 
ATOM     15  C   UNL     1      10.651   2.916  23.610  0.00  0.00    +0.045 A 
ATOM     16  C   UNL     1       9.453   3.609  23.541  0.00  0.00    +0.117 A 
ATOM     17  C   UNL     1       8.254   2.943  23.723  0.00  0.00    +0.045 A 
ATOM     18  C   UNL     1       8.248   1.553  23.886  0.00  0.00    +0.007 A 
BRANCH  16  19
ATOM     19  O   UNL     1       9.497   4.945  23.282  0.00  0.00    -0.507 OA
ATOM     20  H   UNL     1       8.869   5.126  22.562  0.00  0.00    +0.292 HD
ENDBRANCH  16  19
ENDBRANCH  12  13
BRANCH  12  21
ATOM     21  C   UNL     1       9.949  -1.435  22.601  0.00  0.00    +0.005 C 
ATOM     22  C   UNL     1       9.541  -0.851  21.245  0.00  0.00    +0.004 C 
ENDBRANCH  12  21
ENDBRANCH   1  12
TORSDOF 7
ENDMDL
MODEL 5
REMARK VINA RESULT:      -5.9      0.965      6.120
REMARK  Name = 
REMARK  9 active torsions:
REMARK  status: ('A' for Active; 'I' for Inactive)
REMARK    1  A    between atoms: C_1  and  C_2
REMARK    2  A    between atoms: C_2  and  C_3
REMARK    3  A    between atoms: C_3  and  C_4
REMARK    4  A    between atoms: C_3  and  C_14
REMARK    5  A    between atoms: C_4  and  C_5
REMARK    6  A    between atoms: C_4  and  C_7
REMARK    7  A    between atoms: C_5  and  C_6
REMARK    8  A    between atoms: C_10  and  O_11
REMARK    9  A    between atoms: C_17  and  O_18
REMARK                            x       y       z     vdW  Elec       q    Type
REMARK                         _______ _______ _______ _____ _____    ______ ____
ROOT
ATOM      1  C   UNL     1       7.088  -2.294  24.642  0.00  0.00    +0.026 C 
ENDROOT
BRANCH   1   2
ATOM      2  C   UNL     1       6.499  -3.363  23.691  0.00  0.00    -0.043 A 
ATOM      3  C   UNL     1       6.424  -3.186  22.299  0.00  0.00    +0.007 A 
ATOM      4  C   UNL     1       6.007  -4.230  21.454  0.00  0.00    +0.045 A 
ATOM      5  C   UNL     1       5.625  -5.448  21.994  0.00  0.00    +0.117 A 
ATOM      6  C   UNL     1       5.567  -5.613  23.369  0.00  0.00    +0.045 A 
ATOM      7  C   UNL     1       5.976  -4.574  24.199  0.00  0.00    +0.007 A 
BRANCH   5   8
ATOM      8  O   UNL     1       5.320  -6.471  21.144  0.00  0.00    -0.507 OA
ATOM      9  H   UNL     1       4.522  -6.914  21.486  0.00  0.00    +0.292 HD
ENDBRANCH   5   8
ENDBRANCH   1   2
BRANCH   1  11
ATOM     10  C   UNL     1       6.723  -1.167  26.994  0.00  0.00    +0.004 C 
ATOM     11  C   UNL     1       6.461  -2.346  26.068  0.00  0.00    +0.005 C 
ENDBRANCH   1  11
BRANCH   1  12
ATOM     12  C   UNL     1       8.674  -2.029  24.632  0.00  0.00    +0.026 C 
BRANCH  12  13
ATOM     13  C   UNL     1       9.264  -0.828  23.867  0.00  0.00    -0.043 A 
ATOM     14  C   UNL     1       9.152  -0.728  22.464  0.00  0.00    +0.007 A 
ATOM     15  C   UNL     1       9.591   0.401  21.762  0.00  0.00    +0.045 A 
ATOM     16  C   UNL     1      10.199   1.437  22.451  0.00  0.00    +0.117 A 
ATOM     17  C   UNL     1      10.441   1.321  23.809  0.00  0.00    +0.045 A 
ATOM     18  C   UNL     1       9.989   0.192  24.501  0.00  0.00    +0.007 A 
BRANCH  16  19
ATOM     19  O   UNL     1      10.534   2.561  21.759  0.00  0.00    -0.507 OA
ATOM     20  H   UNL     1      10.459   2.357  20.811  0.00  0.00    +0.292 HD
ENDBRANCH  16  19
ENDBRANCH  12  13
BRANCH  12  21
ATOM     21  C   UNL     1       9.469  -3.371  24.394  0.00  0.00    +0.005 C 
ATOM     22  C   UNL     1       9.430  -4.460  25.471  0.00  0.00    +0.004 C 
ENDBRANCH  12  21
ENDBRANCH   1  12
TORSDOF 7
ENDMDL
MODEL 6
REMARK VINA RESULT:      -5.9      4.456      7.421
REMARK  Name = 
REMARK  9 active torsions:
REMARK  status: ('A' for Active; 'I' for Inactive)
REMARK    1  A    between atoms: C_1  and  C_2
REMARK    2  A    between atoms: C_2  and  C_3
REMARK    3  A    between atoms: C_3  and  C_4
REMARK    4  A    between atoms: C_3  and  C_14
REMARK    5  A    between atoms: C_4  and  C_5
REMARK    6  A    between atoms: C_4  and  C_7
REMARK    7  A    between atoms: C_5  and  C_6
REMARK    8  A    between atoms: C_10  and  O_11
REMARK    9  A    between atoms: C_17  and  O_18
REMARK                            x       y       z     vdW  Elec       q    Type
REMARK                         _______ _______ _______ _____ _____    ______ ____
ROOT
ATOM      1  C   UNL     1      10.581   3.662  23.728  0.00  0.00    +0.026 C 
ENDROOT
BRANCH   1   2
ATOM      2  C   UNL     1      10.435   2.160  23.388  0.00  0.00    -0.043 A 
ATOM      3  C   UNL     1      10.645   1.141  24.333  0.00  0.00    +0.007 A 
ATOM      4  C   UNL     1      10.374  -0.204  24.026  0.00  0.00    +0.045 A 
ATOM      5  C   UNL     1       9.926  -0.549  22.760  0.00  0.00    +0.117 A 
ATOM      6  C   UNL     1       9.830   0.414  21.769  0.00  0.00    +0.045 A 
ATOM      7  C   UNL     1      10.104   1.743  22.079  0.00  0.00    +0.007 A 
BRANCH   5   8
ATOM      8  O   UNL     1       9.579  -1.848  22.523  0.00  0.00    -0.507 OA
ATOM      9  H   UNL     1       9.946  -2.100  21.656  0.00  0.00    +0.292 HD
ENDBRANCH   5   8
ENDBRANCH   1   2
BRANCH   1  11
ATOM     10  C   UNL     1      12.858   4.952  23.440  0.00  0.00    +0.004 C 
ATOM     11  C   UNL     1      11.596   4.393  22.798  0.00  0.00    +0.005 C 
ENDBRANCH   1  11
BRANCH   1  12
ATOM     12  C   UNL     1       9.262   4.519  24.061  0.00  0.00    +0.026 C 
BRANCH  12  13
ATOM     13  C   UNL     1       7.859   3.924  23.826  0.00  0.00    -0.043 A 
ATOM     14  C   UNL     1       7.171   3.246  24.855  0.00  0.00    +0.007 A 
ATOM     15  C   UNL     1       5.858   2.788  24.693  0.00  0.00    +0.045 A 
ATOM     16  C   UNL     1       5.224   2.957  23.473  0.00  0.00    +0.117 A 
ATOM     17  C   UNL     1       5.911   3.502  22.402  0.00  0.00    +0.045 A 
ATOM     18  C   UNL     1       7.219   3.965  22.579  0.00  0.00    +0.007 A 
BRANCH  16  19
ATOM     19  O   UNL     1       3.918   2.584  23.369  0.00  0.00    -0.507 OA
ATOM     20  H   UNL     1       3.859   1.905  22.675  0.00  0.00    +0.292 HD
ENDBRANCH  16  19
ENDBRANCH  12  13
BRANCH  12  21
ATOM     21  C   UNL     1       9.405   6.001  23.538  0.00  0.00    +0.005 C 
ATOM     22  C   UNL     1       8.581   7.108  24.202  0.00  0.00    +0.004 C 
ENDBRANCH  12  21
ENDBRANCH   1  12
TORSDOF 7
ENDMDL
MODEL 7
REMARK VINA RESULT:      -5.8      2.275      6.497
REMARK  Name = 
REMARK  9 active torsions:
REMARK  status: ('A' for Active; 'I' for Inactive)
REMARK    1  A    between atoms: C_1  and  C_2
REMARK    2  A    between atoms: C_2  and  C_3
REMARK    3  A    between atoms: C_3  and  C_4
REMARK    4  A    between atoms: C_3  and  C_14
REMARK    5  A    between atoms: C_4  and  C_5
REMARK    6  A    between atoms: C_4  and  C_7
REMARK    7  A    between atoms: C_5  and  C_6
REMARK    8  A    between atoms: C_10  and  O_11
REMARK    9  A    between atoms: C_17  and  O_18
REMARK                            x       y       z     vdW  Elec       q    Type
REMARK                         _______ _______ _______ _____ _____    ______ ____
ROOT
ATOM      1  C   UNL     1       8.417  -1.358  24.078  0.00  0.00    +0.026 C 
ENDROOT
BRANCH   1   2
ATOM      2  C   UNL     1       7.603  -2.475  23.383  0.00  0.00    -0.043 A 
ATOM      3  C   UNL     1       6.394  -2.229  22.710  0.00  0.00    +0.007 A 
ATOM      4  C   UNL     1       5.750  -3.242  21.977  0.00  0.00    +0.045 A 
ATOM      5  C   UNL     1       6.287  -4.520  21.941  0.00  0.00    +0.117 A 
ATOM      6  C   UNL     1       7.408  -4.825  22.697  0.00  0.00    +0.045 A 
ATOM      7  C   UNL     1       8.037  -3.819  23.424  0.00  0.00    +0.007 A 
BRANCH   5   8
ATOM      8  O   UNL     1       5.694  -5.455  21.144  0.00  0.00    -0.507 OA
ATOM      9  H   UNL     1       5.991  -6.332  21.442  0.00  0.00    +0.292 HD
ENDBRANCH   5   8
ENDBRANCH   1   2
BRANCH   1  11
ATOM     10  C   UNL     1       9.733  -0.941  21.836  0.00  0.00    +0.004 C 
ATOM     11  C   UNL     1       9.764  -1.055  23.353  0.00  0.00    +0.005 C 
ENDBRANCH   1  11
BRANCH   1  12
ATOM     12  C   UNL     1       7.651  -0.049  24.611  0.00  0.00    +0.026 C 
BRANCH  12  13
ATOM     13  C   UNL     1       7.673   1.259  23.795  0.00  0.00    -0.043 A 
ATOM     14  C   UNL     1       6.822   1.443  22.684  0.00  0.00    +0.007 A 
ATOM     15  C   UNL     1       6.754   2.659  21.993  0.00  0.00    +0.045 A 
ATOM     16  C   UNL     1       7.579   3.705  22.374  0.00  0.00    +0.117 A 
ATOM     17  C   UNL     1       8.517   3.521  23.375  0.00  0.00    +0.045 A 
ATOM     18  C   UNL     1       8.568   2.305  24.065  0.00  0.00    +0.007 A 
BRANCH  16  19
ATOM     19  O   UNL     1       7.430   4.903  21.745  0.00  0.00    -0.507 OA
ATOM     20  H   UNL     1       7.584   5.603  22.402  0.00  0.00    +0.292 HD
ENDBRANCH  16  19
ENDBRANCH  12  13
BRANCH  12  21
ATOM     21  C   UNL     1       7.916   0.173  26.150  0.00  0.00    +0.005 C 
ATOM     22  C   UNL     1       8.731  -0.869  26.923  0.00  0.00    +0.004 C 
ENDBRANCH  12  21
ENDBRANCH   1  12
TORSDOF 7
ENDMDL
MODEL 8
REMARK VINA RESULT:      -5.7      4.575      7.231
REMARK  Name = 
REMARK  9 active torsions:
REMARK  status: ('A' for Active; 'I' for Inactive)
REMARK    1  A    between atoms: C_1  and  C_2
REMARK    2  A    between atoms: C_2  and  C_3
REMARK    3  A    between atoms: C_3  and  C_4
REMARK    4  A    between atoms: C_3  and  C_14
REMARK    5  A    between atoms: C_4  and  C_5
REMARK    6  A    between atoms: C_4  and  C_7
REMARK    7  A    between atoms: C_5  and  C_6
REMARK    8  A    between atoms: C_10  and  O_11
REMARK    9  A    between atoms: C_17  and  O_18
REMARK                            x       y       z     vdW  Elec       q    Type
REMARK                         _______ _______ _______ _____ _____    ______ ____
ROOT
ATOM      1  C   UNL     1       9.069   4.514  23.543  0.00  0.00    +0.026 C 
ENDROOT
BRANCH   1   2
ATOM      2  C   UNL     1       7.671   3.854  23.568  0.00  0.00    -0.043 A 
ATOM      3  C   UNL     1       7.132   3.254  24.719  0.00  0.00    +0.007 A 
ATOM      4  C   UNL     1       5.807   2.783  24.743  0.00  0.00    +0.045 A 
ATOM      5  C   UNL     1       5.019   2.872  23.606  0.00  0.00    +0.117 A 
ATOM      6  C   UNL     1       5.560   3.342  22.419  0.00  0.00    +0.045 A 
ATOM      7  C   UNL     1       6.874   3.801  22.402  0.00  0.00    +0.007 A 
BRANCH   5   8
ATOM      8  O   UNL     1       3.710   2.497  23.688  0.00  0.00    -0.507 OA
ATOM      9  H   UNL     1       3.317   2.592  22.802  0.00  0.00    +0.292 HD
ENDBRANCH   5   8
ENDBRANCH   1   2
BRANCH   1  11
ATOM     10  C   UNL     1       8.919   6.832  24.784  0.00  0.00    +0.004 C 
ATOM     11  C   UNL     1       9.352   5.373  24.813  0.00  0.00    +0.005 C 
ENDBRANCH   1  11
BRANCH   1  12
ATOM     12  C   UNL     1      10.330   3.653  23.041  0.00  0.00    +0.026 C 
BRANCH  12  13
ATOM     13  C   UNL     1      10.267   2.113  23.011  0.00  0.00    -0.043 A 
ATOM     14  C   UNL     1       9.819   1.420  21.867  0.00  0.00    +0.007 A 
ATOM     15  C   UNL     1       9.849   0.023  21.784  0.00  0.00    +0.045 A 
ATOM     16  C   UNL     1      10.287  -0.713  22.873  0.00  0.00    +0.117 A 
ATOM     17  C   UNL     1      10.615  -0.076  24.057  0.00  0.00    +0.045 A 
ATOM     18  C   UNL     1      10.589   1.321  24.124  0.00  0.00    +0.007 A 
BRANCH  16  19
ATOM     19  O   UNL     1      10.393  -2.064  22.735  0.00  0.00    -0.507 OA
ATOM     20  H   UNL     1      11.333  -2.297  22.824  0.00  0.00    +0.292 HD
ENDBRANCH  16  19
ENDBRANCH  12  13
BRANCH  12  21
ATOM     21  C   UNL     1      11.674   4.210  23.653  0.00  0.00    +0.005 C 
ATOM     22  C   UNL     1      12.537   5.158  22.814  0.00  0.00    +0.004 C 
ENDBRANCH  12  21
ENDBRANCH   1  12
TORSDOF 7
ENDMDL
MODEL 9
REMARK VINA RESULT:      -5.6      2.677      6.764
REMARK  Name = 
REMARK  9 active torsions:
REMARK  status: ('A' for Active; 'I' for Inactive)
REMARK    1  A    between atoms: C_1  and  C_2
REMARK    2  A    between atoms: C_2  and  C_3
REMARK    3  A    between atoms: C_3  and  C_4
REMARK    4  A    between atoms: C_3  and  C_14
REMARK    5  A    between atoms: C_4  and  C_5
REMARK    6  A    between atoms: C_4  and  C_7
REMARK    7  A    between atoms: C_5  and  C_6
REMARK    8  A    between atoms: C_10  and  O_11
REMARK    9  A    between atoms: C_17  and  O_18
REMARK                            x       y       z     vdW  Elec       q    Type
REMARK                         _______ _______ _______ _____ _____    ______ ____
ROOT
ATOM      1  C   UNL     1       5.949  -5.167  24.299  0.00  0.00    +0.026 C 
ENDROOT
BRANCH   1   2
ATOM      2  C   UNL     1       5.917  -5.700  25.752  0.00  0.00    -0.043 A 
ATOM      3  C   UNL     1       6.884  -5.356  26.711  0.00  0.00    +0.007 A 
ATOM      4  C   UNL     1       6.750  -5.751  28.054  0.00  0.00    +0.045 A 
ATOM      5  C   UNL     1       5.667  -6.524  28.445  0.00  0.00    +0.117 A 
ATOM      6  C   UNL     1       4.764  -6.985  27.500  0.00  0.00    +0.045 A 
ATOM      7  C   UNL     1       4.906  -6.595  26.172  0.00  0.00    +0.007 A 
BRANCH   5   8
ATOM      8  O   UNL     1       5.513  -6.808  29.770  0.00  0.00    -0.507 OA
ATOM      9  H   UNL     1       5.984  -6.123  30.278  0.00  0.00    +0.292 HD
ENDBRANCH   5   8
ENDBRANCH   1   2
BRANCH   1  11
ATOM     10  C   UNL     1       3.575  -4.162  23.766  0.00  0.00    +0.004 C 
ATOM     11  C   UNL     1       5.040  -3.917  24.097  0.00  0.00    +0.005 C 
ENDBRANCH   1  11
BRANCH   1  12
ATOM     12  C   UNL     1       7.358  -5.085  23.530  0.00  0.00    +0.026 C 
BRANCH  12  13
ATOM     13  C   UNL     1       8.100  -3.740  23.394  0.00  0.00    -0.043 A 
ATOM     14  C   UNL     1       8.981  -3.286  24.399  0.00  0.00    +0.007 A 
ATOM     15  C   UNL     1       9.740  -2.119  24.249  0.00  0.00    +0.045 A 
ATOM     16  C   UNL     1       9.593  -1.354  23.103  0.00  0.00    +0.117 A 
ATOM     17  C   UNL     1       8.647  -1.699  22.154  0.00  0.00    +0.045 A 
ATOM     18  C   UNL     1       7.901  -2.872  22.310  0.00  0.00    +0.007 A 
BRANCH  16  19
ATOM     19  O   UNL     1      10.407  -0.274  22.942  0.00  0.00    -0.507 OA
ATOM     20  H   UNL     1       9.875   0.523  23.103  0.00  0.00    +0.292 HD
ENDBRANCH  16  19
ENDBRANCH  12  13
BRANCH  12  21
ATOM     21  C   UNL     1       7.316  -5.911  22.186  0.00  0.00    +0.005 C 
ATOM     22  C   UNL     1       6.027  -5.921  21.358  0.00  0.00    +0.004 C 
ENDBRANCH  12  21
ENDBRANCH   1  12
TORSDOF 7
ENDMDL
