MODEL 1
REMARK VINA RESULT:      -6.7      0.000      0.000
REMARK  Name = 
REMARK  3 active torsions:
REMARK  status: ('A' for Active; 'I' for Inactive)
REMARK    1  A    between atoms: C_1  and  C_2
REMARK    2  A    between atoms: C_1  and  C_12
REMARK    3  A    between atoms: C_2  and  C_3
REMARK                            x       y       z     vdW  Elec       q    Type
REMARK                         _______ _______ _______ _____ _____    ______ ____
ROOT
ATOM      1  C   UNL     1       9.634  -1.567  23.008  0.00  0.00    -0.022 A 
ATOM      2  C   UNL     1       9.942  -0.190  23.246  0.00  0.00    +0.003 A 
ATOM      3  C   UNL     1       9.791   0.486  22.036  0.00  0.00    +0.047 A 
ATOM      4  C   UNL     1      10.014   1.862  21.904  0.00  0.00    +0.026 A 
ATOM      5  C   UNL     1      10.403   2.567  23.046  0.00  0.00    +0.002 A 
ATOM      6  C   UNL     1      10.560   1.921  24.270  0.00  0.00    +0.001 A 
ATOM      7  N   UNL     1       9.406  -0.442  21.098  0.00  0.00    -0.360 N 
ATOM      8  H   UNL     1       9.222  -0.232  20.128  0.00  0.00    +0.165 HD
ATOM      9  C   UNL     1      10.333   0.545  24.384  0.00  0.00    +0.010 A 
ATOM     10  C   UNL     1       9.308  -1.681  21.671  0.00  0.00    +0.087 A 
ENDROOT
BRANCH   1  11
ATOM     11  C   UNL     1       9.648  -2.680  24.010  0.00  0.00    +0.037 C 
BRANCH  11  12
ATOM     12  C   UNL     1       8.230  -3.153  24.347  0.00  0.00    +0.008 C 
BRANCH  12  13
ATOM     13  C   UNL     1       8.066  -4.688  24.363  0.00  0.00    -0.008 C 
ATOM     14  C   UNL     1       6.771  -5.171  25.035  0.00  0.00    +0.018 C 
ATOM     15  C   UNL     1       6.781  -4.909  26.540  0.00  0.00    +0.081 C 
ATOM     16  N   UNL     1       7.928  -5.550  27.184  0.00  0.00    -0.316 NA
ATOM     17  H   UNL     1       7.923  -5.325  28.178  0.00  0.00    +0.122 HD
ATOM     18  C   UNL     1       9.203  -5.128  26.602  0.00  0.00    +0.081 C 
ATOM     19  C   UNL     1       9.249  -5.353  25.088  0.00  0.00    +0.018 C 
ENDBRANCH  12  13
ENDBRANCH  11  12
ENDBRANCH   1  11
TORSDOF 3
ENDMDL
MODEL 2
REMARK VINA RESULT:      -6.4      1.384      1.979
REMARK  Name = 
REMARK  3 active torsions:
REMARK  status: ('A' for Active; 'I' for Inactive)
REMARK    1  A    between atoms: C_1  and  C_2
REMARK    2  A    between atoms: C_1  and  C_12
REMARK    3  A    between atoms: C_2  and  C_3
REMARK                            x       y       z     vdW  Elec       q    Type
REMARK                         _______ _______ _______ _____ _____    ______ ____
ROOT
ATOM      1  C   UNL     1       8.874  -1.393  24.123  0.00  0.00    -0.022 A 
ATOM      2  C   UNL     1       9.322  -0.197  23.478  0.00  0.00    +0.003 A 
ATOM      3  C   UNL     1       9.751   0.678  24.475  0.00  0.00    +0.047 A 
ATOM      4  C   UNL     1      10.258   1.953  24.198  0.00  0.00    +0.026 A 
ATOM      5  C   UNL     1      10.328   2.344  22.858  0.00  0.00    +0.002 A 
ATOM      6  C   UNL     1       9.909   1.492  21.839  0.00  0.00    +0.001 A 
ATOM      7  N   UNL     1       9.572   0.040  25.680  0.00  0.00    -0.360 N 
ATOM      8  H   UNL     1       9.800   0.440  26.578  0.00  0.00    +0.165 HD
ATOM      9  C   UNL     1       9.406   0.221  22.134  0.00  0.00    +0.010 A 
ATOM     10  C   UNL     1       9.044  -1.207  25.481  0.00  0.00    +0.087 A 
ENDROOT
BRANCH   1  11
ATOM     11  C   UNL     1       8.331  -2.623  23.463  0.00  0.00    +0.037 C 
BRANCH  11  12
ATOM     12  C   UNL     1       7.274  -3.311  24.333  0.00  0.00    +0.008 C 
BRANCH  12  13
ATOM     13  C   UNL     1       7.439  -4.843  24.433  0.00  0.00    -0.008 C 
ATOM     14  C   UNL     1       6.433  -5.519  25.377  0.00  0.00    +0.018 C 
ATOM     15  C   UNL     1       6.687  -5.150  26.837  0.00  0.00    +0.081 C 
ATOM     16  N   UNL     1       8.046  -5.502  27.246  0.00  0.00    -0.316 NA
ATOM     17  H   UNL     1       8.193  -5.209  28.212  0.00  0.00    +0.122 HD
ATOM     18  C   UNL     1       9.065  -4.882  26.397  0.00  0.00    +0.081 C 
ATOM     19  C   UNL     1       8.855  -5.206  24.915  0.00  0.00    +0.018 C 
ENDBRANCH  12  13
ENDBRANCH  11  12
ENDBRANCH   1  11
TORSDOF 3
ENDMDL
MODEL 3
REMARK VINA RESULT:      -6.4      2.070      2.735
REMARK  Name = 
REMARK  3 active torsions:
REMARK  status: ('A' for Active; 'I' for Inactive)
REMARK    1  A    between atoms: C_1  and  C_2
REMARK    2  A    between atoms: C_1  and  C_12
REMARK    3  A    between atoms: C_2  and  C_3
REMARK                            x       y       z     vdW  Elec       q    Type
REMARK                         _______ _______ _______ _____ _____    ______ ____
ROOT
ATOM      1  C   UNL     1       8.791  -1.582  23.116  0.00  0.00    -0.022 A 
ATOM      2  C   UNL     1       9.182  -0.230  23.377  0.00  0.00    +0.003 A 
ATOM      3  C   UNL     1       9.624   0.316  22.172  0.00  0.00    +0.047 A 
ATOM      4  C   UNL     1      10.084   1.633  22.061  0.00  0.00    +0.026 A 
ATOM      5  C   UNL     1      10.090   2.417  23.218  0.00  0.00    +0.002 A 
ATOM      6  C   UNL     1       9.652   1.902  24.436  0.00  0.00    +0.001 A 
ATOM      7  N   UNL     1       9.507  -0.665  21.216  0.00  0.00    -0.360 N 
ATOM      8  H   UNL     1       9.755  -0.548  20.244  0.00  0.00    +0.165 HD
ATOM      9  C   UNL     1       9.196   0.582  24.529  0.00  0.00    +0.010 A 
ATOM     10  C   UNL     1       9.007  -1.811  21.772  0.00  0.00    +0.087 A 
ENDROOT
BRANCH   1  11
ATOM     11  C   UNL     1       8.241  -2.566  24.102  0.00  0.00    +0.037 C 
BRANCH  11  12
ATOM     12  C   UNL     1       7.015  -3.296  23.546  0.00  0.00    +0.008 C 
BRANCH  12  13
ATOM     13  C   UNL     1       7.040  -4.825  23.759  0.00  0.00    -0.008 C 
ATOM     14  C   UNL     1       7.473  -5.622  22.519  0.00  0.00    +0.018 C 
ATOM     15  C   UNL     1       6.432  -5.548  21.404  0.00  0.00    +0.081 C 
ATOM     16  N   UNL     1       5.129  -6.031  21.859  0.00  0.00    -0.316 NA
ATOM     17  H   UNL     1       4.452  -5.934  21.102  0.00  0.00    +0.122 HD
ATOM     18  C   UNL     1       4.643  -5.308  23.035  0.00  0.00    +0.081 C 
ATOM     19  C   UNL     1       5.652  -5.336  24.186  0.00  0.00    +0.018 C 
ENDBRANCH  12  13
ENDBRANCH  11  12
ENDBRANCH   1  11
TORSDOF 3
ENDMDL
MODEL 4
REMARK VINA RESULT:      -6.3      2.448      3.205
REMARK  Name = 
REMARK  3 active torsions:
REMARK  status: ('A' for Active; 'I' for Inactive)
REMARK    1  A    between atoms: C_1  and  C_2
REMARK    2  A    between atoms: C_1  and  C_12
REMARK    3  A    between atoms: C_2  and  C_3
REMARK                            x       y       z     vdW  Elec       q    Type
REMARK                         _______ _______ _______ _____ _____    ______ ____
ROOT
ATOM      1  C   UNL     1       9.329  -1.585  24.560  0.00  0.00    -0.022 A 
ATOM      2  C   UNL     1       9.509  -0.430  23.733  0.00  0.00    +0.003 A 
ATOM      3  C   UNL     1       9.303   0.692  24.536  0.00  0.00    +0.047 A 
ATOM      4  C   UNL     1       9.402   2.000  24.048  0.00  0.00    +0.026 A 
ATOM      5  C   UNL     1       9.721   2.165  22.697  0.00  0.00    +0.002 A 
ATOM      6  C   UNL     1       9.934   1.064  21.871  0.00  0.00    +0.001 A 
ATOM      7  N   UNL     1       9.010   0.238  25.800  0.00  0.00    -0.360 N 
ATOM      8  H   UNL     1       8.816   0.835  26.591  0.00  0.00    +0.165 HD
ATOM      9  C   UNL     1       9.832  -0.237  22.375  0.00  0.00    +0.010 A 
ATOM     10  C   UNL     1       9.022  -1.130  25.827  0.00  0.00    +0.087 A 
ENDROOT
BRANCH   1  11
ATOM     11  C   UNL     1       9.456  -3.018  24.144  0.00  0.00    +0.037 C 
BRANCH  11  12
ATOM     12  C   UNL     1       8.084  -3.680  23.974  0.00  0.00    +0.008 C 
BRANCH  12  13
ATOM     13  C   UNL     1       7.510  -3.583  22.544  0.00  0.00    -0.008 C 
ATOM     14  C   UNL     1       6.236  -2.730  22.440  0.00  0.00    +0.018 C 
ATOM     15  C   UNL     1       5.049  -3.394  23.136  0.00  0.00    +0.081 C 
ATOM     16  N   UNL     1       4.787  -4.724  22.588  0.00  0.00    -0.316 NA
ATOM     17  H   UNL     1       4.014  -5.151  23.099  0.00  0.00    +0.122 HD
ATOM     18  C   UNL     1       5.957  -5.601  22.665  0.00  0.00    +0.081 C 
ATOM     19  C   UNL     1       7.186  -4.983  21.994  0.00  0.00    +0.018 C 
ENDBRANCH  12  13
ENDBRANCH  11  12
ENDBRANCH   1  11
TORSDOF 3
ENDMDL
MODEL 5
REMARK VINA RESULT:      -6.3      1.954      6.258
REMARK  Name = 
REMARK  3 active torsions:
REMARK  status: ('A' for Active; 'I' for Inactive)
REMARK    1  A    between atoms: C_1  and  C_2
REMARK    2  A    between atoms: C_1  and  C_12
REMARK    3  A    between atoms: C_2  and  C_3
REMARK                            x       y       z     vdW  Elec       q    Type
REMARK                         _______ _______ _______ _____ _____    ______ ____
ROOT
ATOM      1  C   UNL     1       8.191  -2.549  24.778  0.00  0.00    -0.022 A 
ATOM      2  C   UNL     1       7.379  -3.045  23.708  0.00  0.00    +0.003 A 
ATOM      3  C   UNL     1       7.750  -4.371  23.485  0.00  0.00    +0.047 A 
ATOM      4  C   UNL     1       7.154  -5.169  22.502  0.00  0.00    +0.026 A 
ATOM      5  C   UNL     1       6.146  -4.593  21.724  0.00  0.00    +0.002 A 
ATOM      6  C   UNL     1       5.751  -3.272  21.924  0.00  0.00    +0.001 A 
ATOM      7  N   UNL     1       8.748  -4.669  24.383  0.00  0.00    -0.360 N 
ATOM      8  H   UNL     1       9.207  -5.566  24.449  0.00  0.00    +0.165 HD
ATOM      9  C   UNL     1       6.358  -2.488  22.912  0.00  0.00    +0.010 A 
ATOM     10  C   UNL     1       9.021  -3.581  25.166  0.00  0.00    +0.087 A 
ENDROOT
BRANCH   1  11
ATOM     11  C   UNL     1       8.149  -1.177  25.377  0.00  0.00    +0.037 C 
BRANCH  11  12
ATOM     12  C   UNL     1       8.438  -0.095  24.331  0.00  0.00    +0.008 C 
BRANCH  12  13
ATOM     13  C   UNL     1       9.856  -0.168  23.724  0.00  0.00    -0.008 C 
ATOM     14  C   UNL     1      10.720   1.070  24.007  0.00  0.00    +0.018 C 
ATOM     15  C   UNL     1      10.202   2.305  23.273  0.00  0.00    +0.081 C 
ATOM     16  N   UNL     1      10.140   2.079  21.830  0.00  0.00    -0.316 NA
ATOM     17  H   UNL     1       9.757   2.908  21.376  0.00  0.00    +0.122 HD
ATOM     18  C   UNL     1       9.320   0.918  21.480  0.00  0.00    +0.081 C 
ATOM     19  C   UNL     1       9.783  -0.353  22.198  0.00  0.00    +0.018 C 
ENDBRANCH  12  13
ENDBRANCH  11  12
ENDBRANCH   1  11
TORSDOF 3
ENDMDL
MODEL 6
REMARK VINA RESULT:      -6.2      2.424      3.268
REMARK  Name = 
REMARK  3 active torsions:
REMARK  status: ('A' for Active; 'I' for Inactive)
REMARK    1  A    between atoms: C_1  and  C_2
REMARK    2  A    between atoms: C_1  and  C_12
REMARK    3  A    between atoms: C_2  and  C_3
REMARK                            x       y       z     vdW  Elec       q    Type
REMARK                         _______ _______ _______ _____ _____    ______ ____
ROOT
ATOM      1  C   UNL     1       8.512  -1.986  23.883  0.00  0.00    -0.022 A 
ATOM      2  C   UNL     1       8.288  -0.757  23.184  0.00  0.00    +0.003 A 
ATOM      3  C   UNL     1       9.444  -0.475  22.456  0.00  0.00    +0.047 A 
ATOM      4  C   UNL     1       9.573   0.662  21.651  0.00  0.00    +0.026 A 
ATOM      5  C   UNL     1       8.485   1.537  21.587  0.00  0.00    +0.002 A 
ATOM      6  C   UNL     1       7.316   1.282  22.300  0.00  0.00    +0.001 A 
ATOM      7  N   UNL     1      10.336  -1.492  22.702  0.00  0.00    -0.360 N 
ATOM      8  H   UNL     1      11.262  -1.550  22.303  0.00  0.00    +0.165 HD
ATOM      9  C   UNL     1       7.204   0.141  23.101  0.00  0.00    +0.010 A 
ATOM     10  C   UNL     1       9.787  -2.407  23.559  0.00  0.00    +0.087 A 
ENDROOT
BRANCH   1  11
ATOM     11  C   UNL     1       7.552  -2.695  24.788  0.00  0.00    +0.037 C 
BRANCH  11  12
ATOM     12  C   UNL     1       6.509  -3.487  23.993  0.00  0.00    +0.008 C 
BRANCH  12  13
ATOM     13  C   UNL     1       6.758  -5.011  23.968  0.00  0.00    -0.008 C 
ATOM     14  C   UNL     1       7.423  -5.514  22.678  0.00  0.00    +0.018 C 
ATOM     15  C   UNL     1       6.489  -5.398  21.475  0.00  0.00    +0.081 C 
ATOM     16  N   UNL     1       5.244  -6.133  21.695  0.00  0.00    -0.316 NA
ATOM     17  H   UNL     1       4.632  -6.005  20.889  0.00  0.00    +0.122 HD
ATOM     18  C   UNL     1       4.545  -5.698  22.905  0.00  0.00    +0.081 C 
ATOM     19  C   UNL     1       5.436  -5.779  24.147  0.00  0.00    +0.018 C 
ENDBRANCH  12  13
ENDBRANCH  11  12
ENDBRANCH   1  11
TORSDOF 3
ENDMDL
MODEL 7
REMARK VINA RESULT:      -6.0      1.920      5.827
REMARK  Name = 
REMARK  3 active torsions:
REMARK  status: ('A' for Active; 'I' for Inactive)
REMARK    1  A    between atoms: C_1  and  C_2
REMARK    2  A    between atoms: C_1  and  C_12
REMARK    3  A    between atoms: C_2  and  C_3
REMARK                            x       y       z     vdW  Elec       q    Type
REMARK                         _______ _______ _______ _____ _____    ______ ____
ROOT
ATOM      1  C   UNL     1       8.901  -2.573  23.019  0.00  0.00    -0.022 A 
ATOM      2  C   UNL     1       8.627  -3.482  24.090  0.00  0.00    +0.003 A 
ATOM      3  C   UNL     1       7.315  -3.930  23.931  0.00  0.00    +0.047 A 
ATOM      4  C   UNL     1       6.713  -4.838  24.808  0.00  0.00    +0.026 A 
ATOM      5  C   UNL     1       7.477  -5.305  25.882  0.00  0.00    +0.002 A 
ATOM      6  C   UNL     1       8.790  -4.879  26.067  0.00  0.00    +0.001 A 
ATOM      7  N   UNL     1       6.811  -3.317  22.808  0.00  0.00    -0.360 N 
ATOM      8  H   UNL     1       5.877  -3.457  22.450  0.00  0.00    +0.165 HD
ATOM      9  C   UNL     1       9.377  -3.970  25.179  0.00  0.00    +0.010 A 
ATOM     10  C   UNL     1       7.756  -2.498  22.251  0.00  0.00    +0.087 A 
ENDROOT
BRANCH   1  11
ATOM     11  C   UNL     1      10.183  -1.843  22.764  0.00  0.00    +0.037 C 
BRANCH  11  12
ATOM     12  C   UNL     1       9.998  -0.326  22.861  0.00  0.00    +0.008 C 
BRANCH  12  13
ATOM     13  C   UNL     1      10.588   0.301  24.142  0.00  0.00    -0.008 C 
ATOM     14  C   UNL     1       9.839  -0.082  25.427  0.00  0.00    +0.018 C 
ATOM     15  C   UNL     1       8.441   0.533  25.475  0.00  0.00    +0.081 C 
ATOM     16  N   UNL     1       8.497   1.990  25.364  0.00  0.00    -0.316 NA
ATOM     17  H   UNL     1       7.548   2.364  25.363  0.00  0.00    +0.122 HD
ATOM     18  C   UNL     1       9.189   2.433  24.152  0.00  0.00    +0.081 C 
ATOM     19  C   UNL     1      10.595   1.837  24.041  0.00  0.00    +0.018 C 
ENDBRANCH  12  13
ENDBRANCH  11  12
ENDBRANCH   1  11
TORSDOF 3
ENDMDL
MODEL 8
REMARK VINA RESULT:      -6.0      1.870      6.455
REMARK  Name = 
REMARK  3 active torsions:
REMARK  status: ('A' for Active; 'I' for Inactive)
REMARK    1  A    between atoms: C_1  and  C_2
REMARK    2  A    between atoms: C_1  and  C_12
REMARK    3  A    between atoms: C_2  and  C_3
REMARK                            x       y       z     vdW  Elec       q    Type
REMARK                         _______ _______ _______ _____ _____    ______ ____
ROOT
ATOM      1  C   UNL     1       9.405  -1.406  24.082  0.00  0.00    -0.022 A 
ATOM      2  C   UNL     1       8.673  -2.371  24.845  0.00  0.00    +0.003 A 
ATOM      3  C   UNL     1       8.041  -3.224  23.941  0.00  0.00    +0.047 A 
ATOM      4  C   UNL     1       7.234  -4.294  24.346  0.00  0.00    +0.026 A 
ATOM      5  C   UNL     1       7.070  -4.497  25.719  0.00  0.00    +0.002 A 
ATOM      6  C   UNL     1       7.690  -3.663  26.647  0.00  0.00    +0.001 A 
ATOM      7  N   UNL     1       8.375  -2.797  22.678  0.00  0.00    -0.360 N 
ATOM      8  H   UNL     1       8.058  -3.233  21.824  0.00  0.00    +0.165 HD
ATOM      9  C   UNL     1       8.493  -2.599  26.224  0.00  0.00    +0.010 A 
ATOM     10  C   UNL     1       9.195  -1.704  22.750  0.00  0.00    +0.087 A 
ENDROOT
BRANCH   1  11
ATOM     11  C   UNL     1      10.249  -0.290  24.614  0.00  0.00    +0.037 C 
BRANCH  11  12
ATOM     12  C   UNL     1       9.489   1.040  24.617  0.00  0.00    +0.008 C 
BRANCH  12  13
ATOM     13  C   UNL     1      10.149   2.146  23.766  0.00  0.00    -0.008 C 
ATOM     14  C   UNL     1       9.554   3.545  23.988  0.00  0.00    +0.018 C 
ATOM     15  C   UNL     1       8.125   3.646  23.456  0.00  0.00    +0.081 C 
ATOM     16  N   UNL     1       8.063   3.315  22.033  0.00  0.00    -0.316 NA
ATOM     17  H   UNL     1       7.093   3.357  21.721  0.00  0.00    +0.122 HD
ATOM     18  C   UNL     1       8.604   1.986  21.744  0.00  0.00    +0.081 C 
ATOM     19  C   UNL     1      10.033   1.818  22.267  0.00  0.00    +0.018 C 
ENDBRANCH  12  13
ENDBRANCH  11  12
ENDBRANCH   1  11
TORSDOF 3
ENDMDL
MODEL 9
REMARK VINA RESULT:      -5.9      1.797      2.768
REMARK  Name = 
REMARK  3 active torsions:
REMARK  status: ('A' for Active; 'I' for Inactive)
REMARK    1  A    between atoms: C_1  and  C_2
REMARK    2  A    between atoms: C_1  and  C_12
REMARK    3  A    between atoms: C_2  and  C_3
REMARK                            x       y       z     vdW  Elec       q    Type
REMARK                         _______ _______ _______ _____ _____    ______ ____
ROOT
ATOM      1  C   UNL     1      10.120  -0.291  23.564  0.00  0.00    -0.022 A 
ATOM      2  C   UNL     1       9.321   0.732  22.960  0.00  0.00    +0.003 A 
ATOM      3  C   UNL     1       9.344   1.836  23.813  0.00  0.00    +0.047 A 
ATOM      4  C   UNL     1       8.662   3.025  23.532  0.00  0.00    +0.026 A 
ATOM      5  C   UNL     1       7.935   3.088  22.340  0.00  0.00    +0.002 A 
ATOM      6  C   UNL     1       7.895   2.003  21.466  0.00  0.00    +0.001 A 
ATOM      7  N   UNL     1      10.126   1.498  24.893  0.00  0.00    -0.360 N 
ATOM      8  H   UNL     1      10.321   2.110  25.671  0.00  0.00    +0.165 HD
ATOM      9  C   UNL     1       8.582   0.822  21.763  0.00  0.00    +0.010 A 
ATOM     10  C   UNL     1      10.599   0.221  24.754  0.00  0.00    +0.087 A 
ENDROOT
BRANCH   1  11
ATOM     11  C   UNL     1      10.400  -1.655  23.014  0.00  0.00    +0.037 C 
BRANCH  11  12
ATOM     12  C   UNL     1       9.641  -2.740  23.785  0.00  0.00    +0.008 C 
BRANCH  12  13
ATOM     13  C   UNL     1       8.104  -2.620  23.694  0.00  0.00    -0.008 C 
ATOM     14  C   UNL     1       7.384  -2.789  25.040  0.00  0.00    +0.018 C 
ATOM     15  C   UNL     1       7.488  -4.219  25.565  0.00  0.00    +0.081 C 
ATOM     16  N   UNL     1       6.947  -5.179  24.604  0.00  0.00    -0.316 NA
ATOM     17  H   UNL     1       7.065  -6.124  24.971  0.00  0.00    +0.122 HD
ATOM     18  C   UNL     1       7.596  -5.087  23.295  0.00  0.00    +0.081 C 
ATOM     19  C   UNL     1       7.536  -3.669  22.721  0.00  0.00    +0.018 C 
ENDBRANCH  12  13
ENDBRANCH  11  12
ENDBRANCH   1  11
TORSDOF 3
ENDMDL
