MODEL 1
REMARK VINA RESULT:      -6.4      0.000      0.000
REMARK  Name = 
REMARK  11 active torsions:
REMARK  status: ('A' for Active; 'I' for Inactive)
REMARK    1  A    between atoms: C_2  and  C_3
REMARK    2  A    between atoms: C_2  and  O_4
REMARK    3  A    between atoms: C_2  and  C_5
REMARK    4  A    between atoms: C_5  and  N_7
REMARK    5  A    between atoms: C_5  and  C_8
REMARK    6  A    between atoms: C_8  and  O_10
REMARK    7  A    between atoms: C_8  and  C_11
REMARK    8  A    between atoms: C_12  and  C_13
REMARK    9  A    between atoms: C_21  and  C_22
REMARK   10  A    between atoms: C_23  and  O_24
REMARK   11  A    between atoms: O_24  and  C_25
REMARK                            x       y       z     vdW  Elec       q    Type
REMARK                         _______ _______ _______ _____ _____    ______ ____
ROOT
ATOM      1  C   UNL     1       6.532  -3.865  22.944  0.00  0.00    +0.070 A 
ATOM      2  C   UNL     1       5.426  -3.611  23.740  0.00  0.00    +0.027 A 
ATOM      3  C   UNL     1       5.074  -2.539  24.689  0.00  0.00    +0.049 C 
ATOM      4  C   UNL     1       3.741  -2.910  25.286  0.00  0.00    +0.249 C 
ATOM      5  N   UNL     1       3.369  -4.075  24.629  0.00  0.00    -0.281 N 
ATOM      6  H   UNL     1       2.507  -4.556  24.835  0.00  0.00    +0.155 HD
ATOM      7  O   UNL     1       3.124  -2.354  26.171  0.00  0.00    -0.270 OA
ATOM      8  C   UNL     1       5.822  -1.451  24.913  0.00  0.00    +0.043 C 
ATOM      9  C   UNL     1       4.346  -4.499  23.735  0.00  0.00    +0.043 A 
ATOM     10  C   UNL     1       4.314  -5.637  22.948  0.00  0.00    +0.027 A 
ATOM     11  C   UNL     1       5.429  -5.900  22.150  0.00  0.00    +0.041 A 
ATOM     12  C   UNL     1       6.525  -5.022  22.157  0.00  0.00    +0.139 A 
ATOM     13  F   UNL     1       7.580  -5.323  21.383  0.00  0.00    -0.204 F 
ENDROOT
BRANCH   8  14
ATOM     14  C   UNL     1       5.491  -0.369  25.747  0.00  0.00    +0.082 A 
ATOM     15  N   UNL     1       5.589  -0.531  27.104  0.00  0.00    -0.358 N 
ATOM     16  H   UNL     1       5.811  -1.402  27.571  0.00  0.00    +0.165 HD
ATOM     17  C   UNL     1       5.417   0.682  27.719  0.00  0.00    +0.087 A 
ATOM     18  C   UNL     1       5.189   1.629  26.741  0.00  0.00    +0.065 A 
ATOM     19  C   UNL     1       5.245   0.961  25.495  0.00  0.00    +0.145 A 
BRANCH  19  20
ATOM     20  O   UNL     1       5.183   1.427  24.228  0.00  0.00    -0.493 OA
ATOM     21  C   UNL     1       4.570   2.701  24.121  0.00  0.00    +0.277 C 
ENDBRANCH  19  20
ENDBRANCH   8  14
BRANCH   1  23
ATOM     22  C   UNL     1       8.682  -2.190  22.848  0.00  0.00    -0.064 C 
ATOM     23  C   UNL     1       7.637  -2.969  22.911  0.00  0.00    -0.060 C 
BRANCH  22  24
ATOM     24  C   UNL     1       9.900  -1.283  22.777  0.00  0.00    +0.208 C 
BRANCH  24  25
ATOM     25  O   UNL     1      10.454  -1.393  21.468  0.00  0.00    -0.378 OA
ATOM     26  H   UNL     1      11.218  -0.790  21.445  0.00  0.00    +0.211 HD
ENDBRANCH  24  25
BRANCH  24  27
ATOM     27  C   UNL     1       9.456   0.190  23.064  0.00  0.00    +0.120 C 
BRANCH  27  28
ATOM     28  N   UNL     1      10.470   0.899  23.892  0.00  0.00    -0.322 NA
ATOM     29  H   UNL     1      11.372   0.456  23.695  0.00  0.00    +0.119 HD
ATOM     30  H   UNL     1      10.577   1.853  23.557  0.00  0.00    +0.119 HD
ENDBRANCH  27  28
BRANCH  27  31
ATOM     31  C   UNL     1       9.165   0.970  21.751  0.00  0.00    +0.132 C 
ATOM     32  C   UNL     1       7.826   1.710  21.791  0.00  0.00    +0.039 C 
BRANCH  31  33
ATOM     33  O   UNL     1      10.204   1.932  21.527  0.00  0.00    -0.390 OA
ATOM     34  H   UNL     1      10.576   1.747  20.646  0.00  0.00    +0.210 HD
ENDBRANCH  31  33
ENDBRANCH  27  31
ENDBRANCH  24  27
ENDBRANCH  22  24
ENDBRANCH   1  23
TORSDOF 9
ENDMDL
MODEL 2
REMARK VINA RESULT:      -6.3      3.227      5.966
REMARK  Name = 
REMARK  11 active torsions:
REMARK  status: ('A' for Active; 'I' for Inactive)
REMARK    1  A    between atoms: C_2  and  C_3
REMARK    2  A    between atoms: C_2  and  O_4
REMARK    3  A    between atoms: C_2  and  C_5
REMARK    4  A    between atoms: C_5  and  N_7
REMARK    5  A    between atoms: C_5  and  C_8
REMARK    6  A    between atoms: C_8  and  O_10
REMARK    7  A    between atoms: C_8  and  C_11
REMARK    8  A    between atoms: C_12  and  C_13
REMARK    9  A    between atoms: C_21  and  C_22
REMARK   10  A    between atoms: C_23  and  O_24
REMARK   11  A    between atoms: O_24  and  C_25
REMARK                            x       y       z     vdW  Elec       q    Type
REMARK                         _______ _______ _______ _____ _____    ______ ____
ROOT
ATOM      1  C   UNL     1       9.093  -0.632  23.816  0.00  0.00    +0.070 A 
ATOM      2  C   UNL     1       8.723   0.581  24.375  0.00  0.00    +0.027 A 
ATOM      3  C   UNL     1       8.040   0.965  25.624  0.00  0.00    +0.049 C 
ATOM      4  C   UNL     1       7.874   2.462  25.584  0.00  0.00    +0.249 C 
ATOM      5  N   UNL     1       8.505   2.859  24.413  0.00  0.00    -0.281 N 
ATOM      6  H   UNL     1       8.544   3.825  24.124  0.00  0.00    +0.155 HD
ATOM      7  O   UNL     1       7.290   3.182  26.367  0.00  0.00    -0.270 OA
ATOM      8  C   UNL     1       7.688   0.105  26.589  0.00  0.00    +0.043 C 
ATOM      9  C   UNL     1       8.994   1.772  23.695  0.00  0.00    +0.043 A 
ATOM     10  C   UNL     1       9.641   1.809  22.473  0.00  0.00    +0.027 A 
ATOM     11  C   UNL     1      10.010   0.588  21.902  0.00  0.00    +0.041 A 
ATOM     12  C   UNL     1       9.730  -0.615  22.570  0.00  0.00    +0.139 A 
ATOM     13  F   UNL     1      10.092  -1.765  21.977  0.00  0.00    -0.204 F 
ENDROOT
BRANCH   8  14
ATOM     14  C   UNL     1       7.109   0.434  27.826  0.00  0.00    +0.082 A 
ATOM     15  N   UNL     1       7.860   1.127  28.740  0.00  0.00    -0.358 N 
ATOM     16  H   UNL     1       8.838   1.362  28.630  0.00  0.00    +0.165 HD
ATOM     17  C   UNL     1       7.058   1.516  29.783  0.00  0.00    +0.087 A 
ATOM     18  C   UNL     1       5.782   1.050  29.538  0.00  0.00    +0.065 A 
ATOM     19  C   UNL     1       5.818   0.374  28.297  0.00  0.00    +0.145 A 
BRANCH  19  20
ATOM     20  O   UNL     1       4.835  -0.185  27.555  0.00  0.00    -0.493 OA
ATOM     21  C   UNL     1       4.031   0.763  26.871  0.00  0.00    +0.277 C 
ENDBRANCH  19  20
ENDBRANCH   8  14
BRANCH   1  23
ATOM     22  C   UNL     1       8.568  -2.971  25.116  0.00  0.00    -0.064 C 
ATOM     23  C   UNL     1       8.850  -1.860  24.493  0.00  0.00    -0.060 C 
BRANCH  22  24
ATOM     24  C   UNL     1       8.240  -4.265  25.843  0.00  0.00    +0.208 C 
BRANCH  24  25
ATOM     25  O   UNL     1       9.440  -4.750  26.441  0.00  0.00    -0.378 OA
ATOM     26  H   UNL     1      10.154  -4.568  25.803  0.00  0.00    +0.211 HD
ENDBRANCH  24  25
BRANCH  24  27
ATOM     27  C   UNL     1       7.158  -3.976  26.936  0.00  0.00    +0.120 C 
BRANCH  27  28
ATOM     28  N   UNL     1       6.129  -3.028  26.428  0.00  0.00    -0.322 NA
ATOM     29  H   UNL     1       6.216  -2.172  26.983  0.00  0.00    +0.119 HD
ATOM     30  H   UNL     1       6.368  -2.743  25.481  0.00  0.00    +0.119 HD
ENDBRANCH  27  28
BRANCH  27  31
ATOM     31  C   UNL     1       6.502  -5.286  27.455  0.00  0.00    +0.132 C 
ATOM     32  C   UNL     1       5.712  -6.018  26.368  0.00  0.00    +0.039 C 
BRANCH  31  33
ATOM     33  O   UNL     1       7.520  -6.169  27.944  0.00  0.00    -0.390 OA
ATOM     34  H   UNL     1       8.184  -6.255  27.237  0.00  0.00    +0.210 HD
ENDBRANCH  31  33
ENDBRANCH  27  31
ENDBRANCH  24  27
ENDBRANCH  22  24
ENDBRANCH   1  23
TORSDOF 9
ENDMDL
MODEL 3
REMARK VINA RESULT:      -6.3      2.611      5.292
REMARK  Name = 
REMARK  11 active torsions:
REMARK  status: ('A' for Active; 'I' for Inactive)
REMARK    1  A    between atoms: C_2  and  C_3
REMARK    2  A    between atoms: C_2  and  O_4
REMARK    3  A    between atoms: C_2  and  C_5
REMARK    4  A    between atoms: C_5  and  N_7
REMARK    5  A    between atoms: C_5  and  C_8
REMARK    6  A    between atoms: C_8  and  O_10
REMARK    7  A    between atoms: C_8  and  C_11
REMARK    8  A    between atoms: C_12  and  C_13
REMARK    9  A    between atoms: C_21  and  C_22
REMARK   10  A    between atoms: C_23  and  O_24
REMARK   11  A    between atoms: O_24  and  C_25
REMARK                            x       y       z     vdW  Elec       q    Type
REMARK                         _______ _______ _______ _____ _____    ______ ____
ROOT
ATOM      1  C   UNL     1       8.481  -1.111  23.063  0.00  0.00    +0.070 A 
ATOM      2  C   UNL     1       7.535  -0.199  23.504  0.00  0.00    +0.027 A 
ATOM      3  C   UNL     1       6.442  -0.256  24.492  0.00  0.00    +0.049 C 
ATOM      4  C   UNL     1       5.732   1.071  24.429  0.00  0.00    +0.249 C 
ATOM      5  N   UNL     1       6.458   1.820  23.514  0.00  0.00    -0.281 N 
ATOM      6  H   UNL     1       6.202   2.765  23.268  0.00  0.00    +0.155 HD
ATOM      7  O   UNL     1       4.725   1.421  25.009  0.00  0.00    -0.270 OA
ATOM      8  C   UNL     1       6.197  -1.305  25.287  0.00  0.00    +0.043 C 
ATOM      9  C   UNL     1       7.504   1.089  22.960  0.00  0.00    +0.043 A 
ATOM     10  C   UNL     1       8.397   1.518  21.994  0.00  0.00    +0.027 A 
ATOM     11  C   UNL     1       9.348   0.600  21.542  0.00  0.00    +0.041 A 
ATOM     12  C   UNL     1       9.379  -0.700  22.071  0.00  0.00    +0.139 A 
ATOM     13  F   UNL     1      10.302  -1.552  21.597  0.00  0.00    -0.204 F 
ENDROOT
BRANCH   8  14
ATOM     14  C   UNL     1       5.219  -1.375  26.295  0.00  0.00    +0.082 A 
ATOM     15  N   UNL     1       5.374  -0.603  27.416  0.00  0.00    -0.358 N 
ATOM     16  H   UNL     1       6.185  -0.032  27.622  0.00  0.00    +0.165 HD
ATOM     17  C   UNL     1       4.231  -0.665  28.172  0.00  0.00    +0.087 A 
ATOM     18  C   UNL     1       3.341  -1.502  27.530  0.00  0.00    +0.065 A 
ATOM     19  C   UNL     1       3.966  -1.942  26.341  0.00  0.00    +0.145 A 
BRANCH  19  20
ATOM     20  O   UNL     1       3.507  -2.694  25.315  0.00  0.00    -0.493 OA
ATOM     21  C   UNL     1       2.335  -3.428  25.629  0.00  0.00    +0.277 C 
ENDBRANCH  19  20
ENDBRANCH   8  14
BRANCH   1  23
ATOM     22  C   UNL     1       8.636  -3.644  24.059  0.00  0.00    -0.064 C 
ATOM     23  C   UNL     1       8.552  -2.422  23.611  0.00  0.00    -0.060 C 
BRANCH  22  24
ATOM     24  C   UNL     1       8.732  -5.069  24.581  0.00  0.00    +0.208 C 
BRANCH  24  25
ATOM     25  O   UNL     1      10.072  -5.289  25.014  0.00  0.00    -0.378 OA
ATOM     26  H   UNL     1      10.389  -4.436  25.362  0.00  0.00    +0.211 HD
ENDBRANCH  24  25
BRANCH  24  27
ATOM     27  C   UNL     1       7.732  -5.244  25.772  0.00  0.00    +0.120 C 
BRANCH  27  28
ATOM     28  N   UNL     1       8.176  -4.461  26.957  0.00  0.00    -0.322 NA
ATOM     29  H   UNL     1       9.009  -3.938  26.670  0.00  0.00    +0.119 HD
ATOM     30  H   UNL     1       7.486  -3.744  27.169  0.00  0.00    +0.119 HD
ENDBRANCH  27  28
BRANCH  27  31
ATOM     31  C   UNL     1       6.281  -4.866  25.365  0.00  0.00    +0.132 C 
ATOM     32  C   UNL     1       5.726  -5.769  24.260  0.00  0.00    +0.039 C 
BRANCH  31  33
ATOM     33  O   UNL     1       5.421  -4.974  26.508  0.00  0.00    -0.390 OA
ATOM     34  H   UNL     1       4.522  -4.750  26.208  0.00  0.00    +0.210 HD
ENDBRANCH  31  33
ENDBRANCH  27  31
ENDBRANCH  24  27
ENDBRANCH  22  24
ENDBRANCH   1  23
TORSDOF 9
ENDMDL
MODEL 4
REMARK VINA RESULT:      -6.2      2.888      5.928
REMARK  Name = 
REMARK  11 active torsions:
REMARK  status: ('A' for Active; 'I' for Inactive)
REMARK    1  A    between atoms: C_2  and  C_3
REMARK    2  A    between atoms: C_2  and  O_4
REMARK    3  A    between atoms: C_2  and  C_5
REMARK    4  A    between atoms: C_5  and  N_7
REMARK    5  A    between atoms: C_5  and  C_8
REMARK    6  A    between atoms: C_8  and  O_10
REMARK    7  A    between atoms: C_8  and  C_11
REMARK    8  A    between atoms: C_12  and  C_13
REMARK    9  A    between atoms: C_21  and  C_22
REMARK   10  A    between atoms: C_23  and  O_24
REMARK   11  A    between atoms: O_24  and  C_25
REMARK                            x       y       z     vdW  Elec       q    Type
REMARK                         _______ _______ _______ _____ _____    ______ ____
ROOT
ATOM      1  C   UNL     1       8.690  -0.973  23.133  0.00  0.00    +0.070 A 
ATOM      2  C   UNL     1       8.361  -0.417  24.359  0.00  0.00    +0.027 A 
ATOM      3  C   UNL     1       7.466  -0.823  25.459  0.00  0.00    +0.049 C 
ATOM      4  C   UNL     1       7.506   0.285  26.479  0.00  0.00    +0.249 C 
ATOM      5  N   UNL     1       8.432   1.192  25.985  0.00  0.00    -0.281 N 
ATOM      6  H   UNL     1       8.659   2.047  26.470  0.00  0.00    +0.155 HD
ATOM      7  O   UNL     1       6.855   0.402  27.498  0.00  0.00    -0.270 OA
ATOM      8  C   UNL     1       6.797  -1.982  25.501  0.00  0.00    +0.043 C 
ATOM      9  C   UNL     1       8.929   0.801  24.746  0.00  0.00    +0.043 A 
ATOM     10  C   UNL     1       9.836   1.489  23.961  0.00  0.00    +0.027 A 
ATOM     11  C   UNL     1      10.166   0.935  22.721  0.00  0.00    +0.041 A 
ATOM     12  C   UNL     1       9.591  -0.280  22.317  0.00  0.00    +0.139 A 
ATOM     13  F   UNL     1       9.928  -0.768  21.112  0.00  0.00    -0.204 F 
ENDROOT
BRANCH   8  14
ATOM     14  C   UNL     1       5.999  -2.445  26.561  0.00  0.00    +0.082 A 
ATOM     15  N   UNL     1       4.819  -1.798  26.825  0.00  0.00    -0.358 N 
ATOM     16  H   UNL     1       4.502  -0.954  26.364  0.00  0.00    +0.165 HD
ATOM     17  C   UNL     1       4.107  -2.516  27.751  0.00  0.00    +0.087 A 
ATOM     18  C   UNL     1       4.850  -3.628  28.094  0.00  0.00    +0.065 A 
ATOM     19  C   UNL     1       6.041  -3.582  27.333  0.00  0.00    +0.145 A 
BRANCH  19  20
ATOM     20  O   UNL     1       7.061  -4.462  27.216  0.00  0.00    -0.493 OA
ATOM     21  C   UNL     1       6.818  -5.702  27.860  0.00  0.00    +0.277 C 
ENDBRANCH  19  20
ENDBRANCH   8  14
BRANCH   1  23
ATOM     22  C   UNL     1       7.702  -3.391  22.351  0.00  0.00    -0.064 C 
ATOM     23  C   UNL     1       8.146  -2.221  22.720  0.00  0.00    -0.060 C 
BRANCH  22  24
ATOM     24  C   UNL     1       7.185  -4.754  21.919  0.00  0.00    +0.208 C 
BRANCH  24  25
ATOM     25  O   UNL     1       7.920  -5.749  22.628  0.00  0.00    -0.378 OA
ATOM     26  H   UNL     1       7.633  -6.607  22.268  0.00  0.00    +0.211 HD
ENDBRANCH  24  25
BRANCH  24  27
ATOM     27  C   UNL     1       5.660  -4.851  22.255  0.00  0.00    +0.120 C 
BRANCH  27  28
ATOM     28  N   UNL     1       5.111  -6.176  21.857  0.00  0.00    -0.322 NA
ATOM     29  H   UNL     1       4.496  -6.012  21.055  0.00  0.00    +0.119 HD
ATOM     30  H   UNL     1       5.860  -6.758  21.488  0.00  0.00    +0.119 HD
ENDBRANCH  27  28
BRANCH  27  31
ATOM     31  C   UNL     1       5.383  -4.562  23.757  0.00  0.00    +0.132 C 
ATOM     32  C   UNL     1       3.899  -4.324  24.046  0.00  0.00    +0.039 C 
BRANCH  31  33
ATOM     33  O   UNL     1       5.822  -5.675  24.546  0.00  0.00    -0.390 OA
ATOM     34  H   UNL     1       6.069  -5.324  25.420  0.00  0.00    +0.210 HD
ENDBRANCH  31  33
ENDBRANCH  27  31
ENDBRANCH  24  27
ENDBRANCH  22  24
ENDBRANCH   1  23
TORSDOF 9
ENDMDL
MODEL 5
REMARK VINA RESULT:      -6.2      3.086      4.469
REMARK  Name = 
REMARK  11 active torsions:
REMARK  status: ('A' for Active; 'I' for Inactive)
REMARK    1  A    between atoms: C_2  and  C_3
REMARK    2  A    between atoms: C_2  and  O_4
REMARK    3  A    between atoms: C_2  and  C_5
REMARK    4  A    between atoms: C_5  and  N_7
REMARK    5  A    between atoms: C_5  and  C_8
REMARK    6  A    between atoms: C_8  and  O_10
REMARK    7  A    between atoms: C_8  and  C_11
REMARK    8  A    between atoms: C_12  and  C_13
REMARK    9  A    between atoms: C_21  and  C_22
REMARK   10  A    between atoms: C_23  and  O_24
REMARK   11  A    between atoms: O_24  and  C_25
REMARK                            x       y       z     vdW  Elec       q    Type
REMARK                         _______ _______ _______ _____ _____    ______ ____
ROOT
ATOM      1  C   UNL     1       6.713  -3.980  23.663  0.00  0.00    +0.070 A 
ATOM      2  C   UNL     1       5.880  -4.982  24.135  0.00  0.00    +0.027 A 
ATOM      3  C   UNL     1       5.165  -5.203  25.406  0.00  0.00    +0.049 C 
ATOM      4  C   UNL     1       4.493  -6.547  25.295  0.00  0.00    +0.249 C 
ATOM      5  N   UNL     1       4.771  -6.979  24.006  0.00  0.00    -0.281 N 
ATOM      6  H   UNL     1       4.443  -7.866  23.654  0.00  0.00    +0.155 HD
ATOM      7  O   UNL     1       3.873  -7.157  26.142  0.00  0.00    -0.270 OA
ATOM      8  C   UNL     1       5.132  -4.326  26.417  0.00  0.00    +0.043 C 
ATOM      9  C   UNL     1       5.586  -6.082  23.324  0.00  0.00    +0.043 A 
ATOM     10  C   UNL     1       6.080  -6.222  22.039  0.00  0.00    +0.027 A 
ATOM     11  C   UNL     1       6.925  -5.217  21.561  0.00  0.00    +0.041 A 
ATOM     12  C   UNL     1       7.238  -4.115  22.372  0.00  0.00    +0.139 A 
ATOM     13  F   UNL     1       8.065  -3.180  21.876  0.00  0.00    -0.204 F 
ENDROOT
BRANCH   8  14
ATOM     14  C   UNL     1       4.402  -4.459  27.611  0.00  0.00    +0.082 A 
ATOM     15  N   UNL     1       3.039  -4.321  27.567  0.00  0.00    -0.358 N 
ATOM     16  H   UNL     1       2.508  -4.051  26.749  0.00  0.00    +0.165 HD
ATOM     17  C   UNL     1       2.508  -4.681  28.779  0.00  0.00    +0.087 A 
ATOM     18  C   UNL     1       3.549  -5.038  29.613  0.00  0.00    +0.065 A 
ATOM     19  C   UNL     1       4.743  -4.904  28.867  0.00  0.00    +0.145 A 
BRANCH  19  20
ATOM     20  O   UNL     1       6.025  -5.208  29.171  0.00  0.00    -0.493 OA
ATOM     21  C   UNL     1       6.296  -6.600  29.158  0.00  0.00    +0.277 C 
ENDBRANCH  19  20
ENDBRANCH   8  14
BRANCH   1  23
ATOM     22  C   UNL     1       7.347  -1.790  25.158  0.00  0.00    -0.064 C 
ATOM     23  C   UNL     1       7.014  -2.838  24.456  0.00  0.00    -0.060 C 
BRANCH  22  24
ATOM     24  C   UNL     1       7.734  -0.569  25.977  0.00  0.00    +0.208 C 
BRANCH  24  25
ATOM     25  O   UNL     1       8.714  -0.972  26.931  0.00  0.00    -0.378 OA
ATOM     26  H   UNL     1       8.302  -1.678  27.461  0.00  0.00    +0.211 HD
ENDBRANCH  24  25
BRANCH  24  27
ATOM     27  C   UNL     1       8.316   0.525  25.019  0.00  0.00    +0.120 C 
BRANCH  27  28
ATOM     28  N   UNL     1       8.365   1.850  25.695  0.00  0.00    -0.322 NA
ATOM     29  H   UNL     1       8.071   1.698  26.665  0.00  0.00    +0.119 HD
ATOM     30  H   UNL     1       9.331   2.160  25.768  0.00  0.00    +0.119 HD
ENDBRANCH  27  28
BRANCH  27  31
ATOM     31  C   UNL     1       9.715   0.125  24.473  0.00  0.00    +0.132 C 
ATOM     32  C   UNL     1      10.013   0.751  23.108  0.00  0.00    +0.039 C 
BRANCH  31  33
ATOM     33  O   UNL     1      10.727   0.553  25.395  0.00  0.00    -0.390 OA
ATOM     34  H   UNL     1      10.418   0.311  26.287  0.00  0.00    +0.210 HD
ENDBRANCH  31  33
ENDBRANCH  27  31
ENDBRANCH  24  27
ENDBRANCH  22  24
ENDBRANCH   1  23
TORSDOF 9
ENDMDL
MODEL 6
REMARK VINA RESULT:      -6.1      2.473      5.338
REMARK  Name = 
REMARK  11 active torsions:
REMARK  status: ('A' for Active; 'I' for Inactive)
REMARK    1  A    between atoms: C_2  and  C_3
REMARK    2  A    between atoms: C_2  and  O_4
REMARK    3  A    between atoms: C_2  and  C_5
REMARK    4  A    between atoms: C_5  and  N_7
REMARK    5  A    between atoms: C_5  and  C_8
REMARK    6  A    between atoms: C_8  and  O_10
REMARK    7  A    between atoms: C_8  and  C_11
REMARK    8  A    between atoms: C_12  and  C_13
REMARK    9  A    between atoms: C_21  and  C_22
REMARK   10  A    between atoms: C_23  and  O_24
REMARK   11  A    between atoms: O_24  and  C_25
REMARK                            x       y       z     vdW  Elec       q    Type
REMARK                         _______ _______ _______ _____ _____    ______ ____
ROOT
ATOM      1  C   UNL     1       5.973   0.360  24.922  0.00  0.00    +0.070 A 
ATOM      2  C   UNL     1       5.403  -0.873  25.198  0.00  0.00    +0.027 A 
ATOM      3  C   UNL     1       5.509  -2.209  24.582  0.00  0.00    +0.049 C 
ATOM      4  C   UNL     1       4.553  -3.105  25.326  0.00  0.00    +0.249 C 
ATOM      5  N   UNL     1       4.027  -2.306  26.333  0.00  0.00    -0.281 N 
ATOM      6  H   UNL     1       3.345  -2.652  26.991  0.00  0.00    +0.155 HD
ATOM      7  O   UNL     1       4.259  -4.260  25.095  0.00  0.00    -0.270 OA
ATOM      8  C   UNL     1       6.339  -2.514  23.576  0.00  0.00    +0.043 C 
ATOM      9  C   UNL     1       4.506  -1.002  26.262  0.00  0.00    +0.043 A 
ATOM     10  C   UNL     1       4.160   0.054  27.086  0.00  0.00    +0.027 A 
ATOM     11  C   UNL     1       4.728   1.300  26.808  0.00  0.00    +0.041 A 
ATOM     12  C   UNL     1       5.619   1.445  25.733  0.00  0.00    +0.139 A 
ATOM     13  F   UNL     1       6.130   2.664  25.496  0.00  0.00    -0.204 F 
ENDROOT
BRANCH   8  14
ATOM     14  C   UNL     1       6.530  -3.787  23.013  0.00  0.00    +0.082 A 
ATOM     15  N   UNL     1       5.907  -4.082  21.828  0.00  0.00    -0.358 N 
ATOM     16  H   UNL     1       5.249  -3.478  21.351  0.00  0.00    +0.165 HD
ATOM     17  C   UNL     1       6.376  -5.281  21.355  0.00  0.00    +0.087 A 
ATOM     18  C   UNL     1       7.299  -5.765  22.260  0.00  0.00    +0.065 A 
ATOM     19  C   UNL     1       7.399  -4.814  23.302  0.00  0.00    +0.145 A 
BRANCH  19  20
ATOM     20  O   UNL     1       8.213  -4.751  24.379  0.00  0.00    -0.493 OA
ATOM     21  C   UNL     1       7.628  -5.268  25.564  0.00  0.00    +0.277 C 
ENDBRANCH  19  20
ENDBRANCH   8  14
BRANCH   1  23
ATOM     22  C   UNL     1       7.798   0.624  22.913  0.00  0.00    -0.064 C 
ATOM     23  C   UNL     1       6.906   0.520  23.860  0.00  0.00    -0.060 C 
BRANCH  22  24
ATOM     24  C   UNL     1       8.837   0.747  21.811  0.00  0.00    +0.208 C 
BRANCH  24  25
ATOM     25  O   UNL     1       8.883   2.111  21.400  0.00  0.00    -0.378 OA
ATOM     26  H   UNL     1       9.380   2.586  22.089  0.00  0.00    +0.211 HD
ENDBRANCH  24  25
BRANCH  24  27
ATOM     27  C   UNL     1      10.228   0.292  22.366  0.00  0.00    +0.120 C 
BRANCH  27  28
ATOM     28  N   UNL     1      10.452   0.827  23.738  0.00  0.00    -0.322 NA
ATOM     29  H   UNL     1       9.527   0.945  24.163  0.00  0.00    +0.119 HD
ATOM     30  H   UNL     1      10.906   0.118  24.309  0.00  0.00    +0.119 HD
ENDBRANCH  27  28
BRANCH  27  31
ATOM     31  C   UNL     1      10.380  -1.254  22.339  0.00  0.00    +0.132 C 
ATOM     32  C   UNL     1      10.009  -1.905  23.674  0.00  0.00    +0.039 C 
BRANCH  31  33
ATOM     33  O   UNL     1       9.530  -1.799  21.321  0.00  0.00    -0.390 OA
ATOM     34  H   UNL     1       9.293  -1.065  20.726  0.00  0.00    +0.210 HD
ENDBRANCH  31  33
ENDBRANCH  27  31
ENDBRANCH  24  27
ENDBRANCH  22  24
ENDBRANCH   1  23
TORSDOF 9
ENDMDL
MODEL 7
REMARK VINA RESULT:      -6.0      2.791      7.331
REMARK  Name = 
REMARK  11 active torsions:
REMARK  status: ('A' for Active; 'I' for Inactive)
REMARK    1  A    between atoms: C_2  and  C_3
REMARK    2  A    between atoms: C_2  and  O_4
REMARK    3  A    between atoms: C_2  and  C_5
REMARK    4  A    between atoms: C_5  and  N_7
REMARK    5  A    between atoms: C_5  and  C_8
REMARK    6  A    between atoms: C_8  and  O_10
REMARK    7  A    between atoms: C_8  and  C_11
REMARK    8  A    between atoms: C_12  and  C_13
REMARK    9  A    between atoms: C_21  and  C_22
REMARK   10  A    between atoms: C_23  and  O_24
REMARK   11  A    between atoms: O_24  and  C_25
REMARK                            x       y       z     vdW  Elec       q    Type
REMARK                         _______ _______ _______ _____ _____    ______ ____
ROOT
ATOM      1  C   UNL     1       8.124   1.544  24.629  0.00  0.00    +0.070 A 
ATOM      2  C   UNL     1       8.708   0.771  23.638  0.00  0.00    +0.027 A 
ATOM      3  C   UNL     1       8.510  -0.615  23.173  0.00  0.00    +0.049 C 
ATOM      4  C   UNL     1       9.538  -0.861  22.099  0.00  0.00    +0.249 C 
ATOM      5  N   UNL     1      10.193   0.353  21.947  0.00  0.00    -0.281 N 
ATOM      6  H   UNL     1      10.945   0.479  21.287  0.00  0.00    +0.155 HD
ATOM      7  O   UNL     1       9.787  -1.892  21.508  0.00  0.00    -0.270 OA
ATOM      8  C   UNL     1       7.561  -1.439  23.634  0.00  0.00    +0.043 C 
ATOM      9  C   UNL     1       9.726   1.308  22.844  0.00  0.00    +0.043 A 
ATOM     10  C   UNL     1      10.183   2.606  22.987  0.00  0.00    +0.027 A 
ATOM     11  C   UNL     1       9.602   3.388  23.989  0.00  0.00    +0.041 A 
ATOM     12  C   UNL     1       8.589   2.854  24.800  0.00  0.00    +0.139 A 
ATOM     13  F   UNL     1       8.069   3.638  25.759  0.00  0.00    -0.204 F 
ENDROOT
BRANCH   8  14
ATOM     14  C   UNL     1       7.286  -2.735  23.167  0.00  0.00    +0.082 A 
ATOM     15  N   UNL     1       6.297  -2.902  22.232  0.00  0.00    -0.358 N 
ATOM     16  H   UNL     1       5.685  -2.169  21.897  0.00  0.00    +0.165 HD
ATOM     17  C   UNL     1       6.324  -4.193  21.769  0.00  0.00    +0.087 A 
ATOM     18  C   UNL     1       7.333  -4.863  22.431  0.00  0.00    +0.065 A 
ATOM     19  C   UNL     1       7.943  -3.936  23.307  0.00  0.00    +0.145 A 
BRANCH  19  20
ATOM     20  O   UNL     1       9.026  -4.044  24.110  0.00  0.00    -0.493 OA
ATOM     21  C   UNL     1       8.887  -5.028  25.122  0.00  0.00    +0.277 C 
ENDBRANCH  19  20
ENDBRANCH   8  14
BRANCH   1  23
ATOM     22  C   UNL     1       6.082   0.623  26.182  0.00  0.00    -0.064 C 
ATOM     23  C   UNL     1       7.071   1.034  25.438  0.00  0.00    -0.060 C 
BRANCH  22  24
ATOM     24  C   UNL     1       4.929   0.143  27.049  0.00  0.00    +0.208 C 
BRANCH  24  25
ATOM     25  O   UNL     1       3.713   0.425  26.361  0.00  0.00    -0.378 OA
ATOM     26  H   UNL     1       3.080  -0.262  26.636  0.00  0.00    +0.211 HD
ENDBRANCH  24  25
BRANCH  24  27
ATOM     27  C   UNL     1       5.080  -1.396  27.293  0.00  0.00    +0.120 C 
BRANCH  27  28
ATOM     28  N   UNL     1       4.161  -1.855  28.370  0.00  0.00    -0.322 NA
ATOM     29  H   UNL     1       3.785  -1.013  28.816  0.00  0.00    +0.119 HD
ATOM     30  H   UNL     1       3.350  -2.308  27.955  0.00  0.00    +0.119 HD
ENDBRANCH  27  28
BRANCH  27  31
ATOM     31  C   UNL     1       4.859  -2.209  25.987  0.00  0.00    +0.132 C 
ATOM     32  C   UNL     1       5.388  -3.642  26.090  0.00  0.00    +0.039 C 
BRANCH  31  33
ATOM     33  O   UNL     1       3.457  -2.267  25.693  0.00  0.00    -0.390 OA
ATOM     34  H   UNL     1       3.330  -2.997  25.061  0.00  0.00    +0.210 HD
ENDBRANCH  31  33
ENDBRANCH  27  31
ENDBRANCH  24  27
ENDBRANCH  22  24
ENDBRANCH   1  23
TORSDOF 9
ENDMDL
MODEL 8
REMARK VINA RESULT:      -6.0      2.612      5.600
REMARK  Name = 
REMARK  11 active torsions:
REMARK  status: ('A' for Active; 'I' for Inactive)
REMARK    1  A    between atoms: C_2  and  C_3
REMARK    2  A    between atoms: C_2  and  O_4
REMARK    3  A    between atoms: C_2  and  C_5
REMARK    4  A    between atoms: C_5  and  N_7
REMARK    5  A    between atoms: C_5  and  C_8
REMARK    6  A    between atoms: C_8  and  O_10
REMARK    7  A    between atoms: C_8  and  C_11
REMARK    8  A    between atoms: C_12  and  C_13
REMARK    9  A    between atoms: C_21  and  C_22
REMARK   10  A    between atoms: C_23  and  O_24
REMARK   11  A    between atoms: O_24  and  C_25
REMARK                            x       y       z     vdW  Elec       q    Type
REMARK                         _______ _______ _______ _____ _____    ______ ____
ROOT
ATOM      1  C   UNL     1       8.148   0.156  22.929  0.00  0.00    +0.070 A 
ATOM      2  C   UNL     1       8.084   1.066  23.972  0.00  0.00    +0.027 A 
ATOM      3  C   UNL     1       7.207   1.213  25.148  0.00  0.00    +0.049 C 
ATOM      4  C   UNL     1       7.629   2.479  25.847  0.00  0.00    +0.249 C 
ATOM      5  N   UNL     1       8.724   2.936  25.125  0.00  0.00    -0.281 N 
ATOM      6  H   UNL     1       9.214   3.783  25.371  0.00  0.00    +0.155 HD
ATOM      7  O   UNL     1       7.122   3.023  26.806  0.00  0.00    -0.270 OA
ATOM      8  C   UNL     1       6.254   0.339  25.495  0.00  0.00    +0.043 C 
ATOM      9  C   UNL     1       8.992   2.128  24.025  0.00  0.00    +0.043 A 
ATOM     10  C   UNL     1       9.984   2.316  23.080  0.00  0.00    +0.027 A 
ATOM     11  C   UNL     1      10.048   1.404  22.024  0.00  0.00    +0.041 A 
ATOM     12  C   UNL     1       9.133   0.342  21.953  0.00  0.00    +0.139 A 
ATOM     13  F   UNL     1       9.225  -0.502  20.912  0.00  0.00    -0.204 F 
ENDROOT
BRANCH   8  14
ATOM     14  C   UNL     1       5.449   0.397  26.646  0.00  0.00    +0.082 A 
ATOM     15  N   UNL     1       6.001   0.052  27.852  0.00  0.00    -0.358 N 
ATOM     16  H   UNL     1       6.934  -0.321  27.979  0.00  0.00    +0.165 HD
ATOM     17  C   UNL     1       5.123   0.365  28.858  0.00  0.00    +0.087 A 
ATOM     18  C   UNL     1       3.989   0.902  28.284  0.00  0.00    +0.065 A 
ATOM     19  C   UNL     1       4.203   0.928  26.886  0.00  0.00    +0.145 A 
BRANCH  19  20
ATOM     20  O   UNL     1       3.458   1.433  25.877  0.00  0.00    -0.493 OA
ATOM     21  C   UNL     1       3.544   2.843  25.759  0.00  0.00    +0.277 C 
ENDBRANCH  19  20
ENDBRANCH   8  14
BRANCH   1  23
ATOM     22  C   UNL     1       6.477  -1.993  22.766  0.00  0.00    -0.064 C 
ATOM     23  C   UNL     1       7.253  -0.948  22.858  0.00  0.00    -0.060 C 
BRANCH  22  24
ATOM     24  C   UNL     1       5.572  -3.210  22.659  0.00  0.00    +0.208 C 
BRANCH  24  25
ATOM     25  O   UNL     1       5.577  -3.642  21.300  0.00  0.00    -0.378 OA
ATOM     26  H   UNL     1       5.531  -4.615  21.325  0.00  0.00    +0.211 HD
ENDBRANCH  24  25
BRANCH  24  27
ATOM     27  C   UNL     1       6.118  -4.337  23.598  0.00  0.00    +0.120 C 
BRANCH  27  28
ATOM     28  N   UNL     1       5.211  -5.517  23.594  0.00  0.00    -0.322 NA
ATOM     29  H   UNL     1       4.306  -5.192  23.240  0.00  0.00    +0.119 HD
ATOM     30  H   UNL     1       5.529  -6.189  22.900  0.00  0.00    +0.119 HD
ENDBRANCH  27  28
BRANCH  27  31
ATOM     31  C   UNL     1       7.569  -4.747  23.220  0.00  0.00    +0.132 C 
ATOM     32  C   UNL     1       8.412  -5.119  24.442  0.00  0.00    +0.039 C 
BRANCH  31  33
ATOM     33  O   UNL     1       7.530  -5.878  22.339  0.00  0.00    -0.390 OA
ATOM     34  H   UNL     1       6.829  -5.705  21.685  0.00  0.00    +0.210 HD
ENDBRANCH  31  33
ENDBRANCH  27  31
ENDBRANCH  24  27
ENDBRANCH  22  24
ENDBRANCH   1  23
TORSDOF 9
ENDMDL
MODEL 9
REMARK VINA RESULT:      -6.0      3.073      6.998
REMARK  Name = 
REMARK  11 active torsions:
REMARK  status: ('A' for Active; 'I' for Inactive)
REMARK    1  A    between atoms: C_2  and  C_3
REMARK    2  A    between atoms: C_2  and  O_4
REMARK    3  A    between atoms: C_2  and  C_5
REMARK    4  A    between atoms: C_5  and  N_7
REMARK    5  A    between atoms: C_5  and  C_8
REMARK    6  A    between atoms: C_8  and  O_10
REMARK    7  A    between atoms: C_8  and  C_11
REMARK    8  A    between atoms: C_12  and  C_13
REMARK    9  A    between atoms: C_21  and  C_22
REMARK   10  A    between atoms: C_23  and  O_24
REMARK   11  A    between atoms: O_24  and  C_25
REMARK                            x       y       z     vdW  Elec       q    Type
REMARK                         _______ _______ _______ _____ _____    ______ ____
ROOT
ATOM      1  C   UNL     1       8.476   1.391  25.008  0.00  0.00    +0.070 A 
ATOM      2  C   UNL     1       9.064   0.270  24.443  0.00  0.00    +0.027 A 
ATOM      3  C   UNL     1       8.917  -1.181  24.661  0.00  0.00    +0.049 C 
ATOM      4  C   UNL     1       9.921  -1.857  23.765  0.00  0.00    +0.249 C 
ATOM      5  N   UNL     1      10.514  -0.824  23.051  0.00  0.00    -0.281 N 
ATOM      6  H   UNL     1      11.239  -0.989  22.370  0.00  0.00    +0.155 HD
ATOM      7  O   UNL     1      10.198  -3.036  23.689  0.00  0.00    -0.270 OA
ATOM      8  C   UNL     1       8.021  -1.734  25.489  0.00  0.00    +0.043 C 
ATOM      9  C   UNL     1      10.031   0.420  23.445  0.00  0.00    +0.043 A 
ATOM     10  C   UNL     1      10.432   1.654  22.966  0.00  0.00    +0.027 A 
ATOM     11  C   UNL     1       9.846   2.787  23.537  0.00  0.00    +0.041 A 
ATOM     12  C   UNL     1       8.885   2.649  24.550  0.00  0.00    +0.139 A 
ATOM     13  F   UNL     1       8.359   3.767  25.078  0.00  0.00    -0.204 F 
ENDROOT
BRANCH   8  14
ATOM     14  C   UNL     1       7.792  -3.109  25.669  0.00  0.00    +0.082 A 
ATOM     15  N   UNL     1       8.603  -3.804  26.528  0.00  0.00    -0.358 N 
ATOM     16  H   UNL     1       9.416  -3.423  26.996  0.00  0.00    +0.165 HD
ATOM     17  C   UNL     1       8.096  -5.064  26.712  0.00  0.00    +0.087 A 
ATOM     18  C   UNL     1       6.953  -5.180  25.946  0.00  0.00    +0.065 A 
ATOM     19  C   UNL     1       6.761  -3.940  25.295  0.00  0.00    +0.145 A 
BRANCH  19  20
ATOM     20  O   UNL     1       5.757  -3.488  24.510  0.00  0.00    -0.493 OA
ATOM     21  C   UNL     1       5.490  -4.321  23.394  0.00  0.00    +0.277 C 
ENDBRANCH  19  20
ENDBRANCH   8  14
BRANCH   1  23
ATOM     22  C   UNL     1       6.592   1.124  26.961  0.00  0.00    -0.064 C 
ATOM     23  C   UNL     1       7.473   1.272  26.011  0.00  0.00    -0.060 C 
BRANCH  22  24
ATOM     24  C   UNL     1       5.564   0.952  28.068  0.00  0.00    +0.208 C 
BRANCH  24  25
ATOM     25  O   UNL     1       5.157   2.250  28.495  0.00  0.00    -0.378 OA
ATOM     26  H   UNL     1       5.963   2.796  28.514  0.00  0.00    +0.211 HD
ENDBRANCH  24  25
BRANCH  24  27
ATOM     27  C   UNL     1       4.343   0.147  27.510  0.00  0.00    +0.120 C 
BRANCH  27  28
ATOM     28  N   UNL     1       3.620   0.932  26.472  0.00  0.00    -0.322 NA
ATOM     29  H   UNL     1       4.304   1.568  26.052  0.00  0.00    +0.119 HD
ATOM     30  H   UNL     1       3.343   0.317  25.711  0.00  0.00    +0.119 HD
ENDBRANCH  27  28
BRANCH  27  31
ATOM     31  C   UNL     1       4.774  -1.241  26.959  0.00  0.00    +0.132 C 
ATOM     32  C   UNL     1       4.438  -2.384  27.921  0.00  0.00    +0.039 C 
BRANCH  31  33
ATOM     33  O   UNL     1       4.105  -1.489  25.715  0.00  0.00    -0.390 OA
ATOM     34  H   UNL     1       3.426  -0.798  25.615  0.00  0.00    +0.210 HD
ENDBRANCH  31  33
ENDBRANCH  27  31
ENDBRANCH  24  27
ENDBRANCH  22  24
ENDBRANCH   1  23
TORSDOF 9
ENDMDL
