MODEL 1
REMARK VINA RESULT:      -5.7      0.000      0.000
REMARK  Name = 
REMARK  13 active torsions:
REMARK  status: ('A' for Active; 'I' for Inactive)
REMARK    1  A    between atoms: O_1  and  C_2
REMARK    2  A    between atoms: C_4  and  O_6
REMARK    3  A    between atoms: C_7  and  O_8
REMARK    4  A    between atoms: C_7  and  C_9
REMARK    5  A    between atoms: C_9  and  O_10
REMARK    6  A    between atoms: O_10  and  P_11
REMARK    7  A    between atoms: P_11  and  O_12
REMARK    8  A    between atoms: P_11  and  O_13
REMARK    9  A    between atoms: C_16  and  C_18
REMARK   10  A    between atoms: C_18  and  O_19
REMARK   11  A    between atoms: O_19  and  P_20
REMARK   12  A    between atoms: P_20  and  O_21
REMARK   13  A    between atoms: P_20  and  O_22
REMARK                            x       y       z     vdW  Elec       q    Type
REMARK                         _______ _______ _______ _____ _____    ______ ____
ROOT
ATOM      1  C   UNL     1      10.387  -1.351  22.995  0.00  0.00    +0.179 C 
ATOM      2  C   UNL     1      10.239  -0.434  24.221  0.00  0.00    +0.179 C 
ATOM      3  O   UNL     1       8.901  -0.619  24.730  0.00  0.00    -0.336 OA
ATOM      4  C   UNL     1       8.301  -1.720  24.050  0.00  0.00    +0.221 C 
ATOM      5  C   UNL     1       9.418  -2.485  23.301  0.00  0.00    +0.207 C 
ENDROOT
BRANCH   1   6
ATOM      6  O   UNL     1      10.034  -0.691  21.778  0.00  0.00    -0.386 OA
ATOM      7  H   UNL     1       9.062  -0.694  21.702  0.00  0.00    +0.210 HD
ENDBRANCH   1   6
BRANCH   4   8
ATOM      8  O   UNL     1       7.455  -1.099  23.083  0.00  0.00    -0.361 OA
ATOM      9  H   UNL     1       7.696  -1.563  22.259  0.00  0.00    +0.213 HD
ENDBRANCH   4   8
BRANCH   5  10
ATOM     10  O   UNL     1      10.072  -3.501  24.057  0.00  0.00    -0.384 OA
ATOM     11  H   UNL     1      10.304  -3.108  24.917  0.00  0.00    +0.210 HD
ENDBRANCH   5  10
BRANCH   2  12
ATOM     12  C   UNL     1      10.438   1.042  23.920  0.00  0.00    +0.206 C 
BRANCH  12  13
ATOM     13  O   UNL     1       9.165   1.655  23.746  0.00  0.00    -0.284 OA
BRANCH  13  14
ATOM     14  P   UNL     1       8.814   2.238  22.302  0.00  0.00    +0.472 P 
ATOM     15  O   UNL     1       7.742   1.528  21.550  0.00  0.00    -0.228 OA
BRANCH  14  16
ATOM     16  O   UNL     1      10.207   2.283  21.525  0.00  0.00    -0.303 OA
ATOM     17  H   UNL     1      10.681   3.112  21.711  0.00  0.00    +0.222 HD
ENDBRANCH  14  16
BRANCH  14  18
ATOM     18  O   UNL     1       8.484   3.774  22.575  0.00  0.00    -0.303 OA
ATOM     19  H   UNL     1       7.699   3.859  23.145  0.00  0.00    +0.222 HD
ENDBRANCH  14  18
ENDBRANCH  13  14
ENDBRANCH  12  13
ENDBRANCH   2  12
BRANCH   4  20
ATOM     20  C   UNL     1       7.474  -2.541  25.053  0.00  0.00    +0.239 C 
BRANCH  20  21
ATOM     21  O   UNL     1       8.288  -3.027  26.111  0.00  0.00    -0.281 OA
BRANCH  21  22
ATOM     22  P   UNL     1       8.157  -4.560  26.526  0.00  0.00    +0.473 P 
ATOM     23  O   UNL     1       7.222  -4.866  27.638  0.00  0.00    -0.228 OA
BRANCH  22  24
ATOM     24  O   UNL     1       9.688  -4.952  26.760  0.00  0.00    -0.303 OA
ATOM     25  H   UNL     1      10.297  -4.233  26.528  0.00  0.00    +0.222 HD
ENDBRANCH  22  24
BRANCH  22  26
ATOM     26  O   UNL     1       7.844  -5.225  25.110  0.00  0.00    -0.303 OA
ATOM     27  H   UNL     1       7.752  -6.188  25.196  0.00  0.00    +0.222 HD
ENDBRANCH  22  26
ENDBRANCH  21  22
ENDBRANCH  20  21
ENDBRANCH   4  20
TORSDOF 13
ENDMDL
MODEL 2
REMARK VINA RESULT:      -5.6      1.693      6.283
REMARK  Name = 
REMARK  13 active torsions:
REMARK  status: ('A' for Active; 'I' for Inactive)
REMARK    1  A    between atoms: O_1  and  C_2
REMARK    2  A    between atoms: C_4  and  O_6
REMARK    3  A    between atoms: C_7  and  O_8
REMARK    4  A    between atoms: C_7  and  C_9
REMARK    5  A    between atoms: C_9  and  O_10
REMARK    6  A    between atoms: O_10  and  P_11
REMARK    7  A    between atoms: P_11  and  O_12
REMARK    8  A    between atoms: P_11  and  O_13
REMARK    9  A    between atoms: C_16  and  C_18
REMARK   10  A    between atoms: C_18  and  O_19
REMARK   11  A    between atoms: O_19  and  P_20
REMARK   12  A    between atoms: P_20  and  O_21
REMARK   13  A    between atoms: P_20  and  O_22
REMARK                            x       y       z     vdW  Elec       q    Type
REMARK                         _______ _______ _______ _____ _____    ______ ____
ROOT
ATOM      1  C   UNL     1       9.358  -0.380  21.479  0.00  0.00    +0.179 C 
ATOM      2  C   UNL     1       8.123  -0.544  22.380  0.00  0.00    +0.179 C 
ATOM      3  O   UNL     1       8.450   0.039  23.660  0.00  0.00    -0.336 OA
ATOM      4  C   UNL     1       9.693   0.728  23.543  0.00  0.00    +0.221 C 
ATOM      5  C   UNL     1      10.020   0.871  22.038  0.00  0.00    +0.207 C 
ENDROOT
BRANCH   1   6
ATOM      6  O   UNL     1      10.239  -1.503  21.556  0.00  0.00    -0.386 OA
ATOM      7  H   UNL     1      10.610  -1.658  20.667  0.00  0.00    +0.210 HD
ENDBRANCH   1   6
BRANCH   4   8
ATOM      8  O   UNL     1      10.635  -0.174  24.125  0.00  0.00    -0.361 OA
ATOM      9  H   UNL     1      11.295   0.430  24.515  0.00  0.00    +0.213 HD
ENDBRANCH   4   8
BRANCH   5  10
ATOM     10  O   UNL     1       9.489   2.034  21.407  0.00  0.00    -0.384 OA
ATOM     11  H   UNL     1      10.029   2.787  21.705  0.00  0.00    +0.210 HD
ENDBRANCH   5  10
BRANCH   2  12
ATOM     12  C   UNL     1       7.706  -1.988  22.605  0.00  0.00    +0.206 C 
BRANCH  12  13
ATOM     13  O   UNL     1       7.863  -2.307  23.984  0.00  0.00    -0.284 OA
BRANCH  13  14
ATOM     14  P   UNL     1       8.793  -3.550  24.356  0.00  0.00    +0.472 P 
ATOM     15  O   UNL     1       8.406  -4.861  23.762  0.00  0.00    -0.228 OA
BRANCH  14  16
ATOM     16  O   UNL     1       8.838  -3.568  25.952  0.00  0.00    -0.303 OA
ATOM     17  H   UNL     1       9.136  -2.709  26.300  0.00  0.00    +0.222 HD
ENDBRANCH  14  16
BRANCH  14  18
ATOM     18  O   UNL     1      10.258  -3.075  23.942  0.00  0.00    -0.303 OA
ATOM     19  H   UNL     1      10.736  -3.795  23.493  0.00  0.00    +0.222 HD
ENDBRANCH  14  18
ENDBRANCH  13  14
ENDBRANCH  12  13
ENDBRANCH   2  12
BRANCH   4  20
ATOM     20  C   UNL     1       9.622   2.037  24.347  0.00  0.00    +0.239 C 
BRANCH  20  21
ATOM     21  O   UNL     1       8.455   2.777  24.016  0.00  0.00    -0.281 OA
BRANCH  21  22
ATOM     22  P   UNL     1       8.608   4.331  23.697  0.00  0.00    +0.473 P 
ATOM     23  O   UNL     1       8.121   5.271  24.737  0.00  0.00    -0.228 OA
BRANCH  22  24
ATOM     24  O   UNL     1       7.899   4.426  22.268  0.00  0.00    -0.303 OA
ATOM     25  H   UNL     1       7.535   5.308  22.091  0.00  0.00    +0.222 HD
ENDBRANCH  22  24
BRANCH  22  26
ATOM     26  O   UNL     1      10.156   4.404  23.318  0.00  0.00    -0.303 OA
ATOM     27  H   UNL     1      10.301   4.102  22.406  0.00  0.00    +0.222 HD
ENDBRANCH  22  26
ENDBRANCH  21  22
ENDBRANCH  20  21
ENDBRANCH   4  20
TORSDOF 13
ENDMDL
MODEL 3
REMARK VINA RESULT:      -5.5      1.712      2.590
REMARK  Name = 
REMARK  13 active torsions:
REMARK  status: ('A' for Active; 'I' for Inactive)
REMARK    1  A    between atoms: O_1  and  C_2
REMARK    2  A    between atoms: C_4  and  O_6
REMARK    3  A    between atoms: C_7  and  O_8
REMARK    4  A    between atoms: C_7  and  C_9
REMARK    5  A    between atoms: C_9  and  O_10
REMARK    6  A    between atoms: O_10  and  P_11
REMARK    7  A    between atoms: P_11  and  O_12
REMARK    8  A    between atoms: P_11  and  O_13
REMARK    9  A    between atoms: C_16  and  C_18
REMARK   10  A    between atoms: C_18  and  O_19
REMARK   11  A    between atoms: O_19  and  P_20
REMARK   12  A    between atoms: P_20  and  O_21
REMARK   13  A    between atoms: P_20  and  O_22
REMARK                            x       y       z     vdW  Elec       q    Type
REMARK                         _______ _______ _______ _____ _____    ______ ____
ROOT
ATOM      1  C   UNL     1      10.177   0.640  21.903  0.00  0.00    +0.179 C 
ATOM      2  C   UNL     1      10.195   0.532  23.437  0.00  0.00    +0.179 C 
ATOM      3  O   UNL     1       8.864   0.154  23.851  0.00  0.00    -0.336 OA
ATOM      4  C   UNL     1       8.104  -0.182  22.692  0.00  0.00    +0.221 C 
ATOM      5  C   UNL     1       9.085  -0.343  21.507  0.00  0.00    +0.207 C 
ENDROOT
BRANCH   1   6
ATOM      6  O   UNL     1       9.865   1.961  21.455  0.00  0.00    -0.386 OA
ATOM      7  H   UNL     1       9.469   2.448  22.201  0.00  0.00    +0.210 HD
ENDBRANCH   1   6
BRANCH   4   8
ATOM      8  O   UNL     1       7.307   0.980  22.463  0.00  0.00    -0.361 OA
ATOM      9  H   UNL     1       6.489   0.778  22.957  0.00  0.00    +0.213 HD
ENDBRANCH   4   8
BRANCH   5  10
ATOM     10  O   UNL     1       9.632  -1.649  21.341  0.00  0.00    -0.384 OA
ATOM     11  H   UNL     1      10.566  -1.598  21.611  0.00  0.00    +0.210 HD
ENDBRANCH   5  10
BRANCH   2  12
ATOM     12  C   UNL     1      10.568   1.823  24.146  0.00  0.00    +0.206 C 
BRANCH  12  13
ATOM     13  O   UNL     1       9.379   2.536  24.468  0.00  0.00    -0.284 OA
BRANCH  13  14
ATOM     14  P   UNL     1       9.242   4.032  23.929  0.00  0.00    +0.472 P 
ATOM     15  O   UNL     1       8.849   5.059  24.934  0.00  0.00    -0.228 OA
BRANCH  14  16
ATOM     16  O   UNL     1       8.232   3.936  22.697  0.00  0.00    -0.303 OA
ATOM     17  H   UNL     1       8.079   4.814  22.304  0.00  0.00    +0.222 HD
ENDBRANCH  14  16
BRANCH  14  18
ATOM     18  O   UNL     1      10.650   4.326  23.241  0.00  0.00    -0.303 OA
ATOM     19  H   UNL     1      10.592   5.107  22.663  0.00  0.00    +0.222 HD
ENDBRANCH  14  18
ENDBRANCH  13  14
ENDBRANCH  12  13
ENDBRANCH   2  12
BRANCH   4  20
ATOM     20  C   UNL     1       7.217  -1.399  23.006  0.00  0.00    +0.239 C 
BRANCH  20  21
ATOM     21  O   UNL     1       7.628  -2.033  24.209  0.00  0.00    -0.281 OA
BRANCH  21  22
ATOM     22  P   UNL     1       8.349  -3.451  24.111  0.00  0.00    +0.473 P 
ATOM     23  O   UNL     1       8.079  -4.408  25.213  0.00  0.00    -0.228 OA
BRANCH  22  24
ATOM     24  O   UNL     1       9.873  -3.011  23.912  0.00  0.00    -0.303 OA
ATOM     25  H   UNL     1       9.960  -2.093  23.610  0.00  0.00    +0.222 HD
ENDBRANCH  22  24
BRANCH  22  26
ATOM     26  O   UNL     1       7.925  -3.897  22.639  0.00  0.00    -0.303 OA
ATOM     27  H   UNL     1       8.424  -4.685  22.363  0.00  0.00    +0.222 HD
ENDBRANCH  22  26
ENDBRANCH  21  22
ENDBRANCH  20  21
ENDBRANCH   4  20
TORSDOF 13
ENDMDL
MODEL 4
REMARK VINA RESULT:      -5.3      1.530      6.346
REMARK  Name = 
REMARK  13 active torsions:
REMARK  status: ('A' for Active; 'I' for Inactive)
REMARK    1  A    between atoms: O_1  and  C_2
REMARK    2  A    between atoms: C_4  and  O_6
REMARK    3  A    between atoms: C_7  and  O_8
REMARK    4  A    between atoms: C_7  and  C_9
REMARK    5  A    between atoms: C_9  and  O_10
REMARK    6  A    between atoms: O_10  and  P_11
REMARK    7  A    between atoms: P_11  and  O_12
REMARK    8  A    between atoms: P_11  and  O_13
REMARK    9  A    between atoms: C_16  and  C_18
REMARK   10  A    between atoms: C_18  and  O_19
REMARK   11  A    between atoms: O_19  and  P_20
REMARK   12  A    between atoms: P_20  and  O_21
REMARK   13  A    between atoms: P_20  and  O_22
REMARK                            x       y       z     vdW  Elec       q    Type
REMARK                         _______ _______ _______ _____ _____    ______ ____
ROOT
ATOM      1  C   UNL     1       6.374  -2.016  24.200  0.00  0.00    +0.179 C 
ATOM      2  C   UNL     1       7.509  -1.788  25.212  0.00  0.00    +0.179 C 
ATOM      3  O   UNL     1       8.710  -1.535  24.453  0.00  0.00    -0.336 OA
ATOM      4  C   UNL     1       8.358  -1.381  23.079  0.00  0.00    +0.221 C 
ATOM      5  C   UNL     1       6.824  -1.201  22.996  0.00  0.00    +0.207 C 
ENDROOT
BRANCH   1   6
ATOM      6  O   UNL     1       6.222  -3.395  23.856  0.00  0.00    -0.386 OA
ATOM      7  H   UNL     1       6.362  -3.926  24.662  0.00  0.00    +0.210 HD
ENDBRANCH   1   6
BRANCH   4   8
ATOM      8  O   UNL     1       8.696  -2.641  22.500  0.00  0.00    -0.361 OA
ATOM      9  H   UNL     1       8.286  -3.276  23.119  0.00  0.00    +0.213 HD
ENDBRANCH   4   8
BRANCH   5  10
ATOM     10  O   UNL     1       6.362   0.143  23.110  0.00  0.00    -0.384 OA
ATOM     11  H   UNL     1       6.957   0.692  22.568  0.00  0.00    +0.210 HD
ENDBRANCH   5  10
BRANCH   2  12
ATOM     12  C   UNL     1       7.765  -2.968  26.134  0.00  0.00    +0.206 C 
BRANCH  12  13
ATOM     13  O   UNL     1       9.023  -3.548  25.808  0.00  0.00    -0.284 OA
BRANCH  13  14
ATOM     14  P   UNL     1       9.034  -5.065  25.310  0.00  0.00    +0.472 P 
ATOM     15  O   UNL     1       8.493  -5.311  23.944  0.00  0.00    -0.228 OA
BRANCH  14  16
ATOM     16  O   UNL     1       8.267  -5.878  26.449  0.00  0.00    -0.303 OA
ATOM     17  H   UNL     1       8.757  -5.844  27.289  0.00  0.00    +0.222 HD
ENDBRANCH  14  16
BRANCH  14  18
ATOM     18  O   UNL     1      10.554  -5.517  25.481  0.00  0.00    -0.303 OA
ATOM     19  H   UNL     1      11.141  -4.741  25.498  0.00  0.00    +0.222 HD
ENDBRANCH  14  18
ENDBRANCH  13  14
ENDBRANCH  12  13
ENDBRANCH   2  12
BRANCH   4  20
ATOM     20  C   UNL     1       9.206  -0.254  22.465  0.00  0.00    +0.239 C 
BRANCH  20  21
ATOM     21  O   UNL     1       9.374   0.817  23.383  0.00  0.00    -0.281 OA
BRANCH  21  22
ATOM     22  P   UNL     1       9.206   2.308  22.847  0.00  0.00    +0.473 P 
ATOM     23  O   UNL     1       7.817   2.820  22.741  0.00  0.00    -0.228 OA
BRANCH  22  24
ATOM     24  O   UNL     1      10.044   2.246  21.487  0.00  0.00    -0.303 OA
ATOM     25  H   UNL     1       9.973   1.385  21.045  0.00  0.00    +0.222 HD
ENDBRANCH  22  24
BRANCH  22  26
ATOM     26  O   UNL     1      10.196   3.088  23.825  0.00  0.00    -0.303 OA
ATOM     27  H   UNL     1      10.718   3.743  23.333  0.00  0.00    +0.222 HD
ENDBRANCH  22  26
ENDBRANCH  21  22
ENDBRANCH  20  21
ENDBRANCH   4  20
TORSDOF 13
ENDMDL
MODEL 5
REMARK VINA RESULT:      -5.3      1.608      6.300
REMARK  Name = 
REMARK  13 active torsions:
REMARK  status: ('A' for Active; 'I' for Inactive)
REMARK    1  A    between atoms: O_1  and  C_2
REMARK    2  A    between atoms: C_4  and  O_6
REMARK    3  A    between atoms: C_7  and  O_8
REMARK    4  A    between atoms: C_7  and  C_9
REMARK    5  A    between atoms: C_9  and  O_10
REMARK    6  A    between atoms: O_10  and  P_11
REMARK    7  A    between atoms: P_11  and  O_12
REMARK    8  A    between atoms: P_11  and  O_13
REMARK    9  A    between atoms: C_16  and  C_18
REMARK   10  A    between atoms: C_18  and  O_19
REMARK   11  A    between atoms: O_19  and  P_20
REMARK   12  A    between atoms: P_20  and  O_21
REMARK   13  A    between atoms: P_20  and  O_22
REMARK                            x       y       z     vdW  Elec       q    Type
REMARK                         _______ _______ _______ _____ _____    ______ ____
ROOT
ATOM      1  C   UNL     1       7.702  -1.625  23.479  0.00  0.00    +0.179 C 
ATOM      2  C   UNL     1       9.116  -1.494  24.070  0.00  0.00    +0.179 C 
ATOM      3  O   UNL     1       9.923  -0.803  23.092  0.00  0.00    -0.336 OA
ATOM      4  C   UNL     1       9.069  -0.319  22.056  0.00  0.00    +0.221 C 
ATOM      5  C   UNL     1       7.609  -0.419  22.555  0.00  0.00    +0.207 C 
ENDROOT
BRANCH   1   6
ATOM      6  O   UNL     1       7.529  -2.843  22.752  0.00  0.00    -0.386 OA
ATOM      7  H   UNL     1       8.280  -3.429  22.959  0.00  0.00    +0.210 HD
ENDBRANCH   1   6
BRANCH   4   8
ATOM      8  O   UNL     1       9.251  -1.263  21.001  0.00  0.00    -0.361 OA
ATOM      9  H   UNL     1       8.963  -2.101  21.412  0.00  0.00    +0.213 HD
ENDBRANCH   4   8
BRANCH   5  10
ATOM     10  O   UNL     1       7.131   0.716  23.272  0.00  0.00    -0.384 OA
ATOM     11  H   UNL     1       6.786   1.342  22.610  0.00  0.00    +0.210 HD
ENDBRANCH   5  10
BRANCH   2  12
ATOM     12  C   UNL     1       9.782  -2.822  24.387  0.00  0.00    +0.206 C 
BRANCH  12  13
ATOM     13  O   UNL     1       9.041  -3.480  25.410  0.00  0.00    -0.284 OA
BRANCH  13  14
ATOM     14  P   UNL     1       8.932  -5.071  25.341  0.00  0.00    +0.472 P 
ATOM     15  O   UNL     1       8.011  -5.709  26.322  0.00  0.00    -0.228 OA
BRANCH  14  16
ATOM     16  O   UNL     1      10.436  -5.594  25.453  0.00  0.00    -0.303 OA
ATOM     17  H   UNL     1      11.040  -5.022  24.947  0.00  0.00    +0.222 HD
ENDBRANCH  14  16
BRANCH  14  18
ATOM     18  O   UNL     1       8.542  -5.366  23.822  0.00  0.00    -0.303 OA
ATOM     19  H   UNL     1       8.021  -6.186  23.757  0.00  0.00    +0.222 HD
ENDBRANCH  14  18
ENDBRANCH  13  14
ENDBRANCH  12  13
ENDBRANCH   2  12
BRANCH   4  20
ATOM     20  C   UNL     1       9.543   1.079  21.625  0.00  0.00    +0.239 C 
BRANCH  20  21
ATOM     21  O   UNL     1      10.517   1.588  22.525  0.00  0.00    -0.281 OA
BRANCH  21  22
ATOM     22  P   UNL     1      10.113   2.807  23.469  0.00  0.00    +0.473 P 
ATOM     23  O   UNL     1      11.153   3.843  23.694  0.00  0.00    -0.228 OA
BRANCH  22  24
ATOM     24  O   UNL     1       9.591   2.034  24.768  0.00  0.00    -0.303 OA
ATOM     25  H   UNL     1       9.119   2.617  25.384  0.00  0.00    +0.222 HD
ENDBRANCH  22  24
BRANCH  22  26
ATOM     26  O   UNL     1       8.754   3.278  22.780  0.00  0.00    -0.303 OA
ATOM     27  H   UNL     1       8.114   2.547  22.749  0.00  0.00    +0.222 HD
ENDBRANCH  22  26
ENDBRANCH  21  22
ENDBRANCH  20  21
ENDBRANCH   4  20
TORSDOF 13
ENDMDL
MODEL 6
REMARK VINA RESULT:      -5.2      2.513      6.722
REMARK  Name = 
REMARK  13 active torsions:
REMARK  status: ('A' for Active; 'I' for Inactive)
REMARK    1  A    between atoms: O_1  and  C_2
REMARK    2  A    between atoms: C_4  and  O_6
REMARK    3  A    between atoms: C_7  and  O_8
REMARK    4  A    between atoms: C_7  and  C_9
REMARK    5  A    between atoms: C_9  and  O_10
REMARK    6  A    between atoms: O_10  and  P_11
REMARK    7  A    between atoms: P_11  and  O_12
REMARK    8  A    between atoms: P_11  and  O_13
REMARK    9  A    between atoms: C_16  and  C_18
REMARK   10  A    between atoms: C_18  and  O_19
REMARK   11  A    between atoms: O_19  and  P_20
REMARK   12  A    between atoms: P_20  and  O_21
REMARK   13  A    between atoms: P_20  and  O_22
REMARK                            x       y       z     vdW  Elec       q    Type
REMARK                         _______ _______ _______ _____ _____    ______ ____
ROOT
ATOM      1  C   UNL     1       8.585  -4.888  24.495  0.00  0.00    +0.179 C 
ATOM      2  C   UNL     1       7.553  -4.641  23.382  0.00  0.00    +0.179 C 
ATOM      3  O   UNL     1       7.046  -3.302  23.562  0.00  0.00    -0.336 OA
ATOM      4  C   UNL     1       7.833  -2.645  24.555  0.00  0.00    +0.221 C 
ATOM      5  C   UNL     1       9.108  -3.489  24.789  0.00  0.00    +0.207 C 
ENDROOT
BRANCH   1   6
ATOM      6  O   UNL     1       7.996  -5.469  25.661  0.00  0.00    -0.386 OA
ATOM      7  H   UNL     1       8.421  -5.073  26.445  0.00  0.00    +0.210 HD
ENDBRANCH   1   6
BRANCH   4   8
ATOM      8  O   UNL     1       7.024  -2.717  25.729  0.00  0.00    -0.361 OA
ATOM      9  H   UNL     1       6.670  -3.626  25.688  0.00  0.00    +0.213 HD
ENDBRANCH   4   8
BRANCH   5  10
ATOM     10  O   UNL     1      10.206  -3.185  23.932  0.00  0.00    -0.384 OA
ATOM     11  H   UNL     1      10.690  -4.017  23.788  0.00  0.00    +0.210 HD
ENDBRANCH   5  10
BRANCH   2  12
ATOM     12  C   UNL     1       6.378  -5.604  23.399  0.00  0.00    +0.206 C 
BRANCH  12  13
ATOM     13  O   UNL     1       5.419  -5.149  24.349  0.00  0.00    -0.284 OA
BRANCH  13  14
ATOM     14  P   UNL     1       4.527  -6.248  25.085  0.00  0.00    +0.472 P 
ATOM     15  O   UNL     1       3.166  -5.813  25.509  0.00  0.00    -0.228 OA
BRANCH  14  16
ATOM     16  O   UNL     1       5.428  -6.769  26.295  0.00  0.00    -0.303 OA
ATOM     17  H   UNL     1       5.338  -6.186  27.070  0.00  0.00    +0.222 HD
ENDBRANCH  14  16
BRANCH  14  18
ATOM     18  O   UNL     1       4.510  -7.478  24.070  0.00  0.00    -0.303 OA
ATOM     19  H   UNL     1       4.585  -7.164  23.151  0.00  0.00    +0.222 HD
ENDBRANCH  14  18
ENDBRANCH  13  14
ENDBRANCH  12  13
ENDBRANCH   2  12
BRANCH   4  20
ATOM     20  C   UNL     1       8.057  -1.183  24.135  0.00  0.00    +0.239 C 
BRANCH  20  21
ATOM     21  O   UNL     1       8.169  -1.068  22.723  0.00  0.00    -0.281 OA
BRANCH  21  22
ATOM     22  P   UNL     1       9.462  -0.359  22.121  0.00  0.00    +0.473 P 
ATOM     23  O   UNL     1       9.227   0.839  21.277  0.00  0.00    -0.228 OA
BRANCH  22  24
ATOM     24  O   UNL     1      10.192  -1.592  21.412  0.00  0.00    -0.303 OA
ATOM     25  H   UNL     1      11.147  -1.609  21.583  0.00  0.00    +0.222 HD
ENDBRANCH  22  24
BRANCH  22  26
ATOM     26  O   UNL     1      10.333  -0.158  23.442  0.00  0.00    -0.303 OA
ATOM     27  H   UNL     1      11.282  -0.167  23.232  0.00  0.00    +0.222 HD
ENDBRANCH  22  26
ENDBRANCH  21  22
ENDBRANCH  20  21
ENDBRANCH   4  20
TORSDOF 13
ENDMDL
MODEL 7
REMARK VINA RESULT:      -5.1      2.272      5.934
REMARK  Name = 
REMARK  13 active torsions:
REMARK  status: ('A' for Active; 'I' for Inactive)
REMARK    1  A    between atoms: O_1  and  C_2
REMARK    2  A    between atoms: C_4  and  O_6
REMARK    3  A    between atoms: C_7  and  O_8
REMARK    4  A    between atoms: C_7  and  C_9
REMARK    5  A    between atoms: C_9  and  O_10
REMARK    6  A    between atoms: O_10  and  P_11
REMARK    7  A    between atoms: P_11  and  O_12
REMARK    8  A    between atoms: P_11  and  O_13
REMARK    9  A    between atoms: C_16  and  C_18
REMARK   10  A    between atoms: C_18  and  O_19
REMARK   11  A    between atoms: O_19  and  P_20
REMARK   12  A    between atoms: P_20  and  O_21
REMARK   13  A    between atoms: P_20  and  O_22
REMARK                            x       y       z     vdW  Elec       q    Type
REMARK                         _______ _______ _______ _____ _____    ______ ____
ROOT
ATOM      1  C   UNL     1       7.971  -1.774  25.343  0.00  0.00    +0.179 C 
ATOM      2  C   UNL     1       8.856  -2.781  24.589  0.00  0.00    +0.179 C 
ATOM      3  O   UNL     1       9.457  -2.075  23.483  0.00  0.00    -0.336 OA
ATOM      4  C   UNL     1       9.182  -0.682  23.628  0.00  0.00    +0.221 C 
ATOM      5  C   UNL     1       8.659  -0.445  25.064  0.00  0.00    +0.207 C 
ENDROOT
BRANCH   1   6
ATOM      6  O   UNL     1       6.626  -1.765  24.860  0.00  0.00    -0.386 OA
ATOM      7  H   UNL     1       6.636  -1.441  23.940  0.00  0.00    +0.210 HD
ENDBRANCH   1   6
BRANCH   4   8
ATOM      8  O   UNL     1       8.109  -0.454  22.714  0.00  0.00    -0.361 OA
ATOM      9  H   UNL     1       8.561  -0.465  21.849  0.00  0.00    +0.213 HD
ENDBRANCH   4   8
BRANCH   5  10
ATOM     10  O   UNL     1       9.663  -0.195  26.044  0.00  0.00    -0.384 OA
ATOM     11  H   UNL     1      10.326  -0.903  25.955  0.00  0.00    +0.210 HD
ENDBRANCH   5  10
BRANCH   2  12
ATOM     12  C   UNL     1       8.101  -3.979  24.037  0.00  0.00    +0.206 C 
BRANCH  12  13
ATOM     13  O   UNL     1       7.748  -3.722  22.682  0.00  0.00    -0.284 OA
BRANCH  13  14
ATOM     14  P   UNL     1       6.202  -3.789  22.293  0.00  0.00    +0.472 P 
ATOM     15  O   UNL     1       5.866  -4.573  21.071  0.00  0.00    -0.228 OA
BRANCH  14  16
ATOM     16  O   UNL     1       5.729  -2.267  22.216  0.00  0.00    -0.303 OA
ATOM     17  H   UNL     1       4.765  -2.197  22.337  0.00  0.00    +0.222 HD
ENDBRANCH  14  16
BRANCH  14  18
ATOM     18  O   UNL     1       5.494  -4.339  23.612  0.00  0.00    -0.303 OA
ATOM     19  H   UNL     1       4.528  -4.237  23.548  0.00  0.00    +0.222 HD
ENDBRANCH  14  18
ENDBRANCH  13  14
ENDBRANCH  12  13
ENDBRANCH   2  12
BRANCH   4  20
ATOM     20  C   UNL     1      10.427   0.122  23.220  0.00  0.00    +0.239 C 
BRANCH  20  21
ATOM     21  O   UNL     1      10.442   1.396  23.848  0.00  0.00    -0.281 OA
BRANCH  21  22
ATOM     22  P   UNL     1       9.866   2.645  23.043  0.00  0.00    +0.473 P 
ATOM     23  O   UNL     1       8.606   3.239  23.556  0.00  0.00    -0.228 OA
BRANCH  22  24
ATOM     24  O   UNL     1       9.820   2.062  21.556  0.00  0.00    -0.303 OA
ATOM     25  H   UNL     1       9.504   2.713  20.909  0.00  0.00    +0.222 HD
ENDBRANCH  22  24
BRANCH  22  26
ATOM     26  O   UNL     1      11.151   3.589  23.002  0.00  0.00    -0.303 OA
ATOM     27  H   UNL     1      10.890   4.520  22.903  0.00  0.00    +0.222 HD
ENDBRANCH  22  26
ENDBRANCH  21  22
ENDBRANCH  20  21
ENDBRANCH   4  20
TORSDOF 13
ENDMDL
MODEL 8
REMARK VINA RESULT:      -5.1      2.836      6.460
REMARK  Name = 
REMARK  13 active torsions:
REMARK  status: ('A' for Active; 'I' for Inactive)
REMARK    1  A    between atoms: O_1  and  C_2
REMARK    2  A    between atoms: C_4  and  O_6
REMARK    3  A    between atoms: C_7  and  O_8
REMARK    4  A    between atoms: C_7  and  C_9
REMARK    5  A    between atoms: C_9  and  O_10
REMARK    6  A    between atoms: O_10  and  P_11
REMARK    7  A    between atoms: P_11  and  O_12
REMARK    8  A    between atoms: P_11  and  O_13
REMARK    9  A    between atoms: C_16  and  C_18
REMARK   10  A    between atoms: C_18  and  O_19
REMARK   11  A    between atoms: O_19  and  P_20
REMARK   12  A    between atoms: P_20  and  O_21
REMARK   13  A    between atoms: P_20  and  O_22
REMARK                            x       y       z     vdW  Elec       q    Type
REMARK                         _______ _______ _______ _____ _____    ______ ____
ROOT
ATOM      1  C   UNL     1       7.867  -5.336  26.478  0.00  0.00    +0.179 C 
ATOM      2  C   UNL     1       7.104  -5.209  25.149  0.00  0.00    +0.179 C 
ATOM      3  O   UNL     1       7.573  -4.006  24.503  0.00  0.00    -0.336 OA
ATOM      4  C   UNL     1       8.701  -3.512  25.223  0.00  0.00    +0.221 C 
ATOM      5  C   UNL     1       9.180  -4.625  26.183  0.00  0.00    +0.207 C 
ENDROOT
BRANCH   1   6
ATOM      6  O   UNL     1       7.177  -4.709  27.562  0.00  0.00    -0.386 OA
ATOM      7  H   UNL     1       6.854  -3.842  27.254  0.00  0.00    +0.210 HD
ENDBRANCH   1   6
BRANCH   4   8
ATOM      8  O   UNL     1       8.161  -2.445  26.003  0.00  0.00    -0.361 OA
ATOM      9  H   UNL     1       8.879  -1.783  25.984  0.00  0.00    +0.213 HD
ENDBRANCH   4   8
BRANCH   5  10
ATOM     10  O   UNL     1      10.123  -5.540  25.632  0.00  0.00    -0.384 OA
ATOM     11  H   UNL     1      10.424  -5.160  24.787  0.00  0.00    +0.210 HD
ENDBRANCH   5  10
BRANCH   2  12
ATOM     12  C   UNL     1       5.596  -5.111  25.306  0.00  0.00    +0.206 C 
BRANCH  12  13
ATOM     13  O   UNL     1       4.977  -6.075  24.460  0.00  0.00    -0.284 OA
BRANCH  13  14
ATOM     14  P   UNL     1       4.690  -5.658  22.947  0.00  0.00    +0.472 P 
ATOM     15  O   UNL     1       4.697  -4.197  22.655  0.00  0.00    -0.228 OA
BRANCH  14  16
ATOM     16  O   UNL     1       3.309  -6.369  22.578  0.00  0.00    -0.303 OA
ATOM     17  H   UNL     1       3.201  -7.197  23.078  0.00  0.00    +0.222 HD
ENDBRANCH  14  16
BRANCH  14  18
ATOM     18  O   UNL     1       5.771  -6.476  22.107  0.00  0.00    -0.303 OA
ATOM     19  H   UNL     1       5.773  -6.187  21.178  0.00  0.00    +0.222 HD
ENDBRANCH  14  18
ENDBRANCH  13  14
ENDBRANCH  12  13
ENDBRANCH   2  12
BRANCH   4  20
ATOM     20  C   UNL     1       9.744  -2.984  24.224  0.00  0.00    +0.239 C 
BRANCH  20  21
ATOM     21  O   UNL     1       9.506  -1.619  23.910  0.00  0.00    -0.281 OA
BRANCH  21  22
ATOM     22  P   UNL     1       9.032  -1.252  22.433  0.00  0.00    +0.473 P 
ATOM     23  O   UNL     1       8.464   0.106  22.239  0.00  0.00    -0.228 OA
BRANCH  22  24
ATOM     24  O   UNL     1       8.062  -2.479  22.104  0.00  0.00    -0.303 OA
ATOM     25  H   UNL     1       7.160  -2.194  21.888  0.00  0.00    +0.222 HD
ENDBRANCH  22  24
BRANCH  22  26
ATOM     26  O   UNL     1      10.343  -1.617  21.602  0.00  0.00    -0.303 OA
ATOM     27  H   UNL     1      10.516  -0.946  20.921  0.00  0.00    +0.222 HD
ENDBRANCH  22  26
ENDBRANCH  21  22
ENDBRANCH  20  21
ENDBRANCH   4  20
TORSDOF 13
ENDMDL
MODEL 9
REMARK VINA RESULT:      -5.1      2.501      3.293
REMARK  Name = 
REMARK  13 active torsions:
REMARK  status: ('A' for Active; 'I' for Inactive)
REMARK    1  A    between atoms: O_1  and  C_2
REMARK    2  A    between atoms: C_4  and  O_6
REMARK    3  A    between atoms: C_7  and  O_8
REMARK    4  A    between atoms: C_7  and  C_9
REMARK    5  A    between atoms: C_9  and  O_10
REMARK    6  A    between atoms: O_10  and  P_11
REMARK    7  A    between atoms: P_11  and  O_12
REMARK    8  A    between atoms: P_11  and  O_13
REMARK    9  A    between atoms: C_16  and  C_18
REMARK   10  A    between atoms: C_18  and  O_19
REMARK   11  A    between atoms: O_19  and  P_20
REMARK   12  A    between atoms: P_20  and  O_21
REMARK   13  A    between atoms: P_20  and  O_22
REMARK                            x       y       z     vdW  Elec       q    Type
REMARK                         _______ _______ _______ _____ _____    ______ ____
ROOT
ATOM      1  C   UNL     1      10.003   1.388  22.085  0.00  0.00    +0.179 C 
ATOM      2  C   UNL     1      10.605   1.900  23.404  0.00  0.00    +0.179 C 
ATOM      3  O   UNL     1       9.781   1.388  24.473  0.00  0.00    -0.336 OA
ATOM      4  C   UNL     1       8.863   0.441  23.930  0.00  0.00    +0.221 C 
ATOM      5  C   UNL     1       9.336   0.084  22.500  0.00  0.00    +0.207 C 
ENDROOT
BRANCH   1   6
ATOM      6  O   UNL     1       9.049   2.298  21.534  0.00  0.00    -0.386 OA
ATOM      7  H   UNL     1       8.451   2.580  22.250  0.00  0.00    +0.210 HD
ENDBRANCH   1   6
BRANCH   4   8
ATOM      8  O   UNL     1       7.642   1.173  23.831  0.00  0.00    -0.361 OA
ATOM      9  H   UNL     1       7.190   0.734  23.085  0.00  0.00    +0.213 HD
ENDBRANCH   4   8
BRANCH   5  10
ATOM     10  O   UNL     1      10.265  -0.994  22.417  0.00  0.00    -0.384 OA
ATOM     11  H   UNL     1      11.119  -0.654  22.740  0.00  0.00    +0.210 HD
ENDBRANCH   5  10
BRANCH   2  12
ATOM     12  C   UNL     1      10.651   3.414  23.519  0.00  0.00    +0.206 C 
BRANCH  12  13
ATOM     13  O   UNL     1      12.007   3.843  23.458  0.00  0.00    -0.284 OA
BRANCH  13  14
ATOM     14  P   UNL     1      12.285   5.378  23.119  0.00  0.00    +0.472 P 
ATOM     15  O   UNL     1      13.147   5.642  21.933  0.00  0.00    -0.228 OA
BRANCH  14  16
ATOM     16  O   UNL     1      12.862   6.001  24.471  0.00  0.00    -0.303 OA
ATOM     17  H   UNL     1      13.665   5.530  24.755  0.00  0.00    +0.222 HD
ENDBRANCH  14  16
BRANCH  14  18
ATOM     18  O   UNL     1      10.829   6.018  22.999  0.00  0.00    -0.303 OA
ATOM     19  H   UNL     1      10.147   5.323  23.028  0.00  0.00    +0.222 HD
ENDBRANCH  14  18
ENDBRANCH  13  14
ENDBRANCH  12  13
ENDBRANCH   2  12
BRANCH   4  20
ATOM     20  C   UNL     1       8.716  -0.737  24.907  0.00  0.00    +0.239 C 
BRANCH  20  21
ATOM     21  O   UNL     1       8.142  -1.866  24.264  0.00  0.00    -0.281 OA
BRANCH  21  22
ATOM     22  P   UNL     1       8.602  -3.319  24.731  0.00  0.00    +0.473 P 
ATOM     23  O   UNL     1       8.498  -3.611  26.183  0.00  0.00    -0.228 OA
BRANCH  22  24
ATOM     24  O   UNL     1      10.066  -3.402  24.094  0.00  0.00    -0.303 OA
ATOM     25  H   UNL     1      10.305  -4.303  23.827  0.00  0.00    +0.222 HD
ENDBRANCH  22  24
BRANCH  22  26
ATOM     26  O   UNL     1       7.745  -4.233  23.743  0.00  0.00    -0.303 OA
ATOM     27  H   UNL     1       8.090  -4.174  22.836  0.00  0.00    +0.222 HD
ENDBRANCH  22  26
ENDBRANCH  21  22
ENDBRANCH  20  21
ENDBRANCH   4  20
TORSDOF 13
ENDMDL
