MODEL 1
REMARK VINA RESULT:      -5.3      0.000      0.000
REMARK  Name = 
REMARK  12 active torsions:
REMARK  status: ('A' for Active; 'I' for Inactive)
REMARK    1  A    between atoms: O_1  and  C_2
REMARK    2  A    between atoms: C_2  and  CA_3
REMARK    3  A    between atoms: CA_3  and  CB_4
REMARK    4  A    between atoms: CA_3  and  N_6
REMARK    5  A    between atoms: CB_4  and  OG_5
REMARK    6  A    between atoms: N_6  and  C_7
REMARK    7  A    between atoms: C_10  and  O_11
REMARK    8  A    between atoms: C_10  and  C_12
REMARK    9  A    between atoms: C_12  and  O_13
REMARK   10  A    between atoms: C_14  and  O_16
REMARK   11  A    between atoms: C_17  and  O_19
REMARK   12  A    between atoms: C_20  and  O_22
REMARK                            x       y       z     vdW  Elec       q    Type
REMARK                         _______ _______ _______ _____ _____    ______ ____
ROOT
ATOM      1  C   UNK A   0       9.560  -1.677  25.041  0.00  0.00    +0.088 C 
ATOM      2  C   UNK A   0       9.374  -0.322  25.763  0.00  0.00    +0.162 C 
ATOM      3  C   UNK A   0       8.214   0.484  25.152  0.00  0.00    +0.176 C 
ATOM      4  C   UNK A   0       8.422   0.750  23.655  0.00  0.00    +0.179 C 
ATOM      5  C   UNK A   0       8.759  -0.525  22.834  0.00  0.00    +0.119 C 
ATOM      6  C   UNK A   0       9.791  -1.431  23.542  0.00  0.00    +0.061 C 
ENDROOT
BRANCH   1   7
ATOM      7  N   SER A   1       8.408  -2.533  25.410  0.00  0.00    -0.304 NA
ATOM      8  H   SER A   1       7.848  -1.987  26.073  0.00  0.00    +0.123 HD
BRANCH   7   9
ATOM      9  CA  SER A   1       8.728  -3.834  26.045  0.00  0.00    +0.105 C 
BRANCH   9  10
ATOM     10  C   SER A   1       7.565  -4.479  26.827  0.00  0.00    +0.176 C 
BRANCH  10  11
ATOM     11  O   SER A   1       7.944  -5.732  27.391  0.00  0.00    -0.393 OA
ATOM     12  H   SER A   1       7.227  -6.017  27.986  0.00  0.00    +0.209 HD
ENDBRANCH  10  11
ENDBRANCH   9  10
BRANCH   9  13
ATOM     13  CB  SER A   1       9.167  -4.822  24.930  0.00  0.00    +0.176 C 
BRANCH  13  14
ATOM     14  OG  SER A   1      10.245  -5.646  25.370  0.00  0.00    -0.393 OA
ATOM     15  H   SER A   1      10.396  -5.395  26.302  0.00  0.00    +0.209 HD
ENDBRANCH  13  14
ENDBRANCH   9  13
ENDBRANCH   7   9
ENDBRANCH   1   7
BRANCH   2  16
ATOM     16  O   UNK A   0       9.150  -0.619  27.156  0.00  0.00    -0.388 OA
ATOM     17  H   UNK A   0       9.659   0.036  27.668  0.00  0.00    +0.210 HD
ENDBRANCH   2  16
BRANCH   3  18
ATOM     18  O   UNK A   0       8.105   1.740  25.836  0.00  0.00    -0.387 OA
ATOM     19  H   UNK A   0       8.292   1.548  26.780  0.00  0.00    +0.210 HD
ENDBRANCH   3  18
BRANCH   4  20
ATOM     20  O   UNK A   0       7.202   1.323  23.148  0.00  0.00    -0.386 OA
ATOM     21  H   UNK A   0       6.508   0.672  23.372  0.00  0.00    +0.210 HD
ENDBRANCH   4  20
BRANCH   5  22
ATOM     22  O   UNK A   0       7.520  -1.232  22.653  0.00  0.00    -0.384 OA
ATOM     23  H   UNK A   0       7.526  -1.632  21.761  0.00  0.00    +0.210 HD
ENDBRANCH   5  22
BRANCH   5  24
ATOM     24  C   UNK A   0       9.307  -0.138  21.434  0.00  0.00    +0.193 C 
BRANCH  24  25
ATOM     25  O   UNK A   0       9.010   1.200  21.053  0.00  0.00    -0.392 OA
ATOM     26  H   UNK A   0       8.196   1.472  21.520  0.00  0.00    +0.210 HD
ENDBRANCH  24  25
ENDBRANCH   5  24
TORSDOF 12
ENDMDL
MODEL 2
REMARK VINA RESULT:      -5.2      3.242      5.634
REMARK  Name = 
REMARK  12 active torsions:
REMARK  status: ('A' for Active; 'I' for Inactive)
REMARK    1  A    between atoms: O_1  and  C_2
REMARK    2  A    between atoms: C_2  and  CA_3
REMARK    3  A    between atoms: CA_3  and  CB_4
REMARK    4  A    between atoms: CA_3  and  N_6
REMARK    5  A    between atoms: CB_4  and  OG_5
REMARK    6  A    between atoms: N_6  and  C_7
REMARK    7  A    between atoms: C_10  and  O_11
REMARK    8  A    between atoms: C_10  and  C_12
REMARK    9  A    between atoms: C_12  and  O_13
REMARK   10  A    between atoms: C_14  and  O_16
REMARK   11  A    between atoms: C_17  and  O_19
REMARK   12  A    between atoms: C_20  and  O_22
REMARK                            x       y       z     vdW  Elec       q    Type
REMARK                         _______ _______ _______ _____ _____    ______ ____
ROOT
ATOM      1  C   UNK A   0       7.333  -2.177  23.867  0.00  0.00    +0.088 C 
ATOM      2  C   UNK A   0       8.194  -3.405  24.244  0.00  0.00    +0.162 C 
ATOM      3  C   UNK A   0       7.848  -4.623  23.369  0.00  0.00    +0.176 C 
ATOM      4  C   UNK A   0       6.366  -5.010  23.479  0.00  0.00    +0.179 C 
ATOM      5  C   UNK A   0       5.392  -3.820  23.259  0.00  0.00    +0.119 C 
ATOM      6  C   UNK A   0       5.845  -2.538  23.992  0.00  0.00    +0.061 C 
ENDROOT
BRANCH   1   7
ATOM      7  N   SER A   1       7.800  -1.703  22.542  0.00  0.00    -0.304 NA
ATOM      8  H   SER A   1       8.561  -2.333  22.266  0.00  0.00    +0.123 HD
BRANCH   7   9
ATOM      9  CA  SER A   1       8.311  -0.314  22.479  0.00  0.00    +0.105 C 
BRANCH   9  10
ATOM     10  C   SER A   1       8.708   0.296  23.840  0.00  0.00    +0.176 C 
BRANCH  10  11
ATOM     11  O   SER A   1      10.036  -0.066  24.208  0.00  0.00    -0.393 OA
ATOM     12  H   SER A   1      10.413   0.673  24.719  0.00  0.00    +0.209 HD
ENDBRANCH  10  11
ENDBRANCH   9  10
BRANCH   9  13
ATOM     13  CB  SER A   1       9.561  -0.299  21.559  0.00  0.00    +0.176 C 
BRANCH  13  14
ATOM     14  OG  SER A   1      10.261  -1.540  21.625  0.00  0.00    -0.393 OA
ATOM     15  H   SER A   1      11.141  -1.320  21.987  0.00  0.00    +0.209 HD
ENDBRANCH  13  14
ENDBRANCH   9  13
ENDBRANCH   7   9
ENDBRANCH   1   7
BRANCH   2  16
ATOM     16  O   UNK A   0       9.573  -3.010  24.096  0.00  0.00    -0.388 OA
ATOM     17  H   UNK A   0       9.890  -2.757  24.982  0.00  0.00    +0.210 HD
ENDBRANCH   2  16
BRANCH   3  18
ATOM     18  O   UNK A   0       8.651  -5.738  23.779  0.00  0.00    -0.387 OA
ATOM     19  H   UNK A   0       8.334  -6.504  23.253  0.00  0.00    +0.210 HD
ENDBRANCH   3  18
BRANCH   4  20
ATOM     20  O   UNK A   0       6.110  -6.014  22.481  0.00  0.00    -0.386 OA
ATOM     21  H   UNK A   0       5.900  -5.512  21.668  0.00  0.00    +0.210 HD
ENDBRANCH   4  20
BRANCH   5  22
ATOM     22  O   UNK A   0       5.343  -3.590  21.841  0.00  0.00    -0.384 OA
ATOM     23  H   UNK A   0       4.896  -2.736  21.686  0.00  0.00    +0.210 HD
ENDBRANCH   5  22
BRANCH   5  24
ATOM     24  C   UNK A   0       3.964  -4.195  23.739  0.00  0.00    +0.193 C 
BRANCH  24  25
ATOM     25  O   UNK A   0       3.294  -5.113  22.883  0.00  0.00    -0.392 OA
ATOM     26  H   UNK A   0       3.946  -5.777  22.585  0.00  0.00    +0.210 HD
ENDBRANCH  24  25
ENDBRANCH   5  24
TORSDOF 12
ENDMDL
MODEL 3
REMARK VINA RESULT:      -5.1      2.666      3.710
REMARK  Name = 
REMARK  12 active torsions:
REMARK  status: ('A' for Active; 'I' for Inactive)
REMARK    1  A    between atoms: O_1  and  C_2
REMARK    2  A    between atoms: C_2  and  CA_3
REMARK    3  A    between atoms: CA_3  and  CB_4
REMARK    4  A    between atoms: CA_3  and  N_6
REMARK    5  A    between atoms: CB_4  and  OG_5
REMARK    6  A    between atoms: N_6  and  C_7
REMARK    7  A    between atoms: C_10  and  O_11
REMARK    8  A    between atoms: C_10  and  C_12
REMARK    9  A    between atoms: C_12  and  O_13
REMARK   10  A    between atoms: C_14  and  O_16
REMARK   11  A    between atoms: C_17  and  O_19
REMARK   12  A    between atoms: C_20  and  O_22
REMARK                            x       y       z     vdW  Elec       q    Type
REMARK                         _______ _______ _______ _____ _____    ______ ____
ROOT
ATOM      1  C   UNK A   0       8.423   0.145  23.742  0.00  0.00    +0.088 C 
ATOM      2  C   UNK A   0       6.980   0.699  23.758  0.00  0.00    +0.162 C 
ATOM      3  C   UNK A   0       6.794   1.809  22.708  0.00  0.00    +0.176 C 
ATOM      4  C   UNK A   0       7.770   2.974  22.921  0.00  0.00    +0.179 C 
ATOM      5  C   UNK A   0       9.252   2.530  23.064  0.00  0.00    +0.119 C 
ATOM      6  C   UNK A   0       9.416   1.294  23.975  0.00  0.00    +0.061 C 
ENDROOT
BRANCH   1   7
ATOM      7  N   SER A   1       8.581  -0.634  22.491  0.00  0.00    -0.304 NA
ATOM      8  H   SER A   1       7.644  -0.705  22.079  0.00  0.00    +0.123 HD
BRANCH   7   9
ATOM      9  CA  SER A   1       9.125  -2.006  22.630  0.00  0.00    +0.105 C 
BRANCH   9  10
ATOM     10  C   SER A   1       9.794  -2.306  23.987  0.00  0.00    +0.176 C 
BRANCH  10  11
ATOM     11  O   SER A   1       9.942  -3.707  24.199  0.00  0.00    -0.393 OA
ATOM     12  H   SER A   1       9.077  -4.058  24.478  0.00  0.00    +0.209 HD
ENDBRANCH  10  11
ENDBRANCH   9  10
BRANCH   9  13
ATOM     13  CB  SER A   1       7.958  -3.011  22.433  0.00  0.00    +0.176 C 
BRANCH  13  14
ATOM     14  OG  SER A   1       7.180  -3.135  23.622  0.00  0.00    -0.393 OA
ATOM     15  H   SER A   1       7.293  -4.062  23.907  0.00  0.00    +0.209 HD
ENDBRANCH  13  14
ENDBRANCH   9  13
ENDBRANCH   7   9
ENDBRANCH   1   7
BRANCH   2  16
ATOM     16  O   UNK A   0       6.100  -0.419  23.523  0.00  0.00    -0.388 OA
ATOM     17  H   UNK A   0       6.578  -1.034  22.937  0.00  0.00    +0.210 HD
ENDBRANCH   2  16
BRANCH   3  18
ATOM     18  O   UNK A   0       5.451   2.307  22.785  0.00  0.00    -0.387 OA
ATOM     19  H   UNK A   0       4.893   1.538  23.029  0.00  0.00    +0.210 HD
ENDBRANCH   3  18
BRANCH   4  20
ATOM     20  O   UNK A   0       7.651   3.846  21.782  0.00  0.00    -0.386 OA
ATOM     21  H   UNK A   0       8.550   3.883  21.400  0.00  0.00    +0.210 HD
ENDBRANCH   4  20
BRANCH   5  22
ATOM     22  O   UNK A   0       9.718   2.234  21.737  0.00  0.00    -0.384 OA
ATOM     23  H   UNK A   0       9.376   2.923  21.133  0.00  0.00    +0.210 HD
ENDBRANCH   5  22
BRANCH   5  24
ATOM     24  C   UNK A   0      10.112   3.691  23.632  0.00  0.00    +0.193 C 
BRANCH  24  25
ATOM     25  O   UNK A   0       9.768   4.969  23.107  0.00  0.00    -0.392 OA
ATOM     26  H   UNK A   0       9.622   5.574  23.860  0.00  0.00    +0.210 HD
ENDBRANCH  24  25
ENDBRANCH   5  24
TORSDOF 12
ENDMDL
MODEL 4
REMARK VINA RESULT:      -5.0      1.664      2.423
REMARK  Name = 
REMARK  12 active torsions:
REMARK  status: ('A' for Active; 'I' for Inactive)
REMARK    1  A    between atoms: O_1  and  C_2
REMARK    2  A    between atoms: C_2  and  CA_3
REMARK    3  A    between atoms: CA_3  and  CB_4
REMARK    4  A    between atoms: CA_3  and  N_6
REMARK    5  A    between atoms: CB_4  and  OG_5
REMARK    6  A    between atoms: N_6  and  C_7
REMARK    7  A    between atoms: C_10  and  O_11
REMARK    8  A    between atoms: C_10  and  C_12
REMARK    9  A    between atoms: C_12  and  O_13
REMARK   10  A    between atoms: C_14  and  O_16
REMARK   11  A    between atoms: C_17  and  O_19
REMARK   12  A    between atoms: C_20  and  O_22
REMARK                            x       y       z     vdW  Elec       q    Type
REMARK                         _______ _______ _______ _____ _____    ______ ____
ROOT
ATOM      1  C   UNK A   0       7.565  -1.582  25.697  0.00  0.00    +0.088 C 
ATOM      2  C   UNK A   0       6.610  -0.720  24.839  0.00  0.00    +0.162 C 
ATOM      3  C   UNK A   0       7.200  -0.453  23.442  0.00  0.00    +0.176 C 
ATOM      4  C   UNK A   0       8.562   0.250  23.517  0.00  0.00    +0.179 C 
ATOM      5  C   UNK A   0       9.574  -0.447  24.468  0.00  0.00    +0.119 C 
ATOM      6  C   UNK A   0       8.930  -0.885  25.802  0.00  0.00    +0.061 C 
ENDROOT
BRANCH   1   7
ATOM      7  N   SER A   1       7.553  -2.951  25.128  0.00  0.00    -0.304 NA
ATOM      8  H   SER A   1       6.565  -3.199  25.002  0.00  0.00    +0.123 HD
BRANCH   7   9
ATOM      9  CA  SER A   1       8.189  -4.012  25.944  0.00  0.00    +0.105 C 
BRANCH   9  10
ATOM     10  C   SER A   1       7.211  -5.030  26.565  0.00  0.00    +0.176 C 
BRANCH  10  11
ATOM     11  O   SER A   1       7.848  -5.830  27.558  0.00  0.00    -0.393 OA
ATOM     12  H   SER A   1       8.608  -5.327  27.900  0.00  0.00    +0.209 HD
ENDBRANCH  10  11
ENDBRANCH   9  10
BRANCH   9  13
ATOM     13  CB  SER A   1       9.184  -4.788  25.038  0.00  0.00    +0.176 C 
BRANCH  13  14
ATOM     14  OG  SER A   1      10.140  -5.502  25.819  0.00  0.00    -0.393 OA
ATOM     15  H   SER A   1       9.648  -5.816  26.603  0.00  0.00    +0.209 HD
ENDBRANCH  13  14
ENDBRANCH   9  13
ENDBRANCH   7   9
ENDBRANCH   1   7
BRANCH   2  16
ATOM     16  O   UNK A   0       5.357  -1.430  24.768  0.00  0.00    -0.388 OA
ATOM     17  H   UNK A   0       5.538  -2.348  25.039  0.00  0.00    +0.210 HD
ENDBRANCH   2  16
BRANCH   3  18
ATOM     18  O   UNK A   0       6.291   0.373  22.701  0.00  0.00    -0.387 OA
ATOM     19  H   UNK A   0       5.433  -0.104  22.702  0.00  0.00    +0.210 HD
ENDBRANCH   3  18
BRANCH   4  20
ATOM     20  O   UNK A   0       9.109   0.267  22.185  0.00  0.00    -0.386 OA
ATOM     21  H   UNK A   0       8.394  -0.084  21.617  0.00  0.00    +0.210 HD
ENDBRANCH   4  20
BRANCH   5  22
ATOM     22  O   UNK A   0      10.076  -1.593  23.759  0.00  0.00    -0.384 OA
ATOM     23  H   UNK A   0      10.914  -1.867  24.180  0.00  0.00    +0.210 HD
ENDBRANCH   5  22
BRANCH   5  24
ATOM     24  C   UNK A   0      10.768   0.497  24.773  0.00  0.00    +0.193 C 
BRANCH  24  25
ATOM     25  O   UNK A   0      10.635   1.792  24.199  0.00  0.00    -0.392 OA
ATOM     26  H   UNK A   0      11.492   2.252  24.291  0.00  0.00    +0.210 HD
ENDBRANCH  24  25
ENDBRANCH   5  24
TORSDOF 12
ENDMDL
MODEL 5
REMARK VINA RESULT:      -5.0      1.744      3.055
REMARK  Name = 
REMARK  12 active torsions:
REMARK  status: ('A' for Active; 'I' for Inactive)
REMARK    1  A    between atoms: O_1  and  C_2
REMARK    2  A    between atoms: C_2  and  CA_3
REMARK    3  A    between atoms: CA_3  and  CB_4
REMARK    4  A    between atoms: CA_3  and  N_6
REMARK    5  A    between atoms: CB_4  and  OG_5
REMARK    6  A    between atoms: N_6  and  C_7
REMARK    7  A    between atoms: C_10  and  O_11
REMARK    8  A    between atoms: C_10  and  C_12
REMARK    9  A    between atoms: C_12  and  O_13
REMARK   10  A    between atoms: C_14  and  O_16
REMARK   11  A    between atoms: C_17  and  O_19
REMARK   12  A    between atoms: C_20  and  O_22
REMARK                            x       y       z     vdW  Elec       q    Type
REMARK                         _______ _______ _______ _____ _____    ______ ____
ROOT
ATOM      1  C   UNK A   0       7.966  -2.087  24.695  0.00  0.00    +0.088 C 
ATOM      2  C   UNK A   0       8.458  -2.222  23.236  0.00  0.00    +0.162 C 
ATOM      3  C   UNK A   0       9.722  -1.380  22.989  0.00  0.00    +0.176 C 
ATOM      4  C   UNK A   0       9.492   0.107  23.294  0.00  0.00    +0.179 C 
ATOM      5  C   UNK A   0       8.863   0.369  24.690  0.00  0.00    +0.119 C 
ATOM      6  C   UNK A   0       7.709  -0.606  25.014  0.00  0.00    +0.061 C 
ENDROOT
BRANCH   1   7
ATOM      7  N   SER A   1       8.940  -2.799  25.555  0.00  0.00    -0.304 NA
ATOM      8  H   SER A   1       9.651  -3.184  24.923  0.00  0.00    +0.123 HD
BRANCH   7   9
ATOM      9  CA  SER A   1       8.408  -3.912  26.377  0.00  0.00    +0.105 C 
BRANCH   9  10
ATOM     10  C   SER A   1       7.012  -4.418  25.961  0.00  0.00    +0.176 C 
BRANCH  10  11
ATOM     11  O   SER A   1       7.091  -5.350  24.886  0.00  0.00    -0.393 OA
ATOM     12  H   SER A   1       7.503  -4.895  24.130  0.00  0.00    +0.209 HD
ENDBRANCH  10  11
ENDBRANCH   9  10
BRANCH   9  13
ATOM     13  CB  SER A   1       9.402  -5.101  26.282  0.00  0.00    +0.176 C 
BRANCH  13  14
ATOM     14  OG  SER A   1      10.082  -5.103  25.029  0.00  0.00    -0.393 OA
ATOM     15  H   SER A   1      10.325  -4.171  24.868  0.00  0.00    +0.209 HD
ENDBRANCH  13  14
ENDBRANCH   9  13
ENDBRANCH   7   9
ENDBRANCH   1   7
BRANCH   2  16
ATOM     16  O   UNK A   0       8.692  -3.626  23.002  0.00  0.00    -0.388 OA
ATOM     17  H   UNK A   0       9.564  -3.698  22.573  0.00  0.00    +0.210 HD
ENDBRANCH   2  16
BRANCH   3  18
ATOM     18  O   UNK A   0      10.117  -1.517  21.618  0.00  0.00    -0.387 OA
ATOM     19  H   UNK A   0       9.458  -2.117  21.208  0.00  0.00    +0.210 HD
ENDBRANCH   3  18
BRANCH   4  20
ATOM     20  O   UNK A   0      10.773   0.761  23.229  0.00  0.00    -0.386 OA
ATOM     21  H   UNK A   0      10.727   1.324  22.431  0.00  0.00    +0.210 HD
ENDBRANCH   4  20
BRANCH   5  22
ATOM     22  O   UNK A   0       9.923   0.220  25.649  0.00  0.00    -0.384 OA
ATOM     23  H   UNK A   0      10.771   0.389  25.194  0.00  0.00    +0.210 HD
ENDBRANCH   5  22
BRANCH   5  24
ATOM     24  C   UNK A   0       8.330   1.825  24.779  0.00  0.00    +0.193 C 
BRANCH  24  25
ATOM     25  O   UNK A   0       9.318   2.814  24.514  0.00  0.00    -0.392 OA
ATOM     26  H   UNK A   0      10.177   2.360  24.412  0.00  0.00    +0.210 HD
ENDBRANCH  24  25
ENDBRANCH   5  24
TORSDOF 12
ENDMDL
MODEL 6
REMARK VINA RESULT:      -5.0      2.250      2.945
REMARK  Name = 
REMARK  12 active torsions:
REMARK  status: ('A' for Active; 'I' for Inactive)
REMARK    1  A    between atoms: O_1  and  C_2
REMARK    2  A    between atoms: C_2  and  CA_3
REMARK    3  A    between atoms: CA_3  and  CB_4
REMARK    4  A    between atoms: CA_3  and  N_6
REMARK    5  A    between atoms: CB_4  and  OG_5
REMARK    6  A    between atoms: N_6  and  C_7
REMARK    7  A    between atoms: C_10  and  O_11
REMARK    8  A    between atoms: C_10  and  C_12
REMARK    9  A    between atoms: C_12  and  O_13
REMARK   10  A    between atoms: C_14  and  O_16
REMARK   11  A    between atoms: C_17  and  O_19
REMARK   12  A    between atoms: C_20  and  O_22
REMARK                            x       y       z     vdW  Elec       q    Type
REMARK                         _______ _______ _______ _____ _____    ______ ____
ROOT
ATOM      1  C   UNK A   0       8.982  -1.931  22.764  0.00  0.00    +0.088 C 
ATOM      2  C   UNK A   0       9.675  -1.597  24.106  0.00  0.00    +0.162 C 
ATOM      3  C   UNK A   0       8.986  -0.416  24.814  0.00  0.00    +0.176 C 
ATOM      4  C   UNK A   0       8.969   0.848  23.942  0.00  0.00    +0.179 C 
ATOM      5  C   UNK A   0       8.422   0.610  22.508  0.00  0.00    +0.119 C 
ATOM      6  C   UNK A   0       8.974  -0.682  21.868  0.00  0.00    +0.061 C 
ENDROOT
BRANCH   1   7
ATOM      7  N   SER A   1       7.668  -2.534  23.086  0.00  0.00    -0.304 NA
ATOM      8  H   SER A   1       7.689  -2.747  24.089  0.00  0.00    +0.123 HD
BRANCH   7   9
ATOM      9  CA  SER A   1       7.316  -3.779  22.363  0.00  0.00    +0.105 C 
BRANCH   9  10
ATOM     10  C   SER A   1       7.305  -5.055  23.230  0.00  0.00    +0.176 C 
BRANCH  10  11
ATOM     11  O   SER A   1       8.573  -5.287  23.837  0.00  0.00    -0.393 OA
ATOM     12  H   SER A   1       8.487  -5.091  24.787  0.00  0.00    +0.209 HD
ENDBRANCH  10  11
ENDBRANCH   9  10
BRANCH   9  13
ATOM     13  CB  SER A   1       5.901  -3.599  21.749  0.00  0.00    +0.176 C 
BRANCH  13  14
ATOM     14  OG  SER A   1       5.089  -4.748  21.987  0.00  0.00    -0.393 OA
ATOM     15  H   SER A   1       4.531  -4.837  21.191  0.00  0.00    +0.209 HD
ENDBRANCH  13  14
ENDBRANCH   9  13
ENDBRANCH   7   9
ENDBRANCH   1   7
BRANCH   2  16
ATOM     16  O   UNK A   0       9.640  -2.797  24.903  0.00  0.00    -0.388 OA
ATOM     17  H   UNK A   0       9.533  -2.516  25.830  0.00  0.00    +0.210 HD
ENDBRANCH   2  16
BRANCH   3  18
ATOM     18  O   UNK A   0       9.684  -0.130  26.033  0.00  0.00    -0.387 OA
ATOM     19  H   UNK A   0      10.130   0.733  25.891  0.00  0.00    +0.210 HD
ENDBRANCH   3  18
BRANCH   4  20
ATOM     20  O   UNK A   0       8.135   1.815  24.607  0.00  0.00    -0.386 OA
ATOM     21  H   UNK A   0       8.381   2.673  24.208  0.00  0.00    +0.210 HD
ENDBRANCH   4  20
BRANCH   5  22
ATOM     22  O   UNK A   0       6.991   0.534  22.625  0.00  0.00    -0.384 OA
ATOM     23  H   UNK A   0       6.612   0.518  21.725  0.00  0.00    +0.210 HD
ENDBRANCH   5  22
BRANCH   5  24
ATOM     24  C   UNK A   0       8.771   1.814  21.590  0.00  0.00    +0.193 C 
BRANCH  24  25
ATOM     25  O   UNK A   0      10.149   2.168  21.610  0.00  0.00    -0.392 OA
ATOM     26  H   UNK A   0      10.208   3.142  21.663  0.00  0.00    +0.210 HD
ENDBRANCH  24  25
ENDBRANCH   5  24
TORSDOF 12
ENDMDL
MODEL 7
REMARK VINA RESULT:      -4.9      2.445      5.144
REMARK  Name = 
REMARK  12 active torsions:
REMARK  status: ('A' for Active; 'I' for Inactive)
REMARK    1  A    between atoms: O_1  and  C_2
REMARK    2  A    between atoms: C_2  and  CA_3
REMARK    3  A    between atoms: CA_3  and  CB_4
REMARK    4  A    between atoms: CA_3  and  N_6
REMARK    5  A    between atoms: CB_4  and  OG_5
REMARK    6  A    between atoms: N_6  and  C_7
REMARK    7  A    between atoms: C_10  and  O_11
REMARK    8  A    between atoms: C_10  and  C_12
REMARK    9  A    between atoms: C_12  and  O_13
REMARK   10  A    between atoms: C_14  and  O_16
REMARK   11  A    between atoms: C_17  and  O_19
REMARK   12  A    between atoms: C_20  and  O_22
REMARK                            x       y       z     vdW  Elec       q    Type
REMARK                         _______ _______ _______ _____ _____    ______ ____
ROOT
ATOM      1  C   UNK A   0       7.632  -0.803  24.288  0.00  0.00    +0.088 C 
ATOM      2  C   UNK A   0       7.873  -1.758  25.480  0.00  0.00    +0.162 C 
ATOM      3  C   UNK A   0       8.282  -3.162  25.001  0.00  0.00    +0.176 C 
ATOM      4  C   UNK A   0       7.226  -3.786  24.077  0.00  0.00    +0.179 C 
ATOM      5  C   UNK A   0       6.792  -2.859  22.908  0.00  0.00    +0.119 C 
ATOM      6  C   UNK A   0       6.562  -1.400  23.361  0.00  0.00    +0.061 C 
ENDROOT
BRANCH   1   7
ATOM      7  N   SER A   1       8.954  -0.511  23.685  0.00  0.00    -0.304 NA
ATOM      8  H   SER A   1       9.654  -0.813  24.372  0.00  0.00    +0.123 HD
BRANCH   7   9
ATOM      9  CA  SER A   1       9.229   0.906  23.347  0.00  0.00    +0.105 C 
BRANCH   9  10
ATOM     10  C   SER A   1      10.378   1.554  24.146  0.00  0.00    +0.176 C 
BRANCH  10  11
ATOM     11  O   SER A   1      10.789   0.733  25.235  0.00  0.00    -0.393 OA
ATOM     12  H   SER A   1      11.758   0.797  25.305  0.00  0.00    +0.209 HD
ENDBRANCH  10  11
ENDBRANCH   9  10
BRANCH   9  13
ATOM     13  CB  SER A   1       9.586   0.982  21.838  0.00  0.00    +0.176 C 
BRANCH  13  14
ATOM     14  OG  SER A   1      10.192   2.233  21.517  0.00  0.00    -0.393 OA
ATOM     15  H   SER A   1      10.753   2.054  20.738  0.00  0.00    +0.209 HD
ENDBRANCH  13  14
ENDBRANCH   9  13
ENDBRANCH   7   9
ENDBRANCH   1   7
BRANCH   2  16
ATOM     16  O   UNK A   0       8.890  -1.151  26.303  0.00  0.00    -0.388 OA
ATOM     17  H   UNK A   0       8.428  -0.609  26.967  0.00  0.00    +0.210 HD
ENDBRANCH   2  16
BRANCH   3  18
ATOM     18  O   UNK A   0       8.462  -4.012  26.141  0.00  0.00    -0.387 OA
ATOM     19  H   UNK A   0       8.723  -3.420  26.879  0.00  0.00    +0.210 HD
ENDBRANCH   3  18
BRANCH   4  20
ATOM     20  O   UNK A   0       7.794  -4.991  23.531  0.00  0.00    -0.386 OA
ATOM     21  H   UNK A   0       7.812  -4.844  22.565  0.00  0.00    +0.210 HD
ENDBRANCH   4  20
BRANCH   5  22
ATOM     22  O   UNK A   0       7.845  -2.915  21.931  0.00  0.00    -0.384 OA
ATOM     23  H   UNK A   0       8.528  -3.534  22.255  0.00  0.00    +0.210 HD
ENDBRANCH   5  22
BRANCH   5  24
ATOM     24  C   UNK A   0       5.490  -3.392  22.251  0.00  0.00    +0.193 C 
BRANCH  24  25
ATOM     25  O   UNK A   0       5.695  -4.520  21.408  0.00  0.00    -0.392 OA
ATOM     26  H   UNK A   0       4.897  -5.081  21.458  0.00  0.00    +0.210 HD
ENDBRANCH  24  25
ENDBRANCH   5  24
TORSDOF 12
ENDMDL
MODEL 8
REMARK VINA RESULT:      -4.9      2.860      6.656
REMARK  Name = 
REMARK  12 active torsions:
REMARK  status: ('A' for Active; 'I' for Inactive)
REMARK    1  A    between atoms: O_1  and  C_2
REMARK    2  A    between atoms: C_2  and  CA_3
REMARK    3  A    between atoms: CA_3  and  CB_4
REMARK    4  A    between atoms: CA_3  and  N_6
REMARK    5  A    between atoms: CB_4  and  OG_5
REMARK    6  A    between atoms: N_6  and  C_7
REMARK    7  A    between atoms: C_10  and  O_11
REMARK    8  A    between atoms: C_10  and  C_12
REMARK    9  A    between atoms: C_12  and  O_13
REMARK   10  A    between atoms: C_14  and  O_16
REMARK   11  A    between atoms: C_17  and  O_19
REMARK   12  A    between atoms: C_20  and  O_22
REMARK                            x       y       z     vdW  Elec       q    Type
REMARK                         _______ _______ _______ _____ _____    ______ ____
ROOT
ATOM      1  C   UNK A   0       9.582   2.132  23.820  0.00  0.00    +0.088 C 
ATOM      2  C   UNK A   0      10.002   1.381  22.535  0.00  0.00    +0.162 C 
ATOM      3  C   UNK A   0       9.019   0.245  22.202  0.00  0.00    +0.176 C 
ATOM      4  C   UNK A   0       8.903  -0.771  23.348  0.00  0.00    +0.179 C 
ATOM      5  C   UNK A   0       8.619  -0.122  24.731  0.00  0.00    +0.119 C 
ATOM      6  C   UNK A   0       9.480   1.135  24.985  0.00  0.00    +0.061 C 
ENDROOT
BRANCH   1   7
ATOM      7  N   SER A   1       8.364   2.911  23.495  0.00  0.00    -0.304 NA
ATOM      8  H   SER A   1       8.278   2.894  22.473  0.00  0.00    +0.123 HD
BRANCH   7   9
ATOM      9  CA  SER A   1       8.348   4.327  23.932  0.00  0.00    +0.105 C 
BRANCH   9  10
ATOM     10  C   SER A   1       9.739   4.982  24.064  0.00  0.00    +0.176 C 
BRANCH  10  11
ATOM     11  O   SER A   1      10.018   5.846  22.966  0.00  0.00    -0.393 OA
ATOM     12  H   SER A   1       9.373   6.576  22.992  0.00  0.00    +0.209 HD
ENDBRANCH  10  11
ENDBRANCH   9  10
BRANCH   9  13
ATOM     13  CB  SER A   1       7.525   5.143  22.899  0.00  0.00    +0.176 C 
BRANCH  13  14
ATOM     14  OG  SER A   1       7.513   4.497  21.627  0.00  0.00    -0.393 OA
ATOM     15  H   SER A   1       7.280   5.196  20.986  0.00  0.00    +0.209 HD
ENDBRANCH  13  14
ENDBRANCH   9  13
ENDBRANCH   7   9
ENDBRANCH   1   7
BRANCH   2  16
ATOM     16  O   UNK A   0      10.068   2.363  21.481  0.00  0.00    -0.388 OA
ATOM     17  H   UNK A   0       9.379   3.025  21.670  0.00  0.00    +0.210 HD
ENDBRANCH   2  16
BRANCH   3  18
ATOM     18  O   UNK A   0       9.470  -0.435  21.023  0.00  0.00    -0.387 OA
ATOM     19  H   UNK A   0      10.444  -0.313  20.999  0.00  0.00    +0.210 HD
ENDBRANCH   3  18
BRANCH   4  20
ATOM     20  O   UNK A   0       7.822  -1.663  23.020  0.00  0.00    -0.386 OA
ATOM     21  H   UNK A   0       8.232  -2.550  22.981  0.00  0.00    +0.210 HD
ENDBRANCH   4  20
BRANCH   5  22
ATOM     22  O   UNK A   0       7.224   0.221  24.741  0.00  0.00    -0.384 OA
ATOM     23  H   UNK A   0       7.128   1.091  25.176  0.00  0.00    +0.210 HD
ENDBRANCH   5  22
BRANCH   5  24
ATOM     24  C   UNK A   0       8.876  -1.146  25.870  0.00  0.00    +0.193 C 
BRANCH  24  25
ATOM     25  O   UNK A   0       9.182  -0.543  27.123  0.00  0.00    -0.392 OA
ATOM     26  H   UNK A   0      10.146  -0.388  27.154  0.00  0.00    +0.210 HD
ENDBRANCH  24  25
ENDBRANCH   5  24
TORSDOF 12
ENDMDL
MODEL 9
REMARK VINA RESULT:      -4.9      1.991      3.690
REMARK  Name = 
REMARK  12 active torsions:
REMARK  status: ('A' for Active; 'I' for Inactive)
REMARK    1  A    between atoms: O_1  and  C_2
REMARK    2  A    between atoms: C_2  and  CA_3
REMARK    3  A    between atoms: CA_3  and  CB_4
REMARK    4  A    between atoms: CA_3  and  N_6
REMARK    5  A    between atoms: CB_4  and  OG_5
REMARK    6  A    between atoms: N_6  and  C_7
REMARK    7  A    between atoms: C_10  and  O_11
REMARK    8  A    between atoms: C_10  and  C_12
REMARK    9  A    between atoms: C_12  and  O_13
REMARK   10  A    between atoms: C_14  and  O_16
REMARK   11  A    between atoms: C_17  and  O_19
REMARK   12  A    between atoms: C_20  and  O_22
REMARK                            x       y       z     vdW  Elec       q    Type
REMARK                         _______ _______ _______ _____ _____    ______ ____
ROOT
ATOM      1  C   UNK A   0       8.377  -0.782  23.159  0.00  0.00    +0.088 C 
ATOM      2  C   UNK A   0       8.831   0.152  22.014  0.00  0.00    +0.162 C 
ATOM      3  C   UNK A   0       9.802   1.232  22.522  0.00  0.00    +0.176 C 
ATOM      4  C   UNK A   0       9.182   2.087  23.636  0.00  0.00    +0.179 C 
ATOM      5  C   UNK A   0       8.559   1.253  24.790  0.00  0.00    +0.119 C 
ATOM      6  C   UNK A   0       7.734   0.053  24.276  0.00  0.00    +0.061 C 
ENDROOT
BRANCH   1   7
ATOM      7  N   SER A   1       9.543  -1.617  23.532  0.00  0.00    -0.304 NA
ATOM      8  H   SER A   1      10.279  -1.402  22.851  0.00  0.00    +0.123 HD
BRANCH   7   9
ATOM      9  CA  SER A   1       9.333  -3.085  23.531  0.00  0.00    +0.105 C 
BRANCH   9  10
ATOM     10  C   SER A   1       9.486  -3.765  24.906  0.00  0.00    +0.176 C 
BRANCH  10  11
ATOM     11  O   SER A   1       9.973  -5.099  24.780  0.00  0.00    -0.393 OA
ATOM     12  H   SER A   1       9.393  -5.567  24.152  0.00  0.00    +0.209 HD
ENDBRANCH  10  11
ENDBRANCH   9  10
BRANCH   9  13
ATOM     13  CB  SER A   1       7.899  -3.368  23.008  0.00  0.00    +0.176 C 
BRANCH  13  14
ATOM     14  OG  SER A   1       7.177  -4.199  23.915  0.00  0.00    -0.393 OA
ATOM     15  H   SER A   1       6.235  -4.051  23.705  0.00  0.00    +0.209 HD
ENDBRANCH  13  14
ENDBRANCH   9  13
ENDBRANCH   7   9
ENDBRANCH   1   7
BRANCH   2  16
ATOM     16  O   UNK A   0       9.434  -0.685  21.006  0.00  0.00    -0.388 OA
ATOM     17  H   UNK A   0       8.754  -0.842  20.326  0.00  0.00    +0.210 HD
ENDBRANCH   2  16
BRANCH   3  18
ATOM     18  O   UNK A   0      10.167   2.087  21.430  0.00  0.00    -0.387 OA
ATOM     19  H   UNK A   0      10.952   2.591  21.734  0.00  0.00    +0.210 HD
ENDBRANCH   3  18
BRANCH   4  20
ATOM     20  O   UNK A   0      10.229   2.917  24.172  0.00  0.00    -0.386 OA
ATOM     21  H   UNK A   0      10.135   3.771  23.705  0.00  0.00    +0.210 HD
ENDBRANCH   4  20
BRANCH   5  22
ATOM     22  O   UNK A   0       9.656   0.793  25.597  0.00  0.00    -0.384 OA
ATOM     23  H   UNK A   0       9.287   0.375  26.401  0.00  0.00    +0.210 HD
ENDBRANCH   5  22
BRANCH   5  24
ATOM     24  C   UNK A   0       7.648   2.149  25.673  0.00  0.00    +0.193 C 
BRANCH  24  25
ATOM     25  O   UNK A   0       7.996   3.528  25.640  0.00  0.00    -0.392 OA
ATOM     26  H   UNK A   0       7.757   3.919  26.502  0.00  0.00    +0.210 HD
ENDBRANCH  24  25
ENDBRANCH   5  24
TORSDOF 12
ENDMDL
