MODEL 1
REMARK VINA RESULT:      -7.1      0.000      0.000
REMARK  Name = 
REMARK  8 active torsions:
REMARK  status: ('A' for Active; 'I' for Inactive)
REMARK    1  A    between atoms: C_1  and  C_2
REMARK    2  A    between atoms: C_2  and  N_3
REMARK    3  A    between atoms: C_4  and  C_6
REMARK    4  A    between atoms: C_9  and  C_16
REMARK    5  A    between atoms: C_22  and  O_23
REMARK    6  A    between atoms: O_23  and  C_24
REMARK    7  A    between atoms: C_24  and  C_25
REMARK    8  A    between atoms: C_25  and  N_26
REMARK                            x       y       z     vdW  Elec       q    Type
REMARK                         _______ _______ _______ _____ _____    ______ ____
ROOT
ATOM      1  C   UNL     1       8.559  -0.982  22.687  0.00  0.00    +0.076 A 
ATOM      2  S   UNL     1       9.927  -1.479  23.578  0.00  0.00    -0.064 S 
ATOM      3  C   UNL     1       9.198  -2.957  23.999  0.00  0.00    +0.115 A 
ATOM      4  C   UNL     1       7.881  -3.063  23.578  0.00  0.00    +0.035 A 
ATOM      5  C   UNL     1       7.184  -4.186  24.072  0.00  0.00    +0.086 A 
ATOM      6  N   UNL     1       7.909  -5.136  24.742  0.00  0.00    -0.214 NA
ATOM      7  C   UNL     1       9.213  -4.962  24.961  0.00  0.00    +0.214 A 
ATOM      8  N   UNL     1       9.908  -6.011  25.524  0.00  0.00    -0.327 N 
ATOM      9  H   UNL     1      10.753  -5.680  25.970  0.00  0.00    +0.145 HD
ATOM     10  H   UNL     1       9.299  -6.617  26.051  0.00  0.00    +0.145 HD
ATOM     11  N   UNL     1       9.899  -3.864  24.690  0.00  0.00    -0.207 NA
ATOM     12  C   UNL     1       7.590  -1.971  22.688  0.00  0.00    +0.033 A 
ENDROOT
BRANCH   5  13
ATOM     13  C   UNL     1       5.738  -4.491  23.912  0.00  0.00    +0.023 A 
ATOM     14  C   UNL     1       4.816  -3.742  24.695  0.00  0.00    +0.058 A 
ATOM     15  C   UNL     1       3.424  -3.884  24.585  0.00  0.00    +0.139 A 
ATOM     16  C   UNL     1       2.913  -4.881  23.758  0.00  0.00    +0.084 A 
ATOM     17 CL   UNL     1       1.217  -5.169  23.624  0.00  0.00    -0.080 Cl
ATOM     18  C   UNL     1       3.777  -5.628  22.963  0.00  0.00    +0.044 A 
ATOM     19  C   UNL     1       5.163  -5.389  22.990  0.00  0.00    +0.052 A 
ATOM     20 CL   UNL     1       6.038  -6.143  21.700  0.00  0.00    -0.083 Cl
BRANCH  15  21
ATOM     21  O   UNL     1       2.536  -3.108  25.285  0.00  0.00    -0.489 OA
BRANCH  21  22
ATOM     22  C   UNL     1       2.812  -2.990  26.690  0.00  0.00    +0.244 C 
BRANCH  22  23
ATOM     23  C   UNL     1       2.290  -4.252  27.401  0.00  0.00    +0.125 C 
BRANCH  23  24
ATOM     24  N   UNL     1       3.343  -5.053  28.046  0.00  0.00    -0.299 NA
ATOM     25  C   UNL     1       4.600  -4.318  28.229  0.00  0.00    +0.084 C 
ATOM     26  C   UNL     1       5.704  -5.366  28.189  0.00  0.00    +0.017 C 
ATOM     27  C   UNL     1       5.001  -6.674  27.870  0.00  0.00    +0.017 C 
ATOM     28  C   UNL     1       3.685  -6.238  27.254  0.00  0.00    +0.084 C 
ENDBRANCH  23  24
ENDBRANCH  22  23
ENDBRANCH  21  22
ENDBRANCH  15  21
ENDBRANCH   5  13
BRANCH   1  31
ATOM     29  N   UNL     1       7.463   1.144  22.463  0.00  0.00    -0.311 N 
ATOM     30  H   UNL     1       6.880   0.826  23.227  0.00  0.00    +0.149 HD
ATOM     31  C   UNL     1       8.486   0.317  22.037  0.00  0.00    +0.251 C 
ATOM     32  O   UNL     1       9.261   0.661  21.146  0.00  0.00    -0.270 OA
BRANCH  29  34
ATOM     33  C   UNL     1       7.865   3.536  22.784  0.00  0.00    +0.024 C 
ATOM     34  C   UNL     1       7.238   2.462  21.915  0.00  0.00    +0.101 C 
ENDBRANCH  29  34
ENDBRANCH   1  31
TORSDOF 7
ENDMDL
MODEL 2
REMARK VINA RESULT:      -7.0      4.837      7.899
REMARK  Name = 
REMARK  8 active torsions:
REMARK  status: ('A' for Active; 'I' for Inactive)
REMARK    1  A    between atoms: C_1  and  C_2
REMARK    2  A    between atoms: C_2  and  N_3
REMARK    3  A    between atoms: C_4  and  C_6
REMARK    4  A    between atoms: C_9  and  C_16
REMARK    5  A    between atoms: C_22  and  O_23
REMARK    6  A    between atoms: O_23  and  C_24
REMARK    7  A    between atoms: C_24  and  C_25
REMARK    8  A    between atoms: C_25  and  N_26
REMARK                            x       y       z     vdW  Elec       q    Type
REMARK                         _______ _______ _______ _____ _____    ______ ____
ROOT
ATOM      1  C   UNL     1       8.800   5.217  23.791  0.00  0.00    +0.076 A 
ATOM      2  S   UNL     1       7.606   5.896  22.778  0.00  0.00    -0.064 S 
ATOM      3  C   UNL     1       6.506   4.648  23.128  0.00  0.00    +0.115 A 
ATOM      4  C   UNL     1       7.044   3.642  23.917  0.00  0.00    +0.035 A 
ATOM      5  C   UNL     1       6.228   2.500  24.067  0.00  0.00    +0.086 A 
ATOM      6  N   UNL     1       4.945   2.572  23.594  0.00  0.00    -0.214 NA
ATOM      7  C   UNL     1       4.516   3.667  22.965  0.00  0.00    +0.214 A 
ATOM      8  N   UNL     1       3.181   3.725  22.630  0.00  0.00    -0.327 N 
ATOM      9  H   UNL     1       3.030   4.381  21.876  0.00  0.00    +0.145 HD
ATOM     10  H   UNL     1       2.780   2.804  22.546  0.00  0.00    +0.145 HD
ATOM     11  N   UNL     1       5.265   4.704  22.628  0.00  0.00    -0.207 NA
ATOM     12  C   UNL     1       8.322   4.076  24.412  0.00  0.00    +0.033 A 
ENDROOT
BRANCH   5  13
ATOM     13  C   UNL     1       6.587   1.219  24.730  0.00  0.00    +0.023 A 
ATOM     14  C   UNL     1       6.763   0.075  23.902  0.00  0.00    +0.058 A 
ATOM     15  C   UNL     1       7.171  -1.174  24.395  0.00  0.00    +0.139 A 
ATOM     16  C   UNL     1       7.300  -1.343  25.772  0.00  0.00    +0.084 A 
ATOM     17 CL   UNL     1       7.725  -2.866  26.464  0.00  0.00    -0.080 Cl
ATOM     18  C   UNL     1       7.151  -0.249  26.618  0.00  0.00    +0.044 A 
ATOM     19  C   UNL     1       6.866   1.027  26.098  0.00  0.00    +0.052 A 
ATOM     20 CL   UNL     1       7.067   2.318  27.235  0.00  0.00    -0.083 Cl
BRANCH  15  21
ATOM     21  O   UNL     1       7.414  -2.255  23.587  0.00  0.00    -0.489 OA
BRANCH  21  22
ATOM     22  C   UNL     1       8.237  -1.980  22.443  0.00  0.00    +0.244 C 
BRANCH  22  23
ATOM     23  C   UNL     1       9.709  -1.943  22.893  0.00  0.00    +0.125 C 
BRANCH  23  24
ATOM     24  N   UNL     1      10.352  -0.630  22.728  0.00  0.00    -0.299 NA
ATOM     25  C   UNL     1      10.495   0.106  23.990  0.00  0.00    +0.084 C 
ATOM     26  C   UNL     1      10.457   1.583  23.616  0.00  0.00    +0.017 C 
ATOM     27  C   UNL     1      10.179   1.609  22.124  0.00  0.00    +0.017 C 
ATOM     28  C   UNL     1       9.579   0.245  21.841  0.00  0.00    +0.084 C 
ENDBRANCH  23  24
ENDBRANCH  22  23
ENDBRANCH  21  22
ENDBRANCH  15  21
ENDBRANCH   5  13
BRANCH   1  31
ATOM     29  N   UNL     1      11.158   5.112  23.344  0.00  0.00    -0.311 N 
ATOM     30  H   UNL     1      10.931   4.288  22.804  0.00  0.00    +0.149 HD
ATOM     31  C   UNL     1      10.121   5.808  23.938  0.00  0.00    +0.251 C 
ATOM     32  O   UNL     1      10.321   6.844  24.570  0.00  0.00    -0.270 OA
BRANCH  29  34
ATOM     33  C   UNL     1      13.179   5.539  22.031  0.00  0.00    +0.024 C 
ATOM     34  C   UNL     1      12.535   5.551  23.404  0.00  0.00    +0.101 C 
ENDBRANCH  29  34
ENDBRANCH   1  31
TORSDOF 7
ENDMDL
MODEL 3
REMARK VINA RESULT:      -7.0      3.641      6.408
REMARK  Name = 
REMARK  8 active torsions:
REMARK  status: ('A' for Active; 'I' for Inactive)
REMARK    1  A    between atoms: C_1  and  C_2
REMARK    2  A    between atoms: C_2  and  N_3
REMARK    3  A    between atoms: C_4  and  C_6
REMARK    4  A    between atoms: C_9  and  C_16
REMARK    5  A    between atoms: C_22  and  O_23
REMARK    6  A    between atoms: O_23  and  C_24
REMARK    7  A    between atoms: C_24  and  C_25
REMARK    8  A    between atoms: C_25  and  N_26
REMARK                            x       y       z     vdW  Elec       q    Type
REMARK                         _______ _______ _______ _____ _____    ______ ____
ROOT
ATOM      1  C   UNL     1       9.704   4.550  23.749  0.00  0.00    +0.076 A 
ATOM      2  S   UNL     1       8.253   5.287  23.232  0.00  0.00    -0.064 S 
ATOM      3  C   UNL     1       7.372   3.848  23.441  0.00  0.00    +0.115 A 
ATOM      4  C   UNL     1       8.161   2.762  23.792  0.00  0.00    +0.035 A 
ATOM      5  C   UNL     1       7.499   1.516  23.785  0.00  0.00    +0.086 A 
ATOM      6  N   UNL     1       6.139   1.522  23.626  0.00  0.00    -0.214 NA
ATOM      7  C   UNL     1       5.486   2.668  23.427  0.00  0.00    +0.214 A 
ATOM      8  N   UNL     1       4.109   2.619  23.404  0.00  0.00    -0.327 N 
ATOM      9  H   UNL     1       3.732   3.415  22.908  0.00  0.00    +0.145 HD
ATOM     10  H   UNL     1       3.776   1.701  23.152  0.00  0.00    +0.145 HD
ATOM     11  N   UNL     1       6.047   3.851  23.243  0.00  0.00    -0.207 NA
ATOM     12  C   UNL     1       9.480   3.234  24.114  0.00  0.00    +0.033 A 
ENDROOT
BRANCH   5  13
ATOM     13  C   UNL     1       8.106   0.173  23.978  0.00  0.00    +0.023 A 
ATOM     14  C   UNL     1       7.633  -0.614  25.065  0.00  0.00    +0.058 A 
ATOM     15  C   UNL     1       8.074  -1.924  25.313  0.00  0.00    +0.139 A 
ATOM     16  C   UNL     1       9.103  -2.445  24.533  0.00  0.00    +0.084 A 
ATOM     17 CL   UNL     1       9.752  -4.019  24.820  0.00  0.00    -0.080 Cl
ATOM     18  C   UNL     1       9.586  -1.717  23.451  0.00  0.00    +0.044 A 
ATOM     19  C   UNL     1       9.048  -0.455  23.137  0.00  0.00    +0.052 A 
ATOM     20 CL   UNL     1       9.502   0.144  21.578  0.00  0.00    -0.083 Cl
BRANCH  15  21
ATOM     21  O   UNL     1       7.562  -2.708  26.314  0.00  0.00    -0.489 OA
BRANCH  21  22
ATOM     22  C   UNL     1       6.135  -2.866  26.289  0.00  0.00    +0.244 C 
BRANCH  22  23
ATOM     23  C   UNL     1       5.807  -4.306  25.852  0.00  0.00    +0.125 C 
BRANCH  23  24
ATOM     24  N   UNL     1       5.522  -4.444  24.414  0.00  0.00    -0.299 NA
ATOM     25  C   UNL     1       6.639  -5.020  23.656  0.00  0.00    +0.084 C 
ATOM     26  C   UNL     1       6.524  -4.449  22.248  0.00  0.00    +0.017 C 
ATOM     27  C   UNL     1       5.371  -3.463  22.311  0.00  0.00    +0.017 C 
ATOM     28  C   UNL     1       5.242  -3.148  23.789  0.00  0.00    +0.084 C 
ENDBRANCH  23  24
ENDBRANCH  22  23
ENDBRANCH  21  22
ENDBRANCH  15  21
ENDBRANCH   5  13
BRANCH   1  31
ATOM     29  N   UNL     1      12.023   4.648  23.131  0.00  0.00    -0.311 N 
ATOM     30  H   UNL     1      11.837   3.786  22.634  0.00  0.00    +0.149 HD
ATOM     31  C   UNL     1      10.970   5.266  23.778  0.00  0.00    +0.251 C 
ATOM     32  O   UNL     1      11.114   6.340  24.361  0.00  0.00    -0.270 OA
BRANCH  29  34
ATOM     33  C   UNL     1      13.600   5.912  21.750  0.00  0.00    +0.024 C 
ATOM     34  C   UNL     1      13.352   5.214  23.074  0.00  0.00    +0.101 C 
ENDBRANCH  29  34
ENDBRANCH   1  31
TORSDOF 7
ENDMDL
MODEL 4
REMARK VINA RESULT:      -6.8      3.226      8.258
REMARK  Name = 
REMARK  8 active torsions:
REMARK  status: ('A' for Active; 'I' for Inactive)
REMARK    1  A    between atoms: C_1  and  C_2
REMARK    2  A    between atoms: C_2  and  N_3
REMARK    3  A    between atoms: C_4  and  C_6
REMARK    4  A    between atoms: C_9  and  C_16
REMARK    5  A    between atoms: C_22  and  O_23
REMARK    6  A    between atoms: O_23  and  C_24
REMARK    7  A    between atoms: C_24  and  C_25
REMARK    8  A    between atoms: C_25  and  N_26
REMARK                            x       y       z     vdW  Elec       q    Type
REMARK                         _______ _______ _______ _____ _____    ______ ____
ROOT
ATOM      1  C   UNL     1       5.310  -6.385  26.474  0.00  0.00    +0.076 A 
ATOM      2  S   UNL     1       4.480  -6.991  25.111  0.00  0.00    -0.064 S 
ATOM      3  C   UNL     1       5.396  -6.034  24.045  0.00  0.00    +0.115 A 
ATOM      4  C   UNL     1       6.261  -5.162  24.690  0.00  0.00    +0.035 A 
ATOM      5  C   UNL     1       6.894  -4.219  23.852  0.00  0.00    +0.086 A 
ATOM      6  N   UNL     1       6.747  -4.376  22.499  0.00  0.00    -0.214 NA
ATOM      7  C   UNL     1       5.982  -5.353  22.010  0.00  0.00    +0.214 A 
ATOM      8  N   UNL     1       5.981  -5.536  20.644  0.00  0.00    -0.327 N 
ATOM      9  H   UNL     1       5.144  -6.019  20.350  0.00  0.00    +0.145 HD
ATOM     10  H   UNL     1       6.236  -4.690  20.158  0.00  0.00    +0.145 HD
ATOM     11  N   UNL     1       5.218  -6.162  22.724  0.00  0.00    -0.207 NA
ATOM     12  C   UNL     1       6.301  -5.498  26.087  0.00  0.00    +0.033 A 
ENDROOT
BRANCH   5  13
ATOM     13  C   UNL     1       7.755  -3.081  24.266  0.00  0.00    +0.023 A 
ATOM     14  C   UNL     1       8.693  -2.585  23.319  0.00  0.00    +0.058 A 
ATOM     15  C   UNL     1       9.513  -1.471  23.561  0.00  0.00    +0.139 A 
ATOM     16  C   UNL     1       9.496  -0.888  24.826  0.00  0.00    +0.084 A 
ATOM     17 CL   UNL     1      10.527   0.438  25.227  0.00  0.00    -0.080 Cl
ATOM     18  C   UNL     1       8.585  -1.330  25.778  0.00  0.00    +0.044 A 
ATOM     19  C   UNL     1       7.681  -2.366  25.479  0.00  0.00    +0.052 A 
ATOM     20 CL   UNL     1       6.400  -2.545  26.631  0.00  0.00    -0.083 Cl
BRANCH  15  21
ATOM     21  O   UNL     1      10.362  -0.949  22.620  0.00  0.00    -0.489 OA
BRANCH  21  22
ATOM     22  C   UNL     1       9.724  -0.161  21.601  0.00  0.00    +0.244 C 
BRANCH  22  23
ATOM     23  C   UNL     1       9.982   1.327  21.897  0.00  0.00    +0.125 C 
BRANCH  23  24
ATOM     24  N   UNL     1       8.756   2.127  22.050  0.00  0.00    -0.299 NA
ATOM     25  C   UNL     1       8.781   3.004  23.226  0.00  0.00    +0.084 C 
ATOM     26  C   UNL     1       7.327   3.167  23.653  0.00  0.00    +0.017 C 
ATOM     27  C   UNL     1       6.536   2.258  22.729  0.00  0.00    +0.017 C 
ATOM     28  C   UNL     1       7.571   1.280  22.208  0.00  0.00    +0.084 C 
ENDBRANCH  23  24
ENDBRANCH  22  23
ENDBRANCH  21  22
ENDBRANCH  15  21
ENDBRANCH   5  13
BRANCH   1  31
ATOM     29  N   UNL     1       3.770  -6.309  28.315  0.00  0.00    -0.311 N 
ATOM     30  H   UNL     1       3.183  -5.772  27.690  0.00  0.00    +0.149 HD
ATOM     31  C   UNL     1       4.973  -6.788  27.830  0.00  0.00    +0.251 C 
ATOM     32  O   UNL     1       5.713  -7.486  28.521  0.00  0.00    -0.270 OA
BRANCH  29  34
ATOM     33  C   UNL     1       2.202  -7.661  29.621  0.00  0.00    +0.024 C 
ATOM     34  C   UNL     1       3.287  -6.601  29.647  0.00  0.00    +0.101 C 
ENDBRANCH  29  34
ENDBRANCH   1  31
TORSDOF 7
ENDMDL
MODEL 5
REMARK VINA RESULT:      -6.8      1.820      2.470
REMARK  Name = 
REMARK  8 active torsions:
REMARK  status: ('A' for Active; 'I' for Inactive)
REMARK    1  A    between atoms: C_1  and  C_2
REMARK    2  A    between atoms: C_2  and  N_3
REMARK    3  A    between atoms: C_4  and  C_6
REMARK    4  A    between atoms: C_9  and  C_16
REMARK    5  A    between atoms: C_22  and  O_23
REMARK    6  A    between atoms: O_23  and  C_24
REMARK    7  A    between atoms: C_24  and  C_25
REMARK    8  A    between atoms: C_25  and  N_26
REMARK                            x       y       z     vdW  Elec       q    Type
REMARK                         _______ _______ _______ _____ _____    ______ ____
ROOT
ATOM      1  C   UNL     1       8.621  -0.987  22.683  0.00  0.00    +0.076 A 
ATOM      2  S   UNL     1      10.014  -1.593  23.463  0.00  0.00    -0.064 S 
ATOM      3  C   UNL     1       9.203  -3.004  23.957  0.00  0.00    +0.115 A 
ATOM      4  C   UNL     1       7.851  -3.001  23.648  0.00  0.00    +0.035 A 
ATOM      5  C   UNL     1       7.107  -4.061  24.209  0.00  0.00    +0.086 A 
ATOM      6  N   UNL     1       7.804  -5.066  24.826  0.00  0.00    -0.214 NA
ATOM      7  C   UNL     1       9.132  -5.001  24.935  0.00  0.00    +0.214 A 
ATOM      8  N   UNL     1       9.783  -6.102  25.448  0.00  0.00    -0.327 N 
ATOM      9  H   UNL     1      10.686  -5.841  25.819  0.00  0.00    +0.145 HD
ATOM     10  H   UNL     1       9.172  -6.653  26.030  0.00  0.00    +0.145 HD
ATOM     11  N   UNL     1       9.882  -3.965  24.596  0.00  0.00    -0.207 NA
ATOM     12  C   UNL     1       7.578  -1.892  22.775  0.00  0.00    +0.033 A 
ENDROOT
BRANCH   5  13
ATOM     13  C   UNL     1       5.633  -4.245  24.173  0.00  0.00    +0.023 A 
ATOM     14  C   UNL     1       4.848  -3.455  25.058  0.00  0.00    +0.058 A 
ATOM     15  C   UNL     1       3.444  -3.483  25.072  0.00  0.00    +0.139 A 
ATOM     16  C   UNL     1       2.783  -4.406  24.265  0.00  0.00    +0.084 A 
ATOM     17 CL   UNL     1       1.064  -4.554  24.278  0.00  0.00    -0.080 Cl
ATOM     18  C   UNL     1       3.509  -5.189  23.374  0.00  0.00    +0.044 A 
ATOM     19  C   UNL     1       4.907  -5.061  23.280  0.00  0.00    +0.052 A 
ATOM     20 CL   UNL     1       5.600  -5.833  21.894  0.00  0.00    -0.083 Cl
BRANCH  15  21
ATOM     21  O   UNL     1       2.688  -2.666  25.872  0.00  0.00    -0.489 OA
BRANCH  21  22
ATOM     22  C   UNL     1       3.368  -2.157  27.031  0.00  0.00    +0.244 C 
BRANCH  22  23
ATOM     23  C   UNL     1       3.427  -0.622  26.931  0.00  0.00    +0.125 C 
BRANCH  23  24
ATOM     24  N   UNL     1       4.792  -0.072  26.971  0.00  0.00    -0.299 NA
ATOM     25  C   UNL     1       5.300   0.311  25.649  0.00  0.00    +0.084 C 
ATOM     26  C   UNL     1       6.813   0.147  25.722  0.00  0.00    +0.017 C 
ATOM     27  C   UNL     1       7.084  -0.443  27.095  0.00  0.00    +0.017 C 
ATOM     28  C   UNL     1       5.753  -1.044  27.502  0.00  0.00    +0.084 C 
ENDBRANCH  23  24
ENDBRANCH  22  23
ENDBRANCH  21  22
ENDBRANCH  15  21
ENDBRANCH   5  13
BRANCH   1  31
ATOM     29  N   UNL     1       7.585   1.163  22.417  0.00  0.00    -0.311 N 
ATOM     30  H   UNL     1       6.968   0.862  23.160  0.00  0.00    +0.149 HD
ATOM     31  C   UNL     1       8.602   0.312  22.029  0.00  0.00    +0.251 C 
ATOM     32  O   UNL     1       9.416   0.635  21.165  0.00  0.00    -0.270 OA
BRANCH  29  34
ATOM     33  C   UNL     1       7.931   3.556  22.800  0.00  0.00    +0.024 C 
ATOM     34  C   UNL     1       7.410   2.486  21.859  0.00  0.00    +0.101 C 
ENDBRANCH  29  34
ENDBRANCH   1  31
TORSDOF 7
ENDMDL
MODEL 6
REMARK VINA RESULT:      -6.7      3.215      7.724
REMARK  Name = 
REMARK  8 active torsions:
REMARK  status: ('A' for Active; 'I' for Inactive)
REMARK    1  A    between atoms: C_1  and  C_2
REMARK    2  A    between atoms: C_2  and  N_3
REMARK    3  A    between atoms: C_4  and  C_6
REMARK    4  A    between atoms: C_9  and  C_16
REMARK    5  A    between atoms: C_22  and  O_23
REMARK    6  A    between atoms: O_23  and  C_24
REMARK    7  A    between atoms: C_24  and  C_25
REMARK    8  A    between atoms: C_25  and  N_26
REMARK                            x       y       z     vdW  Elec       q    Type
REMARK                         _______ _______ _______ _____ _____    ______ ____
ROOT
ATOM      1  C   UNL     1       3.082  -6.351  23.748  0.00  0.00    +0.076 A 
ATOM      2  S   UNL     1       3.321  -7.333  25.123  0.00  0.00    -0.064 S 
ATOM      3  C   UNL     1       4.707  -6.462  25.584  0.00  0.00    +0.115 A 
ATOM      4  C   UNL     1       5.083  -5.494  24.664  0.00  0.00    +0.035 A 
ATOM      5  C   UNL     1       6.331  -4.885  24.914  0.00  0.00    +0.086 A 
ATOM      6  N   UNL     1       6.942  -5.161  26.109  0.00  0.00    -0.214 NA
ATOM      7  C   UNL     1       6.393  -6.021  26.967  0.00  0.00    +0.214 A 
ATOM      8  N   UNL     1       6.989  -6.155  28.202  0.00  0.00    -0.327 N 
ATOM      9  H   UNL     1       6.746  -7.041  28.622  0.00  0.00    +0.145 HD
ATOM     10  H   UNL     1       7.963  -5.896  28.172  0.00  0.00    +0.145 HD
ATOM     11  N   UNL     1       5.324  -6.764  26.734  0.00  0.00    -0.207 NA
ATOM     12  C   UNL     1       4.035  -5.350  23.690  0.00  0.00    +0.033 A 
ENDROOT
BRANCH   5  13
ATOM     13  C   UNL     1       7.057  -3.927  24.040  0.00  0.00    +0.023 A 
ATOM     14  C   UNL     1       7.579  -2.749  24.644  0.00  0.00    +0.058 A 
ATOM     15  C   UNL     1       8.343  -1.802  23.944  0.00  0.00    +0.139 A 
ATOM     16  C   UNL     1       8.507  -1.954  22.569  0.00  0.00    +0.084 A 
ATOM     17 CL   UNL     1       9.369  -0.795  21.624  0.00  0.00    -0.080 Cl
ATOM     18  C   UNL     1       8.025  -3.097  21.939  0.00  0.00    +0.044 A 
ATOM     19  C   UNL     1       7.370  -4.100  22.676  0.00  0.00    +0.052 A 
ATOM     20 CL   UNL     1       7.160  -5.589  21.818  0.00  0.00    -0.083 Cl
BRANCH  15  21
ATOM     21  O   UNL     1       8.910  -0.707  24.544  0.00  0.00    -0.489 OA
BRANCH  21  22
ATOM     22  C   UNL     1       7.975   0.210  25.135  0.00  0.00    +0.244 C 
BRANCH  22  23
ATOM     23  C   UNL     1       7.271   0.989  24.009  0.00  0.00    +0.125 C 
BRANCH  23  24
ATOM     24  N   UNL     1       7.704   2.390  23.890  0.00  0.00    -0.299 NA
ATOM     25  C   UNL     1       8.975   2.544  23.172  0.00  0.00    +0.084 C 
ATOM     26  C   UNL     1       9.621   3.803  23.736  0.00  0.00    +0.017 C 
ATOM     27  C   UNL     1       8.702   4.255  24.858  0.00  0.00    +0.017 C 
ATOM     28  C   UNL     1       7.910   3.008  25.203  0.00  0.00    +0.084 C 
ENDBRANCH  23  24
ENDBRANCH  22  23
ENDBRANCH  21  22
ENDBRANCH  15  21
ENDBRANCH   5  13
BRANCH   1  31
ATOM     29  N   UNL     1       1.940  -7.863  22.270  0.00  0.00    -0.311 N 
ATOM     30  H   UNL     1       2.598  -8.553  22.609  0.00  0.00    +0.149 HD
ATOM     31  C   UNL     1       2.001  -6.589  22.804  0.00  0.00    +0.251 C 
ATOM     32  O   UNL     1       1.201  -5.715  22.472  0.00  0.00    -0.270 OA
BRANCH  29  34
ATOM     33  C   UNL     1       1.567  -8.642  19.980  0.00  0.00    +0.024 C 
ATOM     34  C   UNL     1       0.939  -8.266  21.309  0.00  0.00    +0.101 C 
ENDBRANCH  29  34
ENDBRANCH   1  31
TORSDOF 7
ENDMDL
MODEL 7
REMARK VINA RESULT:      -6.6      3.376      6.773
REMARK  Name = 
REMARK  8 active torsions:
REMARK  status: ('A' for Active; 'I' for Inactive)
REMARK    1  A    between atoms: C_1  and  C_2
REMARK    2  A    between atoms: C_2  and  N_3
REMARK    3  A    between atoms: C_4  and  C_6
REMARK    4  A    between atoms: C_9  and  C_16
REMARK    5  A    between atoms: C_22  and  O_23
REMARK    6  A    between atoms: O_23  and  C_24
REMARK    7  A    between atoms: C_24  and  C_25
REMARK    8  A    between atoms: C_25  and  N_26
REMARK                            x       y       z     vdW  Elec       q    Type
REMARK                         _______ _______ _______ _____ _____    ______ ____
ROOT
ATOM      1  C   UNL     1       5.552  -5.930  26.168  0.00  0.00    +0.076 A 
ATOM      2  S   UNL     1       4.666  -6.687  24.920  0.00  0.00    -0.064 S 
ATOM      3  C   UNL     1       5.566  -5.897  23.713  0.00  0.00    +0.115 A 
ATOM      4  C   UNL     1       6.468  -4.969  24.214  0.00  0.00    +0.035 A 
ATOM      5  C   UNL     1       7.093  -4.158  23.243  0.00  0.00    +0.086 A 
ATOM      6  N   UNL     1       6.899  -4.484  21.927  0.00  0.00    -0.214 NA
ATOM      7  C   UNL     1       6.100  -5.498  21.591  0.00  0.00    +0.214 A 
ATOM      8  N   UNL     1       6.051  -5.854  20.261  0.00  0.00    -0.327 N 
ATOM      9  H   UNL     1       5.195  -6.352  20.056  0.00  0.00    +0.145 HD
ATOM     10  H   UNL     1       6.307  -5.084  19.662  0.00  0.00    +0.145 HD
ATOM     11  N   UNL     1       5.343  -6.190  22.426  0.00  0.00    -0.207 NA
ATOM     12  C   UNL     1       6.547  -5.124  25.641  0.00  0.00    +0.033 A 
ENDROOT
BRANCH   5  13
ATOM     13  C   UNL     1       7.989  -2.996  23.481  0.00  0.00    +0.023 A 
ATOM     14  C   UNL     1       7.500  -1.705  23.137  0.00  0.00    +0.058 A 
ATOM     15  C   UNL     1       8.218  -0.523  23.377  0.00  0.00    +0.139 A 
ATOM     16  C   UNL     1       9.518  -0.616  23.870  0.00  0.00    +0.084 A 
ATOM     17 CL   UNL     1      10.494   0.785  24.123  0.00  0.00    -0.080 Cl
ATOM     18  C   UNL     1      10.032  -1.856  24.234  0.00  0.00    +0.044 A 
ATOM     19  C   UNL     1       9.253  -3.021  24.105  0.00  0.00    +0.052 A 
ATOM     20 CL   UNL     1       9.900  -4.402  24.925  0.00  0.00    -0.083 Cl
BRANCH  15  21
ATOM     21  O   UNL     1       7.715   0.724  23.115  0.00  0.00    -0.489 OA
BRANCH  21  22
ATOM     22  C   UNL     1       6.497   1.042  23.806  0.00  0.00    +0.244 C 
BRANCH  22  23
ATOM     23  C   UNL     1       6.827   1.317  25.285  0.00  0.00    +0.125 C 
BRANCH  23  24
ATOM     24  N   UNL     1       6.232   0.350  26.220  0.00  0.00    -0.299 NA
ATOM     25  C   UNL     1       7.203  -0.614  26.752  0.00  0.00    +0.084 C 
ATOM     26  C   UNL     1       6.411  -1.880  27.051  0.00  0.00    +0.017 C 
ATOM     27  C   UNL     1       5.003  -1.595  26.559  0.00  0.00    +0.017 C 
ATOM     28  C   UNL     1       5.185  -0.451  25.580  0.00  0.00    +0.084 C 
ENDBRANCH  23  24
ENDBRANCH  22  23
ENDBRANCH  21  22
ENDBRANCH  15  21
ENDBRANCH   5  13
BRANCH   1  31
ATOM     29  N   UNL     1       4.701  -5.068  28.243  0.00  0.00    -0.311 N 
ATOM     30  H   UNL     1       4.489  -4.235  27.709  0.00  0.00    +0.149 HD
ATOM     31  C   UNL     1       5.250  -6.146  27.575  0.00  0.00    +0.251 C 
ATOM     32  O   UNL     1       5.489  -7.206  28.151  0.00  0.00    -0.270 OA
BRANCH  29  34
ATOM     33  C   UNL     1       4.014  -3.724  30.169  0.00  0.00    +0.024 C 
ATOM     34  C   UNL     1       4.353  -5.107  29.645  0.00  0.00    +0.101 C 
ENDBRANCH  29  34
ENDBRANCH   1  31
TORSDOF 7
ENDMDL
MODEL 8
REMARK VINA RESULT:      -6.4      3.736      6.448
REMARK  Name = 
REMARK  8 active torsions:
REMARK  status: ('A' for Active; 'I' for Inactive)
REMARK    1  A    between atoms: C_1  and  C_2
REMARK    2  A    between atoms: C_2  and  N_3
REMARK    3  A    between atoms: C_4  and  C_6
REMARK    4  A    between atoms: C_9  and  C_16
REMARK    5  A    between atoms: C_22  and  O_23
REMARK    6  A    between atoms: O_23  and  C_24
REMARK    7  A    between atoms: C_24  and  C_25
REMARK    8  A    between atoms: C_25  and  N_26
REMARK                            x       y       z     vdW  Elec       q    Type
REMARK                         _______ _______ _______ _____ _____    ______ ____
ROOT
ATOM      1  C   UNL     1       5.190   3.371  22.900  0.00  0.00    +0.076 A 
ATOM      2  S   UNL     1       5.938   4.879  23.184  0.00  0.00    -0.064 S 
ATOM      3  C   UNL     1       7.472   4.162  23.343  0.00  0.00    +0.115 A 
ATOM      4  C   UNL     1       7.441   2.776  23.299  0.00  0.00    +0.035 A 
ATOM      5  C   UNL     1       8.660   2.141  23.620  0.00  0.00    +0.086 A 
ATOM      6  N   UNL     1       9.771   2.932  23.751  0.00  0.00    -0.214 NA
ATOM      7  C   UNL     1       9.675   4.258  23.635  0.00  0.00    +0.214 A 
ATOM      8  N   UNL     1      10.847   4.983  23.648  0.00  0.00    -0.327 N 
ATOM      9  H   UNL     1      10.669   5.942  23.914  0.00  0.00    +0.145 HD
ATOM     10  H   UNL     1      11.583   4.487  24.125  0.00  0.00    +0.145 HD
ATOM     11  N   UNL     1       8.548   4.940  23.513  0.00  0.00    -0.207 NA
ATOM     12  C   UNL     1       6.130   2.355  22.886  0.00  0.00    +0.033 A 
ENDROOT
BRANCH   5  13
ATOM     13  C   UNL     1       8.899   0.685  23.792  0.00  0.00    +0.023 A 
ATOM     14  C   UNL     1       8.582   0.110  25.054  0.00  0.00    +0.058 A 
ATOM     15  C   UNL     1       8.694  -1.264  25.322  0.00  0.00    +0.139 A 
ATOM     16  C   UNL     1       9.247  -2.095  24.350  0.00  0.00    +0.084 A 
ATOM     17 CL   UNL     1       9.488  -3.781  24.628  0.00  0.00    -0.080 Cl
ATOM     18  C   UNL     1       9.558  -1.579  23.096  0.00  0.00    +0.044 A 
ATOM     19  C   UNL     1       9.323  -0.224  22.800  0.00  0.00    +0.052 A 
ATOM     20 CL   UNL     1       9.425   0.163  21.115  0.00  0.00    -0.083 Cl
BRANCH  15  21
ATOM     21  O   UNL     1       8.318  -1.827  26.514  0.00  0.00    -0.489 OA
BRANCH  21  22
ATOM     22  C   UNL     1       6.920  -2.142  26.619  0.00  0.00    +0.244 C 
BRANCH  22  23
ATOM     23  C   UNL     1       6.776  -3.642  26.933  0.00  0.00    +0.125 C 
BRANCH  23  24
ATOM     24  N   UNL     1       6.444  -4.470  25.763  0.00  0.00    -0.299 NA
ATOM     25  C   UNL     1       5.718  -3.734  24.721  0.00  0.00    +0.084 C 
ATOM     26  C   UNL     1       4.854  -4.767  24.008  0.00  0.00    +0.017 C 
ATOM     27  C   UNL     1       5.063  -6.060  24.777  0.00  0.00    +0.017 C 
ATOM     28  C   UNL     1       5.585  -5.602  26.125  0.00  0.00    +0.084 C 
ENDBRANCH  23  24
ENDBRANCH  22  23
ENDBRANCH  21  22
ENDBRANCH  15  21
ENDBRANCH   5  13
BRANCH   1  31
ATOM     29  N   UNL     1       3.272   3.688  21.489  0.00  0.00    -0.311 N 
ATOM     30  H   UNL     1       3.940   4.012  20.802  0.00  0.00    +0.149 HD
ATOM     31  C   UNL     1       3.754   3.241  22.705  0.00  0.00    +0.251 C 
ATOM     32  O   UNL     1       3.003   2.790  23.568  0.00  0.00    -0.270 OA
BRANCH  29  34
ATOM     33  C   UNL     1       1.534   2.386  20.361  0.00  0.00    +0.024 C 
ATOM     34  C   UNL     1       1.871   3.646  21.136  0.00  0.00    +0.101 C 
ENDBRANCH  29  34
ENDBRANCH   1  31
TORSDOF 7
ENDMDL
MODEL 9
REMARK VINA RESULT:      -6.3      3.251      8.472
REMARK  Name = 
REMARK  8 active torsions:
REMARK  status: ('A' for Active; 'I' for Inactive)
REMARK    1  A    between atoms: C_1  and  C_2
REMARK    2  A    between atoms: C_2  and  N_3
REMARK    3  A    between atoms: C_4  and  C_6
REMARK    4  A    between atoms: C_9  and  C_16
REMARK    5  A    between atoms: C_22  and  O_23
REMARK    6  A    between atoms: O_23  and  C_24
REMARK    7  A    between atoms: C_24  and  C_25
REMARK    8  A    between atoms: C_25  and  N_26
REMARK                            x       y       z     vdW  Elec       q    Type
REMARK                         _______ _______ _______ _____ _____    ______ ____
ROOT
ATOM      1  C   UNL     1       4.600  -4.697  26.823  0.00  0.00    +0.076 A 
ATOM      2  S   UNL     1       5.630  -6.057  26.896  0.00  0.00    -0.064 S 
ATOM      3  C   UNL     1       6.941  -5.180  26.261  0.00  0.00    +0.115 A 
ATOM      4  C   UNL     1       6.609  -3.889  25.877  0.00  0.00    +0.035 A 
ATOM      5  C   UNL     1       7.616  -3.197  25.171  0.00  0.00    +0.086 A 
ATOM      6  N   UNL     1       8.854  -3.779  25.102  0.00  0.00    -0.214 NA
ATOM      7  C   UNL     1       9.067  -4.981  25.638  0.00  0.00    +0.214 A 
ATOM      8  N   UNL     1      10.363  -5.451  25.649  0.00  0.00    -0.327 N 
ATOM      9  H   UNL     1      10.377  -6.458  25.728  0.00  0.00    +0.145 HD
ATOM     10  H   UNL     1      10.917  -5.025  24.922  0.00  0.00    +0.145 HD
ATOM     11  N   UNL     1       8.140  -5.768  26.158  0.00  0.00    -0.207 NA
ATOM     12  C   UNL     1       5.287  -3.589  26.359  0.00  0.00    +0.033 A 
ENDROOT
BRANCH   5  13
ATOM     13  C   UNL     1       7.505  -1.867  24.516  0.00  0.00    +0.023 A 
ATOM     14  C   UNL     1       8.372  -0.835  24.971  0.00  0.00    +0.058 A 
ATOM     15  C   UNL     1       8.416   0.442  24.390  0.00  0.00    +0.139 A 
ATOM     16  C   UNL     1       7.493   0.760  23.396  0.00  0.00    +0.084 A 
ATOM     17 CL   UNL     1       7.432   2.330  22.682  0.00  0.00    -0.080 Cl
ATOM     18  C   UNL     1       6.636  -0.222  22.911  0.00  0.00    +0.044 A 
ATOM     19  C   UNL     1       6.689  -1.534  23.416  0.00  0.00    +0.052 A 
ATOM     20 CL   UNL     1       5.822  -2.696  22.468  0.00  0.00    -0.083 Cl
BRANCH  15  21
ATOM     21  O   UNL     1       9.304   1.411  24.779  0.00  0.00    -0.489 OA
BRANCH  21  22
ATOM     22  C   UNL     1      10.593   1.339  24.147  0.00  0.00    +0.244 C 
BRANCH  22  23
ATOM     23  C   UNL     1      10.742   2.540  23.196  0.00  0.00    +0.125 C 
BRANCH  23  24
ATOM     24  N   UNL     1      11.039   3.810  23.878  0.00  0.00    -0.299 NA
ATOM     25  C   UNL     1       9.912   4.748  23.871  0.00  0.00    +0.084 C 
ATOM     26  C   UNL     1      10.529   6.141  23.909  0.00  0.00    +0.017 C 
ATOM     27  C   UNL     1      12.029   5.914  23.826  0.00  0.00    +0.017 C 
ATOM     28  C   UNL     1      12.154   4.519  23.243  0.00  0.00    +0.084 C 
ENDBRANCH  23  24
ENDBRANCH  22  23
ENDBRANCH  21  22
ENDBRANCH  15  21
ENDBRANCH   5  13
BRANCH   1  31
ATOM     29  N   UNL     1       2.453  -5.750  26.597  0.00  0.00    -0.311 N 
ATOM     30  H   UNL     1       2.929  -6.390  25.976  0.00  0.00    +0.149 HD
ATOM     31  C   UNL     1       3.200  -4.763  27.212  0.00  0.00    +0.251 C 
ATOM     32  O   UNL     1       2.695  -3.980  28.015  0.00  0.00    -0.270 OA
BRANCH  29  34
ATOM     33  C   UNL     1       0.817  -7.091  27.828  0.00  0.00    +0.024 C 
ATOM     34  C   UNL     1       1.045  -5.947  26.858  0.00  0.00    +0.101 C 
ENDBRANCH  29  34
ENDBRANCH   1  31
TORSDOF 7
ENDMDL
