MODEL 1
REMARK VINA RESULT:      -3.5      0.000      0.000
REMARK  Name = 
REMARK  3 active torsions:
REMARK  status: ('A' for Active; 'I' for Inactive)
REMARK    1  A    between atoms: N_1  and  C_2
REMARK    2  A    between atoms: C_2  and  C_5
REMARK    3  A    between atoms: C_5  and  O_6
REMARK                            x       y       z     vdW  Elec       q    Type
REMARK                         _______ _______ _______ _____ _____    ______ ____
ROOT
ATOM      1  C   UNL     1       8.052  -4.937  25.891  0.00  0.00    +0.115 C 
ATOM      2  C   UNL     1       7.044  -3.835  25.671  0.00  0.00    +0.036 C 
ATOM      3  C   UNL     1       6.863  -5.160  24.986  0.00  0.00    +0.036 C 
ENDROOT
BRANCH   1   4
ATOM      4  N   UNL     1       8.070  -5.626  27.218  0.00  0.00    -0.316 NA
ATOM      5  H   UNL     1       7.515  -5.073  27.878  0.00  0.00    +0.119 HD
ATOM      6  H   UNL     1       7.568  -6.515  27.149  0.00  0.00    +0.119 HD
ENDBRANCH   1   4
BRANCH   1   7
ATOM      7  C   UNL     1       9.426  -4.855  25.262  0.00  0.00    +0.325 C 
ATOM      8  O   UNL     1       9.770  -3.969  24.498  0.00  0.00    -0.249 OA
BRANCH   7   9
ATOM      9  O   UNL     1      10.210  -5.893  25.643  0.00  0.00    -0.479 OA
ATOM     10  H   UNL     1      10.369  -6.419  24.825  0.00  0.00    +0.295 HD
ENDBRANCH   7   9
ENDBRANCH   1   7
TORSDOF 3
ENDMDL
MODEL 2
REMARK VINA RESULT:      -3.5      6.424      7.014
REMARK  Name = 
REMARK  3 active torsions:
REMARK  status: ('A' for Active; 'I' for Inactive)
REMARK    1  A    between atoms: N_1  and  C_2
REMARK    2  A    between atoms: C_2  and  C_5
REMARK    3  A    between atoms: C_5  and  O_6
REMARK                            x       y       z     vdW  Elec       q    Type
REMARK                         _______ _______ _______ _____ _____    ______ ____
ROOT
ATOM      1  C   UNL     1       9.664   0.122  22.327  0.00  0.00    +0.115 C 
ATOM      2  C   UNL     1      10.576   0.105  23.530  0.00  0.00    +0.036 C 
ATOM      3  C   UNL     1       9.120  -0.231  23.691  0.00  0.00    +0.036 C 
ENDROOT
BRANCH   1   4
ATOM      4  N   UNL     1       9.804  -0.971  21.316  0.00  0.00    -0.316 NA
ATOM      5  H   UNL     1      10.386  -0.627  20.546  0.00  0.00    +0.119 HD
ATOM      6  H   UNL     1      10.345  -1.741  21.717  0.00  0.00    +0.119 HD
ENDBRANCH   1   4
BRANCH   1   7
ATOM      7  C   UNL     1       9.243   1.436  21.705  0.00  0.00    +0.325 C 
ATOM      8  O   UNL     1       8.112   1.667  21.308  0.00  0.00    -0.249 OA
BRANCH   7   9
ATOM      9  O   UNL     1      10.279   2.307  21.632  0.00  0.00    -0.479 OA
ATOM     10  H   UNL     1      10.075   2.898  20.871  0.00  0.00    +0.295 HD
ENDBRANCH   7   9
ENDBRANCH   1   7
TORSDOF 3
ENDMDL
MODEL 3
REMARK VINA RESULT:      -3.4      6.532      7.187
REMARK  Name = 
REMARK  3 active torsions:
REMARK  status: ('A' for Active; 'I' for Inactive)
REMARK    1  A    between atoms: N_1  and  C_2
REMARK    2  A    between atoms: C_2  and  C_5
REMARK    3  A    between atoms: C_5  and  O_6
REMARK                            x       y       z     vdW  Elec       q    Type
REMARK                         _______ _______ _______ _____ _____    ______ ____
ROOT
ATOM      1  C   UNL     1       9.923   1.355  23.696  0.00  0.00    +0.115 C 
ATOM      2  C   UNL     1       9.626   0.152  24.558  0.00  0.00    +0.036 C 
ATOM      3  C   UNL     1      11.019   0.712  24.512  0.00  0.00    +0.036 C 
ENDROOT
BRANCH   1   4
ATOM      4  N   UNL     1       9.403   2.687  24.135  0.00  0.00    -0.316 NA
ATOM      5  H   UNL     1       9.061   2.601  25.098  0.00  0.00    +0.119 HD
ATOM      6  H   UNL     1      10.177   3.352  24.201  0.00  0.00    +0.119 HD
ENDBRANCH   1   4
BRANCH   1   7
ATOM      7  C   UNL     1       9.979   1.224  22.190  0.00  0.00    +0.325 C 
ATOM      8  O   UNL     1       9.764   0.182  21.591  0.00  0.00    -0.249 OA
BRANCH   7   9
ATOM      9  O   UNL     1      10.311   2.398  21.600  0.00  0.00    -0.479 OA
ATOM     10  H   UNL     1      10.876   2.872  22.253  0.00  0.00    +0.295 HD
ENDBRANCH   7   9
ENDBRANCH   1   7
TORSDOF 3
ENDMDL
MODEL 4
REMARK VINA RESULT:      -3.4      4.794      5.392
REMARK  Name = 
REMARK  3 active torsions:
REMARK  status: ('A' for Active; 'I' for Inactive)
REMARK    1  A    between atoms: N_1  and  C_2
REMARK    2  A    between atoms: C_2  and  C_5
REMARK    3  A    between atoms: C_5  and  O_6
REMARK                            x       y       z     vdW  Elec       q    Type
REMARK                         _______ _______ _______ _____ _____    ______ ____
ROOT
ATOM      1  C   UNL     1       9.719  -0.394  23.621  0.00  0.00    +0.115 C 
ATOM      2  C   UNL     1       9.782  -0.191  25.115  0.00  0.00    +0.036 C 
ATOM      3  C   UNL     1      10.799   0.470  24.229  0.00  0.00    +0.036 C 
ENDROOT
BRANCH   1   4
ATOM      4  N   UNL     1       8.621   0.278  22.860  0.00  0.00    -0.316 NA
ATOM      5  H   UNL     1       7.837  -0.376  22.776  0.00  0.00    +0.119 HD
ATOM      6  H   UNL     1       8.245   1.053  23.413  0.00  0.00    +0.119 HD
ENDBRANCH   1   4
BRANCH   1   7
ATOM      7  C   UNL     1      10.120  -1.719  23.010  0.00  0.00    +0.325 C 
ATOM      8  O   UNL     1      10.264  -2.746  23.652  0.00  0.00    -0.249 OA
BRANCH   7   9
ATOM      9  O   UNL     1      10.312  -1.612  21.672  0.00  0.00    -0.479 OA
ATOM     10  H   UNL     1       9.754  -0.852  21.384  0.00  0.00    +0.295 HD
ENDBRANCH   7   9
ENDBRANCH   1   7
TORSDOF 3
ENDMDL
MODEL 5
REMARK VINA RESULT:      -3.3      6.478      6.926
REMARK  Name = 
REMARK  3 active torsions:
REMARK  status: ('A' for Active; 'I' for Inactive)
REMARK    1  A    between atoms: N_1  and  C_2
REMARK    2  A    between atoms: C_2  and  C_5
REMARK    3  A    between atoms: C_5  and  O_6
REMARK                            x       y       z     vdW  Elec       q    Type
REMARK                         _______ _______ _______ _____ _____    ______ ____
ROOT
ATOM      1  C   UNL     1       9.805   1.191  22.827  0.00  0.00    +0.115 C 
ATOM      2  C   UNL     1       9.420   1.733  24.182  0.00  0.00    +0.036 C 
ATOM      3  C   UNL     1      10.742   1.043  24.002  0.00  0.00    +0.036 C 
ENDROOT
BRANCH   1   4
ATOM      4  N   UNL     1      10.168   2.166  21.752  0.00  0.00    -0.316 NA
ATOM      5  H   UNL     1      10.878   1.736  21.151  0.00  0.00    +0.119 HD
ATOM      6  H   UNL     1       9.365   2.307  21.133  0.00  0.00    +0.119 HD
ENDBRANCH   1   4
BRANCH   1   7
ATOM      7  C   UNL     1       9.137  -0.052  22.281  0.00  0.00    +0.325 C 
ATOM      8  O   UNL     1       8.097  -0.512  22.721  0.00  0.00    -0.249 OA
BRANCH   7   9
ATOM      9  O   UNL     1       9.848  -0.590  21.260  0.00  0.00    -0.479 OA
ATOM     10  H   UNL     1      10.653  -0.980  21.674  0.00  0.00    +0.295 HD
ENDBRANCH   7   9
ENDBRANCH   1   7
TORSDOF 3
ENDMDL
MODEL 6
REMARK VINA RESULT:      -3.3      5.389      5.899
REMARK  Name = 
REMARK  3 active torsions:
REMARK  status: ('A' for Active; 'I' for Inactive)
REMARK    1  A    between atoms: N_1  and  C_2
REMARK    2  A    between atoms: C_2  and  C_5
REMARK    3  A    between atoms: C_5  and  O_6
REMARK                            x       y       z     vdW  Elec       q    Type
REMARK                         _______ _______ _______ _____ _____    ______ ____
ROOT
ATOM      1  C   UNL     1      10.094   0.150  23.081  0.00  0.00    +0.115 C 
ATOM      2  C   UNL     1       9.896   1.152  21.969  0.00  0.00    +0.036 C 
ATOM      3  C   UNL     1       8.770   0.860  22.920  0.00  0.00    +0.036 C 
ENDROOT
BRANCH   1   4
ATOM      4  N   UNL     1      10.967   0.534  24.233  0.00  0.00    -0.316 NA
ATOM      5  H   UNL     1      11.858   0.036  24.144  0.00  0.00    +0.119 HD
ATOM      6  H   UNL     1      11.220   1.522  24.156  0.00  0.00    +0.119 HD
ENDBRANCH   1   4
BRANCH   1   7
ATOM      7  C   UNL     1      10.156  -1.331  22.775  0.00  0.00    +0.325 C 
ATOM      8  O   UNL     1      10.113  -2.202  23.628  0.00  0.00    -0.249 OA
BRANCH   7   9
ATOM      9  O   UNL     1      10.281  -1.559  21.445  0.00  0.00    -0.479 OA
ATOM     10  H   UNL     1       9.716  -2.344  21.257  0.00  0.00    +0.295 HD
ENDBRANCH   7   9
ENDBRANCH   1   7
TORSDOF 3
ENDMDL
MODEL 7
REMARK VINA RESULT:      -3.2      6.726      7.134
REMARK  Name = 
REMARK  3 active torsions:
REMARK  status: ('A' for Active; 'I' for Inactive)
REMARK    1  A    between atoms: N_1  and  C_2
REMARK    2  A    between atoms: C_2  and  C_5
REMARK    3  A    between atoms: C_5  and  O_6
REMARK                            x       y       z     vdW  Elec       q    Type
REMARK                         _______ _______ _______ _____ _____    ______ ____
ROOT
ATOM      1  C   UNL     1       9.761   1.225  22.444  0.00  0.00    +0.115 C 
ATOM      2  C   UNL     1       9.564   0.037  21.534  0.00  0.00    +0.036 C 
ATOM      3  C   UNL     1       8.372   0.815  22.014  0.00  0.00    +0.036 C 
ENDROOT
BRANCH   1   4
ATOM      4  N   UNL     1      10.341   2.475  21.862  0.00  0.00    -0.316 NA
ATOM      5  H   UNL     1       9.671   2.862  21.191  0.00  0.00    +0.119 HD
ATOM      6  H   UNL     1      10.411   3.191  22.590  0.00  0.00    +0.119 HD
ENDBRANCH   1   4
BRANCH   1   7
ATOM      7  C   UNL     1      10.151   1.025  23.892  0.00  0.00    +0.325 C 
ATOM      8  O   UNL     1      10.686   0.014  24.317  0.00  0.00    -0.249 OA
BRANCH   7   9
ATOM      9  O   UNL     1       9.817   2.097  24.650  0.00  0.00    -0.479 OA
ATOM     10  H   UNL     1       8.834   2.152  24.614  0.00  0.00    +0.295 HD
ENDBRANCH   7   9
ENDBRANCH   1   7
TORSDOF 3
ENDMDL
MODEL 8
REMARK VINA RESULT:      -3.2      2.059      2.164
REMARK  Name = 
REMARK  3 active torsions:
REMARK  status: ('A' for Active; 'I' for Inactive)
REMARK    1  A    between atoms: N_1  and  C_2
REMARK    2  A    between atoms: C_2  and  C_5
REMARK    3  A    between atoms: C_5  and  O_6
REMARK                            x       y       z     vdW  Elec       q    Type
REMARK                         _______ _______ _______ _____ _____    ______ ____
ROOT
ATOM      1  C   UNL     1       8.868  -4.889  25.410  0.00  0.00    +0.115 C 
ATOM      2  C   UNL     1       8.656  -3.963  26.583  0.00  0.00    +0.036 C 
ATOM      3  C   UNL     1       7.920  -5.272  26.523  0.00  0.00    +0.036 C 
ENDROOT
BRANCH   1   4
ATOM      4  N   UNL     1      10.170  -5.617  25.309  0.00  0.00    -0.316 NA
ATOM      5  H   UNL     1      10.275  -6.210  26.138  0.00  0.00    +0.119 HD
ATOM      6  H   UNL     1      10.133  -6.278  24.529  0.00  0.00    +0.119 HD
ENDBRANCH   1   4
BRANCH   1   7
ATOM      7  C   UNL     1       8.284  -4.555  24.055  0.00  0.00    +0.325 C 
ATOM      8  O   UNL     1       7.884  -3.445  23.743  0.00  0.00    -0.249 OA
BRANCH   7   9
ATOM      9  O   UNL     1       8.249  -5.642  23.247  0.00  0.00    -0.479 OA
ATOM     10  H   UNL     1       9.070  -5.595  22.703  0.00  0.00    +0.295 HD
ENDBRANCH   7   9
ENDBRANCH   1   7
TORSDOF 3
ENDMDL
MODEL 9
REMARK VINA RESULT:      -3.2      3.939      4.223
REMARK  Name = 
REMARK  3 active torsions:
REMARK  status: ('A' for Active; 'I' for Inactive)
REMARK    1  A    between atoms: N_1  and  C_2
REMARK    2  A    between atoms: C_2  and  C_5
REMARK    3  A    between atoms: C_5  and  O_6
REMARK                            x       y       z     vdW  Elec       q    Type
REMARK                         _______ _______ _______ _____ _____    ______ ____
ROOT
ATOM      1  C   UNL     1       6.541  -5.648  27.631  0.00  0.00    +0.115 C 
ATOM      2  C   UNL     1       5.616  -5.562  26.441  0.00  0.00    +0.036 C 
ATOM      3  C   UNL     1       5.831  -4.354  27.309  0.00  0.00    +0.036 C 
ENDROOT
BRANCH   1   4
ATOM      4  N   UNL     1       8.013  -5.729  27.380  0.00  0.00    -0.316 NA
ATOM      5  H   UNL     1       8.499  -5.669  28.280  0.00  0.00    +0.119 HD
ATOM      6  H   UNL     1       8.249  -6.660  27.026  0.00  0.00    +0.119 HD
ENDBRANCH   1   4
BRANCH   1   7
ATOM      7  C   UNL     1       6.123  -6.406  28.873  0.00  0.00    +0.325 C 
ATOM      8  O   UNL     1       6.352  -6.025  30.009  0.00  0.00    -0.249 OA
BRANCH   7   9
ATOM      9  O   UNL     1       5.483  -7.559  28.560  0.00  0.00    -0.479 OA
ATOM     10  H   UNL     1       6.147  -8.111  28.086  0.00  0.00    +0.295 HD
ENDBRANCH   7   9
ENDBRANCH   1   7
TORSDOF 3
ENDMDL
