MODEL 1
REMARK VINA RESULT:      -6.7      0.000      0.000
REMARK  Name = 
REMARK  23 active torsions:
REMARK  status: ('A' for Active; 'I' for Inactive)
REMARK    1  A    between atoms: C_1  and  S_2
REMARK    2  A    between atoms: S_2  and  C_3
REMARK    3  A    between atoms: C_3  and  C_4
REMARK    4  A    between atoms: C_4  and  N_5
REMARK    5  A    between atoms: N_5  and  C_6
REMARK    6  A    between atoms: N_10  and  C_11
REMARK    7  A    between atoms: C_14  and  C_16
REMARK    8  A    between atoms: C_16  and  O_17
REMARK    9  A    between atoms: O_17  and  P_18
REMARK   10  A    between atoms: P_18  and  O_19
REMARK   11  A    between atoms: P_18  and  O_21
REMARK   12  A    between atoms: O_21  and  P_22
REMARK   13  A    between atoms: P_22  and  O_23
REMARK   14  A    between atoms: P_22  and  C_25
REMARK   15  A    between atoms: C_25  and  P_28
REMARK   16  A    between atoms: P_28  and  O_29
REMARK   17  A    between atoms: P_28  and  O_30
REMARK   18  A    between atoms: C_32  and  O_34
REMARK   19  A    between atoms: C_35  and  O_37
REMARK   20  A    between atoms: C_40  and  S_41
REMARK   21  A    between atoms: S_41  and  C_42
REMARK   22  A    between atoms: C_42  and  C_43
REMARK   23  A    between atoms: C_43  and  C_44
REMARK                            x       y       z     vdW  Elec       q    Type
REMARK                         _______ _______ _______ _____ _____    ______ ____
ROOT
ATOM      1  C   UNL     1       6.762  -2.923  22.642  0.00  0.00    +0.253 C 
ATOM      2  C   UNL     1       6.974  -4.073  21.639  0.00  0.00    +0.195 C 
ATOM      3  C   UNL     1       7.396  -5.286  22.472  0.00  0.00    +0.178 C 
ATOM      4  C   UNL     1       7.219  -4.857  23.923  0.00  0.00    +0.178 C 
ATOM      5  O   UNL     1       6.595  -3.555  23.925  0.00  0.00    -0.346 OA
ENDROOT
BRANCH   1  11
ATOM      6  C   UNL     1       9.206   0.976  24.295  0.00  0.00    +0.151 A 
ATOM      7  N   UNL     1       8.165   1.424  25.070  0.00  0.00    -0.205 NA
ATOM      8  C   UNL     1       6.995   0.732  25.063  0.00  0.00    +0.192 A 
ATOM      9  N   UNL     1       6.724  -0.406  24.384  0.00  0.00    -0.202 NA
ATOM     10  C   UNL     1       7.738  -0.794  23.603  0.00  0.00    +0.169 A 
ATOM     11  N   UNL     1       7.765  -1.867  22.748  0.00  0.00    -0.285 N 
ATOM     12  C   UNL     1       9.028  -1.882  22.198  0.00  0.00    +0.203 A 
ATOM     13  N   UNL     1       9.740  -0.843  22.560  0.00  0.00    -0.231 NA
ATOM     14  C   UNL     1       8.971  -0.176  23.494  0.00  0.00    +0.148 A 
BRANCH   6  15
ATOM     15  N   UNL     1      10.382   1.721  24.116  0.00  0.00    -0.326 N 
ATOM     16  H   UNL     1      11.078   1.063  23.759  0.00  0.00    +0.148 HD
BRANCH  15  17
ATOM     17  C   UNL     1      10.361   2.886  23.225  0.00  0.00    +0.113 C 
BRANCH  17  18
ATOM     18  C   UNL     1       9.731   4.102  23.947  0.00  0.00    +0.087 C 
BRANCH  18  20
ATOM     19  C   UNL     1      12.317   5.020  23.409  0.00  0.00    +0.084 C 
ATOM     20  S   UNL     1      10.662   5.672  23.741  0.00  0.00    -0.163 S 
ENDBRANCH  18  20
ENDBRANCH  17  18
ENDBRANCH  15  17
ENDBRANCH   6  15
BRANCH   8  21
ATOM     21  S   UNL     1       5.507   1.384  25.804  0.00  0.00    -0.086 S 
BRANCH  21  22
ATOM     22  C   UNL     1       4.701   2.409  24.530  0.00  0.00    +0.086 C 
BRANCH  22  23
ATOM     23  C   UNL     1       5.756   3.426  24.072  0.00  0.00    +0.124 C 
BRANCH  23  24
ATOM     24  C   UNL     1       6.021   3.389  22.583  0.00  0.00    +0.391 C 
ATOM     25  F   UNL     1       6.656   4.513  22.181  0.00  0.00    -0.171 F 
ATOM     26  F   UNL     1       4.861   3.317  21.892  0.00  0.00    -0.171 F 
ATOM     27  F   UNL     1       6.780   2.337  22.217  0.00  0.00    -0.171 F 
ENDBRANCH  23  24
ENDBRANCH  22  23
ENDBRANCH  21  22
ENDBRANCH   8  21
ENDBRANCH   1  11
BRANCH   3  28
ATOM     28  O   UNL     1       6.597  -6.447  22.224  0.00  0.00    -0.386 OA
ATOM     29  H   UNL     1       7.172  -7.228  22.352  0.00  0.00    +0.210 HD
ENDBRANCH   3  28
BRANCH   2  30
ATOM     30  O   UNL     1       5.745  -4.421  20.957  0.00  0.00    -0.385 OA
ATOM     31  H   UNL     1       5.927  -4.535  20.004  0.00  0.00    +0.210 HD
ENDBRANCH   2  30
BRANCH   4  32
ATOM     32  C   UNL     1       8.579  -4.804  24.618  0.00  0.00    +0.206 C 
BRANCH  32  33
ATOM     33  O   UNL     1       8.541  -5.537  25.837  0.00  0.00    -0.284 OA
BRANCH  33  34
ATOM     34  P   UNL     1       7.058  -5.234  26.674  0.00  0.00    +0.482 P 
ATOM     35  O   UNL     1       7.591  -3.873  27.113  0.00  0.00    -0.227 OA
BRANCH  34  36
ATOM     36  O   UNL     1       7.534  -6.251  27.854  0.00  0.00    -0.302 OA
ATOM     37  H   UNL     1       8.450  -6.005  28.093  0.00  0.00    +0.222 HD
ENDBRANCH  34  36
BRANCH  34  38
ATOM     38  O   UNL     1       5.575  -4.930  27.512  0.00  0.00    -0.206 OA
BRANCH  38  39
ATOM     39  P   UNL     1       4.214  -5.767  27.282  0.00  0.00    +0.386 P 
ATOM     40  O   UNL     1       3.370  -5.934  28.508  0.00  0.00    -0.254 OA
BRANCH  39  41
ATOM     41  C   UNL     1       3.310  -5.331  25.770  0.00  0.00    +0.318 C 
ATOM     42 CL   UNL     1       3.555  -3.574  25.454  0.00  0.00    -0.075 Cl
ATOM     43 CL   UNL     1       1.528  -5.559  26.117  0.00  0.00    -0.075 Cl
BRANCH  41  44
ATOM     44  P   UNL     1       3.602  -6.210  24.228  0.00  0.00    +0.375 P 
ATOM     45  O   UNL     1       4.617  -7.312  24.225  0.00  0.00    -0.255 OA
BRANCH  44  46
ATOM     46  O   UNL     1       2.136  -6.735  23.822  0.00  0.00    -0.322 OA
ATOM     47  H   UNL     1       1.525  -5.986  23.616  0.00  0.00    +0.220 HD
ENDBRANCH  44  46
BRANCH  44  48
ATOM     48  O   UNL     1       3.884  -5.108  23.092  0.00  0.00    -0.322 OA
ATOM     49  H   UNL     1       3.520  -5.310  22.204  0.00  0.00    +0.220 HD
ENDBRANCH  44  48
ENDBRANCH  41  44
ENDBRANCH  39  41
BRANCH  39  50
ATOM     50  O   UNL     1       4.860  -7.207  26.912  0.00  0.00    -0.321 OA
ATOM     51  H   UNL     1       4.472  -7.564  26.093  0.00  0.00    +0.220 HD
ENDBRANCH  39  50
ENDBRANCH  38  39
ENDBRANCH  34  38
ENDBRANCH  33  34
ENDBRANCH  32  33
ENDBRANCH   4  32
TORSDOF 22
ENDMDL
MODEL 2
REMARK VINA RESULT:      -6.4      2.632      4.734
REMARK  Name = 
REMARK  23 active torsions:
REMARK  status: ('A' for Active; 'I' for Inactive)
REMARK    1  A    between atoms: C_1  and  S_2
REMARK    2  A    between atoms: S_2  and  C_3
REMARK    3  A    between atoms: C_3  and  C_4
REMARK    4  A    between atoms: C_4  and  N_5
REMARK    5  A    between atoms: N_5  and  C_6
REMARK    6  A    between atoms: N_10  and  C_11
REMARK    7  A    between atoms: C_14  and  C_16
REMARK    8  A    between atoms: C_16  and  O_17
REMARK    9  A    between atoms: O_17  and  P_18
REMARK   10  A    between atoms: P_18  and  O_19
REMARK   11  A    between atoms: P_18  and  O_21
REMARK   12  A    between atoms: O_21  and  P_22
REMARK   13  A    between atoms: P_22  and  O_23
REMARK   14  A    between atoms: P_22  and  C_25
REMARK   15  A    between atoms: C_25  and  P_28
REMARK   16  A    between atoms: P_28  and  O_29
REMARK   17  A    between atoms: P_28  and  O_30
REMARK   18  A    between atoms: C_32  and  O_34
REMARK   19  A    between atoms: C_35  and  O_37
REMARK   20  A    between atoms: C_40  and  S_41
REMARK   21  A    between atoms: S_41  and  C_42
REMARK   22  A    between atoms: C_42  and  C_43
REMARK   23  A    between atoms: C_43  and  C_44
REMARK                            x       y       z     vdW  Elec       q    Type
REMARK                         _______ _______ _______ _____ _____    ______ ____
ROOT
ATOM      1  C   UNL     1       8.652  -2.833  26.173  0.00  0.00    +0.253 C 
ATOM      2  C   UNL     1       8.631  -4.371  26.256  0.00  0.00    +0.195 C 
ATOM      3  C   UNL     1       8.620  -4.872  24.809  0.00  0.00    +0.178 C 
ATOM      4  C   UNL     1       8.837  -3.630  23.954  0.00  0.00    +0.178 C 
ATOM      5  O   UNL     1       9.110  -2.525  24.843  0.00  0.00    -0.346 OA
ENDROOT
BRANCH   1  11
ATOM      6  C   UNL     1       5.266   0.691  26.035  0.00  0.00    +0.151 A 
ATOM      7  N   UNL     1       6.110   1.618  25.475  0.00  0.00    -0.205 NA
ATOM      8  C   UNL     1       7.401   1.269  25.234  0.00  0.00    +0.192 A 
ATOM      9  N   UNL     1       7.977   0.065  25.456  0.00  0.00    -0.202 NA
ATOM     10  C   UNL     1       7.147  -0.803  26.043  0.00  0.00    +0.169 A 
ATOM     11  N   UNL     1       7.433  -2.080  26.454  0.00  0.00    -0.285 N 
ATOM     12  C   UNL     1       6.257  -2.589  26.960  0.00  0.00    +0.203 A 
ATOM     13  N   UNL     1       5.303  -1.692  26.997  0.00  0.00    -0.231 NA
ATOM     14  C   UNL     1       5.821  -0.577  26.367  0.00  0.00    +0.148 A 
BRANCH   6  15
ATOM     15  N   UNL     1       3.972   1.021  26.470  0.00  0.00    -0.326 N 
ATOM     16  H   UNL     1       3.646   0.218  27.012  0.00  0.00    +0.148 HD
BRANCH  15  17
ATOM     17  C   UNL     1       3.779   2.225  27.284  0.00  0.00    +0.113 C 
BRANCH  17  18
ATOM     18  C   UNL     1       4.360   2.011  28.704  0.00  0.00    +0.087 C 
BRANCH  18  20
ATOM     19  C   UNL     1       7.092   1.610  29.145  0.00  0.00    +0.084 C 
ATOM     20  S   UNL     1       5.893   2.962  29.047  0.00  0.00    -0.163 S 
ENDBRANCH  18  20
ENDBRANCH  17  18
ENDBRANCH  15  17
ENDBRANCH   6  15
BRANCH   8  21
ATOM     21  S   UNL     1       8.637   2.476  24.780  0.00  0.00    -0.086 S 
BRANCH  21  22
ATOM     22  C   UNL     1       8.335   2.893  23.032  0.00  0.00    +0.086 C 
BRANCH  22  23
ATOM     23  C   UNL     1       8.123   1.557  22.306  0.00  0.00    +0.124 C 
BRANCH  23  24
ATOM     24  C   UNL     1       9.412   0.908  21.852  0.00  0.00    +0.391 C 
ATOM     25  F   UNL     1       9.879   0.058  22.795  0.00  0.00    -0.171 F 
ATOM     26  F   UNL     1      10.369   1.839  21.645  0.00  0.00    -0.171 F 
ATOM     27  F   UNL     1       9.267   0.209  20.708  0.00  0.00    -0.171 F 
ENDBRANCH  23  24
ENDBRANCH  22  23
ENDBRANCH  21  22
ENDBRANCH   8  21
ENDBRANCH   1  11
BRANCH   3  28
ATOM     28  O   UNL     1       9.654  -5.821  24.532  0.00  0.00    -0.386 OA
ATOM     29  H   UNL     1       9.328  -6.697  24.819  0.00  0.00    +0.210 HD
ENDBRANCH   3  28
BRANCH   2  30
ATOM     30  O   UNL     1       9.828  -4.890  26.886  0.00  0.00    -0.385 OA
ATOM     31  H   UNL     1      10.481  -4.169  26.977  0.00  0.00    +0.210 HD
ENDBRANCH   2  30
BRANCH   4  32
ATOM     32  C   UNL     1       7.591  -3.352  23.116  0.00  0.00    +0.206 C 
BRANCH  32  33
ATOM     33  O   UNL     1       7.354  -4.423  22.211  0.00  0.00    -0.284 OA
BRANCH  33  34
ATOM     34  P   UNL     1       5.726  -4.990  22.364  0.00  0.00    +0.482 P 
ATOM     35  O   UNL     1       5.824  -5.626  20.981  0.00  0.00    -0.227 OA
BRANCH  34  36
ATOM     36  O   UNL     1       5.189  -3.479  22.075  0.00  0.00    -0.302 OA
ATOM     37  H   UNL     1       5.579  -2.901  22.760  0.00  0.00    +0.222 HD
ENDBRANCH  34  36
BRANCH  34  38
ATOM     38  O   UNL     1       4.099  -5.558  22.517  0.00  0.00    -0.206 OA
BRANCH  38  39
ATOM     39  P   UNL     1       3.499  -6.246  23.848  0.00  0.00    +0.386 P 
ATOM     40  O   UNL     1       4.529  -6.816  24.774  0.00  0.00    -0.254 OA
BRANCH  39  41
ATOM     41  C   UNL     1       2.171  -5.303  24.649  0.00  0.00    +0.318 C 
ATOM     42 CL   UNL     1       1.446  -6.335  25.937  0.00  0.00    -0.075 Cl
ATOM     43 CL   UNL     1       0.865  -5.030  23.396  0.00  0.00    -0.075 Cl
BRANCH  41  44
ATOM     44  P   UNL     1       2.483  -3.681  25.359  0.00  0.00    +0.375 P 
ATOM     45  O   UNL     1       1.351  -2.698  25.401  0.00  0.00    -0.255 OA
BRANCH  44  46
ATOM     46  O   UNL     1       3.041  -4.025  26.829  0.00  0.00    -0.322 OA
ATOM     47  H   UNL     1       2.312  -4.065  27.495  0.00  0.00    +0.220 HD
ENDBRANCH  44  46
BRANCH  44  48
ATOM     48  O   UNL     1       3.791  -3.084  24.641  0.00  0.00    -0.322 OA
ATOM     49  H   UNL     1       4.411  -2.594  25.223  0.00  0.00    +0.220 HD
ENDBRANCH  44  48
ENDBRANCH  41  44
ENDBRANCH  39  41
BRANCH  39  50
ATOM     50  O   UNL     1       2.700  -7.477  23.159  0.00  0.00    -0.321 OA
ATOM     51  H   UNL     1       2.437  -7.257  22.248  0.00  0.00    +0.220 HD
ENDBRANCH  39  50
ENDBRANCH  38  39
ENDBRANCH  34  38
ENDBRANCH  33  34
ENDBRANCH  32  33
ENDBRANCH   4  32
TORSDOF 22
ENDMDL
MODEL 3
REMARK VINA RESULT:      -6.3      2.976      4.868
REMARK  Name = 
REMARK  23 active torsions:
REMARK  status: ('A' for Active; 'I' for Inactive)
REMARK    1  A    between atoms: C_1  and  S_2
REMARK    2  A    between atoms: S_2  and  C_3
REMARK    3  A    between atoms: C_3  and  C_4
REMARK    4  A    between atoms: C_4  and  N_5
REMARK    5  A    between atoms: N_5  and  C_6
REMARK    6  A    between atoms: N_10  and  C_11
REMARK    7  A    between atoms: C_14  and  C_16
REMARK    8  A    between atoms: C_16  and  O_17
REMARK    9  A    between atoms: O_17  and  P_18
REMARK   10  A    between atoms: P_18  and  O_19
REMARK   11  A    between atoms: P_18  and  O_21
REMARK   12  A    between atoms: O_21  and  P_22
REMARK   13  A    between atoms: P_22  and  O_23
REMARK   14  A    between atoms: P_22  and  C_25
REMARK   15  A    between atoms: C_25  and  P_28
REMARK   16  A    between atoms: P_28  and  O_29
REMARK   17  A    between atoms: P_28  and  O_30
REMARK   18  A    between atoms: C_32  and  O_34
REMARK   19  A    between atoms: C_35  and  O_37
REMARK   20  A    between atoms: C_40  and  S_41
REMARK   21  A    between atoms: S_41  and  C_42
REMARK   22  A    between atoms: C_42  and  C_43
REMARK   23  A    between atoms: C_43  and  C_44
REMARK                            x       y       z     vdW  Elec       q    Type
REMARK                         _______ _______ _______ _____ _____    ______ ____
ROOT
ATOM      1  C   UNL     1       7.894   0.316  23.193  0.00  0.00    +0.253 C 
ATOM      2  C   UNL     1       9.244   0.440  22.461  0.00  0.00    +0.195 C 
ATOM      3  C   UNL     1       9.918  -0.929  22.585  0.00  0.00    +0.178 C 
ATOM      4  C   UNL     1       8.863  -1.841  23.197  0.00  0.00    +0.178 C 
ATOM      5  O   UNL     1       7.628  -1.097  23.275  0.00  0.00    -0.346 OA
ENDROOT
BRANCH   1  11
ATOM      6  C   UNL     1       7.186   3.656  26.692  0.00  0.00    +0.151 A 
ATOM      7  N   UNL     1       7.478   4.721  25.874  0.00  0.00    -0.205 NA
ATOM      8  C   UNL     1       7.838   4.479  24.585  0.00  0.00    +0.192 A 
ATOM      9  N   UNL     1       7.920   3.276  23.972  0.00  0.00    -0.202 NA
ATOM     10  C   UNL     1       7.676   2.257  24.803  0.00  0.00    +0.169 A 
ATOM     11  N   UNL     1       7.733   0.917  24.514  0.00  0.00    -0.285 N 
ATOM     12  C   UNL     1       7.364   0.262  25.669  0.00  0.00    +0.203 A 
ATOM     13  N   UNL     1       7.193   1.087  26.673  0.00  0.00    -0.231 NA
ATOM     14  C   UNL     1       7.323   2.353  26.137  0.00  0.00    +0.148 A 
BRANCH   6  15
ATOM     15  N   UNL     1       6.972   3.809  28.071  0.00  0.00    -0.326 N 
ATOM     16  H   UNL     1       7.818   4.252  28.437  0.00  0.00    +0.148 HD
BRANCH  15  17
ATOM     17  C   UNL     1       5.818   4.586  28.533  0.00  0.00    +0.113 C 
BRANCH  17  18
ATOM     18  C   UNL     1       5.175   3.908  29.768  0.00  0.00    +0.087 C 
BRANCH  18  20
ATOM     19  C   UNL     1       4.032   1.748  28.408  0.00  0.00    +0.084 C 
ATOM     20  S   UNL     1       5.219   2.072  29.735  0.00  0.00    -0.163 S 
ENDBRANCH  18  20
ENDBRANCH  17  18
ENDBRANCH  15  17
ENDBRANCH   6  15
BRANCH   8  21
ATOM     21  S   UNL     1       8.507   5.759  23.536  0.00  0.00    -0.086 S 
BRANCH  21  22
ATOM     22  C   UNL     1      10.188   6.106  24.150  0.00  0.00    +0.086 C 
BRANCH  22  23
ATOM     23  C   UNL     1      11.087   5.005  23.572  0.00  0.00    +0.124 C 
BRANCH  23  24
ATOM     24  C   UNL     1      12.486   5.481  23.245  0.00  0.00    +0.391 C 
ATOM     25  F   UNL     1      12.795   6.586  23.959  0.00  0.00    -0.171 F 
ATOM     26  F   UNL     1      12.586   5.809  21.937  0.00  0.00    -0.171 F 
ATOM     27  F   UNL     1      13.425   4.549  23.505  0.00  0.00    -0.171 F 
ENDBRANCH  23  24
ENDBRANCH  22  23
ENDBRANCH  21  22
ENDBRANCH   8  21
ENDBRANCH   1  11
BRANCH   3  28
ATOM     28  O   UNL     1      10.334  -1.469  21.326  0.00  0.00    -0.386 OA
ATOM     29  H   UNL     1      11.280  -1.245  21.213  0.00  0.00    +0.210 HD
ENDBRANCH   3  28
BRANCH   2  30
ATOM     30  O   UNL     1       9.064   0.710  21.050  0.00  0.00    -0.385 OA
ATOM     31  H   UNL     1       8.196   1.135  20.912  0.00  0.00    +0.210 HD
ENDBRANCH   2  30
BRANCH   4  32
ATOM     32  C   UNL     1       9.310  -2.291  24.587  0.00  0.00    +0.206 C 
BRANCH  32  33
ATOM     33  O   UNL     1       9.818  -3.619  24.538  0.00  0.00    -0.284 OA
BRANCH  33  34
ATOM     34  P   UNL     1       8.670  -4.726  25.211  0.00  0.00    +0.482 P 
ATOM     35  O   UNL     1       9.260  -4.486  26.597  0.00  0.00    -0.227 OA
BRANCH  34  36
ATOM     36  O   UNL     1       9.541  -5.967  24.612  0.00  0.00    -0.302 OA
ATOM     37  H   UNL     1      10.278  -5.579  24.101  0.00  0.00    +0.222 HD
ENDBRANCH  34  36
BRANCH  34  38
ATOM     38  O   UNL     1       7.524  -5.833  25.883  0.00  0.00    -0.206 OA
BRANCH  38  39
ATOM     39  P   UNL     1       6.073  -5.406  26.447  0.00  0.00    +0.386 P 
ATOM     40  O   UNL     1       6.108  -4.503  27.641  0.00  0.00    -0.254 OA
BRANCH  39  41
ATOM     41  C   UNL     1       4.872  -4.950  25.164  0.00  0.00    +0.318 C 
ATOM     42 CL   UNL     1       5.226  -3.263  24.636  0.00  0.00    -0.075 Cl
ATOM     43 CL   UNL     1       3.221  -4.920  25.950  0.00  0.00    -0.075 Cl
BRANCH  41  44
ATOM     44  P   UNL     1       4.668  -5.954  23.686  0.00  0.00    +0.375 P 
ATOM     45  O   UNL     1       3.643  -5.527  22.678  0.00  0.00    -0.255 OA
BRANCH  44  46
ATOM     46  O   UNL     1       6.150  -5.995  23.061  0.00  0.00    -0.322 OA
ATOM     47  H   UNL     1       6.773  -5.416  23.565  0.00  0.00    +0.220 HD
ENDBRANCH  44  46
BRANCH  44  48
ATOM     48  O   UNL     1       4.468  -7.476  24.161  0.00  0.00    -0.322 OA
ATOM     49  H   UNL     1       5.116  -8.122  23.807  0.00  0.00    +0.220 HD
ENDBRANCH  44  48
ENDBRANCH  41  44
ENDBRANCH  39  41
BRANCH  39  50
ATOM     50  O   UNL     1       5.548  -6.862  26.928  0.00  0.00    -0.321 OA
ATOM     51  H   UNL     1       5.164  -7.359  26.184  0.00  0.00    +0.220 HD
ENDBRANCH  39  50
ENDBRANCH  38  39
ENDBRANCH  34  38
ENDBRANCH  33  34
ENDBRANCH  32  33
ENDBRANCH   4  32
TORSDOF 22
ENDMDL
MODEL 4
REMARK VINA RESULT:      -6.3      2.484      2.997
REMARK  Name = 
REMARK  23 active torsions:
REMARK  status: ('A' for Active; 'I' for Inactive)
REMARK    1  A    between atoms: C_1  and  S_2
REMARK    2  A    between atoms: S_2  and  C_3
REMARK    3  A    between atoms: C_3  and  C_4
REMARK    4  A    between atoms: C_4  and  N_5
REMARK    5  A    between atoms: N_5  and  C_6
REMARK    6  A    between atoms: N_10  and  C_11
REMARK    7  A    between atoms: C_14  and  C_16
REMARK    8  A    between atoms: C_16  and  O_17
REMARK    9  A    between atoms: O_17  and  P_18
REMARK   10  A    between atoms: P_18  and  O_19
REMARK   11  A    between atoms: P_18  and  O_21
REMARK   12  A    between atoms: O_21  and  P_22
REMARK   13  A    between atoms: P_22  and  O_23
REMARK   14  A    between atoms: P_22  and  C_25
REMARK   15  A    between atoms: C_25  and  P_28
REMARK   16  A    between atoms: P_28  and  O_29
REMARK   17  A    between atoms: P_28  and  O_30
REMARK   18  A    between atoms: C_32  and  O_34
REMARK   19  A    between atoms: C_35  and  O_37
REMARK   20  A    between atoms: C_40  and  S_41
REMARK   21  A    between atoms: S_41  and  C_42
REMARK   22  A    between atoms: C_42  and  C_43
REMARK   23  A    between atoms: C_43  and  C_44
REMARK                            x       y       z     vdW  Elec       q    Type
REMARK                         _______ _______ _______ _____ _____    ______ ____
ROOT
ATOM      1  C   UNL     1       6.716  -2.993  22.549  0.00  0.00    +0.253 C 
ATOM      2  C   UNL     1       6.942  -4.182  21.595  0.00  0.00    +0.195 C 
ATOM      3  C   UNL     1       7.342  -5.364  22.482  0.00  0.00    +0.178 C 
ATOM      4  C   UNL     1       7.138  -4.879  23.912  0.00  0.00    +0.178 C 
ATOM      5  O   UNL     1       6.520  -3.575  23.851  0.00  0.00    -0.346 OA
ENDROOT
BRANCH   1  11
ATOM      6  C   UNL     1       9.444   0.651  24.332  0.00  0.00    +0.151 A 
ATOM      7  N   UNL     1       8.577   0.931  25.360  0.00  0.00    -0.205 NA
ATOM      8  C   UNL     1       7.428   0.212  25.463  0.00  0.00    +0.192 A 
ATOM      9  N   UNL     1       7.027  -0.805  24.667  0.00  0.00    -0.202 NA
ATOM     10  C   UNL     1       7.865  -1.025  23.649  0.00  0.00    +0.169 A 
ATOM     11  N   UNL     1       7.722  -1.938  22.636  0.00  0.00    -0.285 N 
ATOM     12  C   UNL     1       8.851  -1.821  21.855  0.00  0.00    +0.203 A 
ATOM     13  N   UNL     1       9.621  -0.834  22.242  0.00  0.00    -0.231 NA
ATOM     14  C   UNL     1       9.053  -0.358  23.408  0.00  0.00    +0.148 A 
BRANCH   6  15
ATOM     15  N   UNL     1      10.562   1.454  24.056  0.00  0.00    -0.326 N 
ATOM     16  H   UNL     1      11.308   0.809  23.785  0.00  0.00    +0.148 HD
BRANCH  15  17
ATOM     17  C   UNL     1      10.461   2.489  23.022  0.00  0.00    +0.113 C 
BRANCH  17  18
ATOM     18  C   UNL     1      10.512   3.896  23.666  0.00  0.00    +0.087 C 
BRANCH  18  20
ATOM     19  C   UNL     1       9.301   6.414  23.548  0.00  0.00    +0.084 C 
ATOM     20  S   UNL     1       8.870   4.690  23.887  0.00  0.00    -0.163 S 
ENDBRANCH  18  20
ENDBRANCH  17  18
ENDBRANCH  15  17
ENDBRANCH   6  15
BRANCH   8  21
ATOM     21  S   UNL     1       6.117   0.683  26.580  0.00  0.00    -0.086 S 
BRANCH  21  22
ATOM     22  C   UNL     1       4.729  -0.453  26.256  0.00  0.00    +0.086 C 
BRANCH  22  23
ATOM     23  C   UNL     1       4.726  -1.462  27.413  0.00  0.00    +0.124 C 
BRANCH  23  24
ATOM     24  C   UNL     1       3.339  -1.800  27.913  0.00  0.00    +0.391 C 
ATOM     25  F   UNL     1       2.477  -1.936  26.880  0.00  0.00    -0.171 F 
ATOM     26  F   UNL     1       2.862  -0.814  28.705  0.00  0.00    -0.171 F 
ATOM     27  F   UNL     1       3.309  -2.945  28.625  0.00  0.00    -0.171 F 
ENDBRANCH  23  24
ENDBRANCH  22  23
ENDBRANCH  21  22
ENDBRANCH   8  21
ENDBRANCH   1  11
BRANCH   3  28
ATOM     28  O   UNL     1       6.541  -6.530  22.262  0.00  0.00    -0.386 OA
ATOM     29  H   UNL     1       6.975  -7.272  22.731  0.00  0.00    +0.210 HD
ENDBRANCH   3  28
BRANCH   2  30
ATOM     30  O   UNL     1       5.725  -4.551  20.902  0.00  0.00    -0.385 OA
ATOM     31  H   UNL     1       5.124  -3.782  20.878  0.00  0.00    +0.210 HD
ENDBRANCH   2  30
BRANCH   4  32
ATOM     32  C   UNL     1       8.483  -4.805  24.632  0.00  0.00    +0.206 C 
BRANCH  32  33
ATOM     33  O   UNL     1       8.437  -5.547  25.845  0.00  0.00    -0.284 OA
BRANCH  33  34
ATOM     34  P   UNL     1       6.923  -5.296  26.645  0.00  0.00    +0.482 P 
ATOM     35  O   UNL     1       7.342  -3.867  26.977  0.00  0.00    -0.227 OA
BRANCH  34  36
ATOM     36  O   UNL     1       7.462  -6.176  27.906  0.00  0.00    -0.302 OA
ATOM     37  H   UNL     1       7.477  -5.584  28.684  0.00  0.00    +0.222 HD
ENDBRANCH  34  36
BRANCH  34  38
ATOM     38  O   UNL     1       5.411  -5.045  27.445  0.00  0.00    -0.206 OA
BRANCH  38  39
ATOM     39  P   UNL     1       4.174  -6.082  27.397  0.00  0.00    +0.386 P 
ATOM     40  O   UNL     1       3.442  -6.240  28.693  0.00  0.00    -0.254 OA
BRANCH  39  41
ATOM     41  C   UNL     1       3.124  -5.931  25.924  0.00  0.00    +0.318 C 
ATOM     42 CL   UNL     1       3.547  -4.392  25.086  0.00  0.00    -0.075 Cl
ATOM     43 CL   UNL     1       1.397  -5.757  26.503  0.00  0.00    -0.075 Cl
BRANCH  41  44
ATOM     44  P   UNL     1       3.072  -7.232  24.684  0.00  0.00    +0.375 P 
ATOM     45  O   UNL     1       2.127  -7.073  23.532  0.00  0.00    -0.255 OA
BRANCH  44  46
ATOM     46  O   UNL     1       4.604  -7.340  24.201  0.00  0.00    -0.322 OA
ATOM     47  H   UNL     1       4.870  -8.278  24.042  0.00  0.00    +0.220 HD
ENDBRANCH  44  46
BRANCH  44  48
ATOM     48  O   UNL     1       2.872  -8.627  25.457  0.00  0.00    -0.322 OA
ATOM     49  H   UNL     1       1.960  -8.990  25.451  0.00  0.00    +0.220 HD
ENDBRANCH  44  48
ENDBRANCH  41  44
ENDBRANCH  39  41
BRANCH  39  50
ATOM     50  O   UNL     1       4.999  -7.448  27.111  0.00  0.00    -0.321 OA
ATOM     51  H   UNL     1       5.843  -7.455  27.597  0.00  0.00    +0.220 HD
ENDBRANCH  39  50
ENDBRANCH  38  39
ENDBRANCH  34  38
ENDBRANCH  33  34
ENDBRANCH  32  33
ENDBRANCH   4  32
TORSDOF 22
ENDMDL
MODEL 5
REMARK VINA RESULT:      -6.1      2.478      3.860
REMARK  Name = 
REMARK  23 active torsions:
REMARK  status: ('A' for Active; 'I' for Inactive)
REMARK    1  A    between atoms: C_1  and  S_2
REMARK    2  A    between atoms: S_2  and  C_3
REMARK    3  A    between atoms: C_3  and  C_4
REMARK    4  A    between atoms: C_4  and  N_5
REMARK    5  A    between atoms: N_5  and  C_6
REMARK    6  A    between atoms: N_10  and  C_11
REMARK    7  A    between atoms: C_14  and  C_16
REMARK    8  A    between atoms: C_16  and  O_17
REMARK    9  A    between atoms: O_17  and  P_18
REMARK   10  A    between atoms: P_18  and  O_19
REMARK   11  A    between atoms: P_18  and  O_21
REMARK   12  A    between atoms: O_21  and  P_22
REMARK   13  A    between atoms: P_22  and  O_23
REMARK   14  A    between atoms: P_22  and  C_25
REMARK   15  A    between atoms: C_25  and  P_28
REMARK   16  A    between atoms: P_28  and  O_29
REMARK   17  A    between atoms: P_28  and  O_30
REMARK   18  A    between atoms: C_32  and  O_34
REMARK   19  A    between atoms: C_35  and  O_37
REMARK   20  A    between atoms: C_40  and  S_41
REMARK   21  A    between atoms: S_41  and  C_42
REMARK   22  A    between atoms: C_42  and  C_43
REMARK   23  A    between atoms: C_43  and  C_44
REMARK                            x       y       z     vdW  Elec       q    Type
REMARK                         _______ _______ _______ _____ _____    ______ ____
ROOT
ATOM      1  C   UNL     1       7.859  -2.955  24.518  0.00  0.00    +0.253 C 
ATOM      2  C   UNL     1       9.343  -3.134  24.890  0.00  0.00    +0.195 C 
ATOM      3  C   UNL     1       9.409  -4.386  25.769  0.00  0.00    +0.178 C 
ATOM      4  C   UNL     1       8.013  -4.993  25.708  0.00  0.00    +0.178 C 
ATOM      5  O   UNL     1       7.247  -4.239  24.744  0.00  0.00    -0.346 OA
ENDROOT
BRANCH   1  11
ATOM      6  C   UNL     1       5.273   1.133  25.226  0.00  0.00    +0.151 A 
ATOM      7  N   UNL     1       5.730   1.740  24.083  0.00  0.00    -0.205 NA
ATOM      8  C   UNL     1       6.632   1.082  23.306  0.00  0.00    +0.192 A 
ATOM      9  N   UNL     1       7.134  -0.157  23.510  0.00  0.00    -0.202 NA
ATOM     10  C   UNL     1       6.708  -0.705  24.652  0.00  0.00    +0.169 A 
ATOM     11  N   UNL     1       7.071  -1.919  25.179  0.00  0.00    -0.285 N 
ATOM     12  C   UNL     1       6.344  -2.063  26.340  0.00  0.00    +0.203 A 
ATOM     13  N   UNL     1       5.649  -0.989  26.627  0.00  0.00    -0.231 NA
ATOM     14  C   UNL     1       5.814  -0.144  25.547  0.00  0.00    +0.148 A 
BRANCH   6  15
ATOM     15  N   UNL     1       4.476   1.808  26.165  0.00  0.00    -0.326 N 
ATOM     16  H   UNL     1       4.514   1.246  27.019  0.00  0.00    +0.148 HD
BRANCH  15  17
ATOM     17  C   UNL     1       4.807   3.192  26.519  0.00  0.00    +0.113 C 
BRANCH  17  18
ATOM     18  C   UNL     1       6.181   3.249  27.230  0.00  0.00    +0.087 C 
BRANCH  18  20
ATOM     19  C   UNL     1       6.409   5.109  25.154  0.00  0.00    +0.084 C 
ATOM     20  S   UNL     1       7.271   4.617  26.668  0.00  0.00    -0.163 S 
ENDBRANCH  18  20
ENDBRANCH  17  18
ENDBRANCH  15  17
ENDBRANCH   6  15
BRANCH   8  21
ATOM     21  S   UNL     1       7.494   1.891  21.969  0.00  0.00    -0.086 S 
BRANCH  21  22
ATOM     22  C   UNL     1       9.031   0.949  21.699  0.00  0.00    +0.086 C 
BRANCH  22  23
ATOM     23  C   UNL     1      10.145   1.746  22.391  0.00  0.00    +0.124 C 
BRANCH  23  24
ATOM     24  C   UNL     1      10.422   1.289  23.807  0.00  0.00    +0.391 C 
ATOM     25  F   UNL     1      10.291  -0.053  23.912  0.00  0.00    -0.171 F 
ATOM     26  F   UNL     1       9.541   1.845  24.669  0.00  0.00    -0.171 F 
ATOM     27  F   UNL     1      11.662   1.614  24.224  0.00  0.00    -0.171 F 
ENDBRANCH  23  24
ENDBRANCH  22  23
ENDBRANCH  21  22
ENDBRANCH   8  21
ENDBRANCH   1  11
BRANCH   3  28
ATOM     28  O   UNL     1      10.362  -5.350  25.308  0.00  0.00    -0.386 OA
ATOM     29  H   UNL     1      11.216  -5.140  25.737  0.00  0.00    +0.210 HD
ENDBRANCH   3  28
BRANCH   2  30
ATOM     30  O   UNL     1      10.161  -3.381  23.721  0.00  0.00    -0.385 OA
ATOM     31  H   UNL     1      10.153  -4.336  23.519  0.00  0.00    +0.210 HD
ENDBRANCH   2  30
BRANCH   4  32
ATOM     32  C   UNL     1       7.358  -4.929  27.087  0.00  0.00    +0.206 C 
BRANCH  32  33
ATOM     33  O   UNL     1       6.968  -6.229  27.510  0.00  0.00    -0.284 OA
BRANCH  33  34
ATOM     34  P   UNL     1       5.244  -6.376  27.491  0.00  0.00    +0.482 P 
ATOM     35  O   UNL     1       5.135  -5.145  28.385  0.00  0.00    -0.227 OA
BRANCH  34  36
ATOM     36  O   UNL     1       5.354  -7.622  28.534  0.00  0.00    -0.302 OA
ATOM     37  H   UNL     1       6.236  -7.570  28.952  0.00  0.00    +0.222 HD
ENDBRANCH  34  36
BRANCH  34  38
ATOM     38  O   UNL     1       3.521  -6.522  27.471  0.00  0.00    -0.206 OA
BRANCH  38  39
ATOM     39  P   UNL     1       2.645  -6.763  26.137  0.00  0.00    +0.386 P 
ATOM     40  O   UNL     1       1.259  -7.275  26.385  0.00  0.00    -0.254 OA
BRANCH  39  41
ATOM     41  C   UNL     1       2.775  -5.439  24.903  0.00  0.00    +0.318 C 
ATOM     42 CL   UNL     1       3.249  -3.921  25.752  0.00  0.00    -0.075 Cl
ATOM     43 CL   UNL     1       1.098  -5.161  24.225  0.00  0.00    -0.075 Cl
BRANCH  41  44
ATOM     44  P   UNL     1       3.837  -5.614  23.462  0.00  0.00    +0.375 P 
ATOM     45  O   UNL     1       4.145  -4.387  22.658  0.00  0.00    -0.255 OA
BRANCH  44  46
ATOM     46  O   UNL     1       5.166  -6.291  24.066  0.00  0.00    -0.322 OA
ATOM     47  H   UNL     1       5.975  -6.010  23.572  0.00  0.00    +0.220 HD
ENDBRANCH  44  46
BRANCH  44  48
ATOM     48  O   UNL     1       3.239  -6.805  22.564  0.00  0.00    -0.322 OA
ATOM     49  H   UNL     1       3.839  -7.161  21.874  0.00  0.00    +0.220 HD
ENDBRANCH  44  48
ENDBRANCH  41  44
ENDBRANCH  39  41
BRANCH  39  50
ATOM     50  O   UNL     1       3.515  -7.959  25.474  0.00  0.00    -0.321 OA
ATOM     51  H   UNL     1       4.251  -7.603  24.943  0.00  0.00    +0.220 HD
ENDBRANCH  39  50
ENDBRANCH  38  39
ENDBRANCH  34  38
ENDBRANCH  33  34
ENDBRANCH  32  33
ENDBRANCH   4  32
TORSDOF 22
ENDMDL
MODEL 6
REMARK VINA RESULT:      -6.1      2.982      4.926
REMARK  Name = 
REMARK  23 active torsions:
REMARK  status: ('A' for Active; 'I' for Inactive)
REMARK    1  A    between atoms: C_1  and  S_2
REMARK    2  A    between atoms: S_2  and  C_3
REMARK    3  A    between atoms: C_3  and  C_4
REMARK    4  A    between atoms: C_4  and  N_5
REMARK    5  A    between atoms: N_5  and  C_6
REMARK    6  A    between atoms: N_10  and  C_11
REMARK    7  A    between atoms: C_14  and  C_16
REMARK    8  A    between atoms: C_16  and  O_17
REMARK    9  A    between atoms: O_17  and  P_18
REMARK   10  A    between atoms: P_18  and  O_19
REMARK   11  A    between atoms: P_18  and  O_21
REMARK   12  A    between atoms: O_21  and  P_22
REMARK   13  A    between atoms: P_22  and  O_23
REMARK   14  A    between atoms: P_22  and  C_25
REMARK   15  A    between atoms: C_25  and  P_28
REMARK   16  A    between atoms: P_28  and  O_29
REMARK   17  A    between atoms: P_28  and  O_30
REMARK   18  A    between atoms: C_32  and  O_34
REMARK   19  A    between atoms: C_35  and  O_37
REMARK   20  A    between atoms: C_40  and  S_41
REMARK   21  A    between atoms: S_41  and  C_42
REMARK   22  A    between atoms: C_42  and  C_43
REMARK   23  A    between atoms: C_43  and  C_44
REMARK                            x       y       z     vdW  Elec       q    Type
REMARK                         _______ _______ _______ _____ _____    ______ ____
ROOT
ATOM      1  C   UNL     1       7.901   0.326  23.171  0.00  0.00    +0.253 C 
ATOM      2  C   UNL     1       9.249   0.403  22.430  0.00  0.00    +0.195 C 
ATOM      3  C   UNL     1       9.880  -0.986  22.554  0.00  0.00    +0.178 C 
ATOM      4  C   UNL     1       8.799  -1.862  23.176  0.00  0.00    +0.178 C 
ATOM      5  O   UNL     1       7.590  -1.078  23.259  0.00  0.00    -0.346 OA
ENDROOT
BRANCH   1  11
ATOM      6  C   UNL     1       7.201   3.679  26.659  0.00  0.00    +0.151 A 
ATOM      7  N   UNL     1       7.421   4.743  25.820  0.00  0.00    -0.205 NA
ATOM      8  C   UNL     1       7.741   4.500  24.521  0.00  0.00    +0.192 A 
ATOM      9  N   UNL     1       7.845   3.293  23.918  0.00  0.00    -0.202 NA
ATOM     10  C   UNL     1       7.671   2.276  24.767  0.00  0.00    +0.169 A 
ATOM     11  N   UNL     1       7.767   0.936  24.490  0.00  0.00    -0.285 N 
ATOM     12  C   UNL     1       7.467   0.282  25.665  0.00  0.00    +0.203 A 
ATOM     13  N   UNL     1       7.304   1.111  26.667  0.00  0.00    -0.231 NA
ATOM     14  C   UNL     1       7.365   2.375  26.113  0.00  0.00    +0.148 A 
BRANCH   6  15
ATOM     15  N   UNL     1       7.034   3.839  28.044  0.00  0.00    -0.326 N 
ATOM     16  H   UNL     1       7.632   4.624  28.308  0.00  0.00    +0.148 HD
BRANCH  15  17
ATOM     17  C   UNL     1       5.691   4.094  28.576  0.00  0.00    +0.113 C 
BRANCH  17  18
ATOM     18  C   UNL     1       5.028   2.766  29.016  0.00  0.00    +0.087 C 
BRANCH  18  20
ATOM     19  C   UNL     1       3.496   3.589  26.825  0.00  0.00    +0.084 C 
ATOM     20  S   UNL     1       3.779   2.115  27.836  0.00  0.00    -0.163 S 
ENDBRANCH  18  20
ENDBRANCH  17  18
ENDBRANCH  15  17
ENDBRANCH   6  15
BRANCH   8  21
ATOM     21  S   UNL     1       8.321   5.792  23.433  0.00  0.00    -0.086 S 
BRANCH  21  22
ATOM     22  C   UNL     1      10.002   6.221  23.990  0.00  0.00    +0.086 C 
BRANCH  22  23
ATOM     23  C   UNL     1      10.892   5.026  23.620  0.00  0.00    +0.124 C 
BRANCH  23  24
ATOM     24  C   UNL     1      12.339   5.402  23.390  0.00  0.00    +0.391 C 
ATOM     25  F   UNL     1      12.514   5.901  22.146  0.00  0.00    -0.171 F 
ATOM     26  F   UNL     1      13.138   4.317  23.501  0.00  0.00    -0.171 F 
ATOM     27  F   UNL     1      12.781   6.325  24.268  0.00  0.00    -0.171 F 
ENDBRANCH  23  24
ENDBRANCH  22  23
ENDBRANCH  21  22
ENDBRANCH   8  21
ENDBRANCH   1  11
BRANCH   3  28
ATOM     28  O   UNL     1      10.270  -1.543  21.295  0.00  0.00    -0.386 OA
ATOM     29  H   UNL     1       9.921  -0.953  20.597  0.00  0.00    +0.210 HD
ENDBRANCH   3  28
BRANCH   2  30
ATOM     30  O   UNL     1       9.070   0.675  21.019  0.00  0.00    -0.385 OA
ATOM     31  H   UNL     1       9.828   0.310  20.523  0.00  0.00    +0.210 HD
ENDBRANCH   2  30
BRANCH   4  32
ATOM     32  C   UNL     1       9.239  -2.322  24.565  0.00  0.00    +0.206 C 
BRANCH  32  33
ATOM     33  O   UNL     1       9.752  -3.647  24.508  0.00  0.00    -0.284 OA
BRANCH  33  34
ATOM     34  P   UNL     1       8.691  -4.738  25.333  0.00  0.00    +0.482 P 
ATOM     35  O   UNL     1       9.057  -4.080  26.660  0.00  0.00    -0.227 OA
BRANCH  34  36
ATOM     36  O   UNL     1       9.796  -5.922  25.154  0.00  0.00    -0.302 OA
ATOM     37  H   UNL     1       9.668  -6.301  24.262  0.00  0.00    +0.222 HD
ENDBRANCH  34  36
BRANCH  34  38
ATOM     38  O   UNL     1       7.631  -5.828  26.158  0.00  0.00    -0.206 OA
BRANCH  38  39
ATOM     39  P   UNL     1       6.150  -5.441  26.670  0.00  0.00    +0.386 P 
ATOM     40  O   UNL     1       6.117  -4.443  27.787  0.00  0.00    -0.254 OA
BRANCH  39  41
ATOM     41  C   UNL     1       4.945  -5.160  25.342  0.00  0.00    +0.318 C 
ATOM     42 CL   UNL     1       3.384  -5.918  25.828  0.00  0.00    -0.075 Cl
ATOM     43 CL   UNL     1       5.536  -6.071  23.869  0.00  0.00    -0.075 Cl
BRANCH  41  44
ATOM     44  P   UNL     1       4.585  -3.500  24.751  0.00  0.00    +0.375 P 
ATOM     45  O   UNL     1       3.257  -2.899  25.098  0.00  0.00    -0.255 OA
BRANCH  44  46
ATOM     46  O   UNL     1       5.812  -2.631  25.326  0.00  0.00    -0.322 OA
ATOM     47  H   UNL     1       5.723  -2.475  26.298  0.00  0.00    +0.220 HD
ENDBRANCH  44  46
BRANCH  44  48
ATOM     48  O   UNL     1       4.878  -3.477  23.171  0.00  0.00    -0.322 OA
ATOM     49  H   UNL     1       4.246  -2.959  22.628  0.00  0.00    +0.220 HD
ENDBRANCH  44  48
ENDBRANCH  41  44
ENDBRANCH  39  41
BRANCH  39  50
ATOM     50  O   UNL     1       5.702  -6.881  27.263  0.00  0.00    -0.321 OA
ATOM     51  H   UNL     1       6.043  -7.009  28.166  0.00  0.00    +0.220 HD
ENDBRANCH  39  50
ENDBRANCH  38  39
ENDBRANCH  34  38
ENDBRANCH  33  34
ENDBRANCH  32  33
ENDBRANCH   4  32
TORSDOF 22
ENDMDL
MODEL 7
REMARK VINA RESULT:      -6.1      3.103      5.071
REMARK  Name = 
REMARK  23 active torsions:
REMARK  status: ('A' for Active; 'I' for Inactive)
REMARK    1  A    between atoms: C_1  and  S_2
REMARK    2  A    between atoms: S_2  and  C_3
REMARK    3  A    between atoms: C_3  and  C_4
REMARK    4  A    between atoms: C_4  and  N_5
REMARK    5  A    between atoms: N_5  and  C_6
REMARK    6  A    between atoms: N_10  and  C_11
REMARK    7  A    between atoms: C_14  and  C_16
REMARK    8  A    between atoms: C_16  and  O_17
REMARK    9  A    between atoms: O_17  and  P_18
REMARK   10  A    between atoms: P_18  and  O_19
REMARK   11  A    between atoms: P_18  and  O_21
REMARK   12  A    between atoms: O_21  and  P_22
REMARK   13  A    between atoms: P_22  and  O_23
REMARK   14  A    between atoms: P_22  and  C_25
REMARK   15  A    between atoms: C_25  and  P_28
REMARK   16  A    between atoms: P_28  and  O_29
REMARK   17  A    between atoms: P_28  and  O_30
REMARK   18  A    between atoms: C_32  and  O_34
REMARK   19  A    between atoms: C_35  and  O_37
REMARK   20  A    between atoms: C_40  and  S_41
REMARK   21  A    between atoms: S_41  and  C_42
REMARK   22  A    between atoms: C_42  and  C_43
REMARK   23  A    between atoms: C_43  and  C_44
REMARK                            x       y       z     vdW  Elec       q    Type
REMARK                         _______ _______ _______ _____ _____    ______ ____
ROOT
ATOM      1  C   UNL     1       7.788   0.377  23.082  0.00  0.00    +0.253 C 
ATOM      2  C   UNL     1       9.100   0.518  22.287  0.00  0.00    +0.195 C 
ATOM      3  C   UNL     1       9.810  -0.833  22.401  0.00  0.00    +0.178 C 
ATOM      4  C   UNL     1       8.805  -1.758  23.076  0.00  0.00    +0.178 C 
ATOM      5  O   UNL     1       7.558  -1.040  23.199  0.00  0.00    -0.346 OA
ENDROOT
BRANCH   1  11
ATOM      6  C   UNL     1       7.171   3.762  26.555  0.00  0.00    +0.151 A 
ATOM      7  N   UNL     1       7.405   4.818  25.709  0.00  0.00    -0.205 NA
ATOM      8  C   UNL     1       7.712   4.561  24.409  0.00  0.00    +0.192 A 
ATOM      9  N   UNL     1       7.790   3.350  23.812  0.00  0.00    -0.202 NA
ATOM     10  C   UNL     1       7.603   2.340  24.669  0.00  0.00    +0.169 A 
ATOM     11  N   UNL     1       7.674   0.997  24.399  0.00  0.00    -0.285 N 
ATOM     12  C   UNL     1       7.370   0.355  25.579  0.00  0.00    +0.203 A 
ATOM     13  N   UNL     1       7.227   1.193  26.577  0.00  0.00    -0.231 NA
ATOM     14  C   UNL     1       7.308   2.453  26.016  0.00  0.00    +0.148 A 
BRANCH   6  15
ATOM     15  N   UNL     1       7.016   3.933  27.940  0.00  0.00    -0.326 N 
ATOM     16  H   UNL     1       7.336   4.883  28.142  0.00  0.00    +0.148 HD
BRANCH  15  17
ATOM     17  C   UNL     1       5.685   3.768  28.535  0.00  0.00    +0.113 C 
BRANCH  17  18
ATOM     18  C   UNL     1       5.810   3.264  29.994  0.00  0.00    +0.087 C 
BRANCH  18  20
ATOM     19  C   UNL     1       7.875   1.422  30.397  0.00  0.00    +0.084 C 
ATOM     20  S   UNL     1       6.082   1.455  30.152  0.00  0.00    -0.163 S 
ENDBRANCH  18  20
ENDBRANCH  17  18
ENDBRANCH  15  17
ENDBRANCH   6  15
BRANCH   8  21
ATOM     21  S   UNL     1       8.308   5.836  23.310  0.00  0.00    -0.086 S 
BRANCH  21  22
ATOM     22  C   UNL     1       9.969   6.296  23.904  0.00  0.00    +0.086 C 
BRANCH  22  23
ATOM     23  C   UNL     1      10.856   5.063  23.681  0.00  0.00    +0.124 C 
BRANCH  23  24
ATOM     24  C   UNL     1      12.298   5.407  23.374  0.00  0.00    +0.391 C 
ATOM     25  F   UNL     1      13.089   4.319  23.511  0.00  0.00    -0.171 F 
ATOM     26  F   UNL     1      12.758   6.346  24.231  0.00  0.00    -0.171 F 
ATOM     27  F   UNL     1      12.463   5.879  22.123  0.00  0.00    -0.171 F 
ENDBRANCH  23  24
ENDBRANCH  22  23
ENDBRANCH  21  22
ENDBRANCH   8  21
ENDBRANCH   1  11
BRANCH   3  28
ATOM     28  O   UNL     1      10.179  -1.385  21.133  0.00  0.00    -0.386 OA
ATOM     29  H   UNL     1      10.687  -2.203  21.310  0.00  0.00    +0.210 HD
ENDBRANCH   3  28
BRANCH   2  30
ATOM     30  O   UNL     1       8.850   0.760  20.881  0.00  0.00    -0.385 OA
ATOM     31  H   UNL     1       9.461   0.217  20.348  0.00  0.00    +0.210 HD
ENDBRANCH   2  30
BRANCH   4  32
ATOM     32  C   UNL     1       9.324  -2.174  24.451  0.00  0.00    +0.206 C 
BRANCH  32  33
ATOM     33  O   UNL     1       9.731  -3.537  24.435  0.00  0.00    -0.284 OA
BRANCH  33  34
ATOM     34  P   UNL     1       8.364  -4.569  24.183  0.00  0.00    +0.482 P 
ATOM     35  O   UNL     1       7.836  -4.197  25.565  0.00  0.00    -0.227 OA
BRANCH  34  36
ATOM     36  O   UNL     1       9.314  -5.865  24.451  0.00  0.00    -0.302 OA
ATOM     37  H   UNL     1      10.150  -5.714  23.967  0.00  0.00    +0.222 HD
ENDBRANCH  34  36
BRANCH  34  38
ATOM     38  O   UNL     1       6.998  -5.599  23.931  0.00  0.00    -0.206 OA
BRANCH  38  39
ATOM     39  P   UNL     1       5.517  -5.071  23.570  0.00  0.00    +0.386 P 
ATOM     40  O   UNL     1       5.143  -5.205  22.125  0.00  0.00    -0.254 OA
BRANCH  39  41
ATOM     41  C   UNL     1       4.232  -5.564  24.753  0.00  0.00    +0.318 C 
ATOM     42 CL   UNL     1       3.429  -7.050  24.126  0.00  0.00    -0.075 Cl
ATOM     43 CL   UNL     1       2.965  -4.244  24.762  0.00  0.00    -0.075 Cl
BRANCH  41  44
ATOM     44  P   UNL     1       4.626  -5.845  26.486  0.00  0.00    +0.375 P 
ATOM     45  O   UNL     1       4.371  -4.733  27.458  0.00  0.00    -0.255 OA
BRANCH  44  46
ATOM     46  O   UNL     1       3.782  -7.168  26.844  0.00  0.00    -0.322 OA
ATOM     47  H   UNL     1       2.885  -6.944  27.194  0.00  0.00    +0.220 HD
ENDBRANCH  44  46
BRANCH  44  48
ATOM     48  O   UNL     1       6.136  -6.390  26.554  0.00  0.00    -0.322 OA
ATOM     49  H   UNL     1       6.561  -6.578  25.690  0.00  0.00    +0.220 HD
ENDBRANCH  44  48
ENDBRANCH  41  44
ENDBRANCH  39  41
BRANCH  39  50
ATOM     50  O   UNL     1       5.721  -3.497  23.896  0.00  0.00    -0.321 OA
ATOM     51  H   UNL     1       6.652  -3.234  23.782  0.00  0.00    +0.220 HD
ENDBRANCH  39  50
ENDBRANCH  38  39
ENDBRANCH  34  38
ENDBRANCH  33  34
ENDBRANCH  32  33
ENDBRANCH   4  32
TORSDOF 22
ENDMDL
MODEL 8
REMARK VINA RESULT:      -6.0      4.769      7.459
REMARK  Name = 
REMARK  23 active torsions:
REMARK  status: ('A' for Active; 'I' for Inactive)
REMARK    1  A    between atoms: C_1  and  S_2
REMARK    2  A    between atoms: S_2  and  C_3
REMARK    3  A    between atoms: C_3  and  C_4
REMARK    4  A    between atoms: C_4  and  N_5
REMARK    5  A    between atoms: N_5  and  C_6
REMARK    6  A    between atoms: N_10  and  C_11
REMARK    7  A    between atoms: C_14  and  C_16
REMARK    8  A    between atoms: C_16  and  O_17
REMARK    9  A    between atoms: O_17  and  P_18
REMARK   10  A    between atoms: P_18  and  O_19
REMARK   11  A    between atoms: P_18  and  O_21
REMARK   12  A    between atoms: O_21  and  P_22
REMARK   13  A    between atoms: P_22  and  O_23
REMARK   14  A    between atoms: P_22  and  C_25
REMARK   15  A    between atoms: C_25  and  P_28
REMARK   16  A    between atoms: P_28  and  O_29
REMARK   17  A    between atoms: P_28  and  O_30
REMARK   18  A    between atoms: C_32  and  O_34
REMARK   19  A    between atoms: C_35  and  O_37
REMARK   20  A    between atoms: C_40  and  S_41
REMARK   21  A    between atoms: S_41  and  C_42
REMARK   22  A    between atoms: C_42  and  C_43
REMARK   23  A    between atoms: C_43  and  C_44
REMARK                            x       y       z     vdW  Elec       q    Type
REMARK                         _______ _______ _______ _____ _____    ______ ____
ROOT
ATOM      1  C   UNL     1       9.774  -0.838  23.540  0.00  0.00    +0.253 C 
ATOM      2  C   UNL     1       9.028  -0.383  22.272  0.00  0.00    +0.195 C 
ATOM      3  C   UNL     1       8.884   1.137  22.389  0.00  0.00    +0.178 C 
ATOM      4  C   UNL     1       9.718   1.525  23.604  0.00  0.00    +0.178 C 
ATOM      5  O   UNL     1      10.415   0.344  24.056  0.00  0.00    -0.346 OA
ENDROOT
BRANCH   1  11
ATOM      6  C   UNL     1       7.506  -4.308  26.132  0.00  0.00    +0.151 A 
ATOM      7  N   UNL     1       7.371  -5.159  25.063  0.00  0.00    -0.205 NA
ATOM      8  C   UNL     1       7.825  -4.760  23.845  0.00  0.00    +0.192 A 
ATOM      9  N   UNL     1       8.445  -3.596  23.546  0.00  0.00    -0.202 NA
ATOM     10  C   UNL     1       8.522  -2.769  24.594  0.00  0.00    +0.169 A 
ATOM     11  N   UNL     1       9.035  -1.497  24.613  0.00  0.00    -0.285 N 
ATOM     12  C   UNL     1       8.931  -1.065  25.917  0.00  0.00    +0.203 A 
ATOM     13  N   UNL     1       8.295  -1.924  26.676  0.00  0.00    -0.231 NA
ATOM     14  C   UNL     1       8.082  -3.032  25.879  0.00  0.00    +0.148 A 
BRANCH   6  15
ATOM     15  N   UNL     1       6.916  -4.572  27.378  0.00  0.00    -0.326 N 
ATOM     16  H   UNL     1       6.258  -3.807  27.543  0.00  0.00    +0.148 HD
BRANCH  15  17
ATOM     17  C   UNL     1       6.198  -5.836  27.575  0.00  0.00    +0.113 C 
BRANCH  17  18
ATOM     18  C   UNL     1       5.882  -6.045  29.076  0.00  0.00    +0.087 C 
BRANCH  18  20
ATOM     19  C   UNL     1       3.468  -6.534  27.751  0.00  0.00    +0.084 C 
ATOM     20  S   UNL     1       4.165  -6.601  29.420  0.00  0.00    -0.163 S 
ENDBRANCH  18  20
ENDBRANCH  17  18
ENDBRANCH  15  17
ENDBRANCH   6  15
BRANCH   8  21
ATOM     21  S   UNL     1       7.444  -5.663  22.352  0.00  0.00    -0.086 S 
BRANCH  21  22
ATOM     22  C   UNL     1       5.807  -5.081  21.800  0.00  0.00    +0.086 C 
BRANCH  22  23
ATOM     23  C   UNL     1       4.792  -5.655  22.798  0.00  0.00    +0.124 C 
BRANCH  23  24
ATOM     24  C   UNL     1       4.069  -4.594  23.598  0.00  0.00    +0.391 C 
ATOM     25  F   UNL     1       4.566  -3.366  23.326  0.00  0.00    -0.171 F 
ATOM     26  F   UNL     1       4.227  -4.804  24.924  0.00  0.00    -0.171 F 
ATOM     27  F   UNL     1       2.745  -4.565  23.344  0.00  0.00    -0.171 F 
ENDBRANCH  23  24
ENDBRANCH  22  23
ENDBRANCH  21  22
ENDBRANCH   8  21
ENDBRANCH   1  11
BRANCH   3  28
ATOM     28  O   UNL     1       9.369   1.840  21.241  0.00  0.00    -0.386 OA
ATOM     29  H   UNL     1      10.323   2.006  21.384  0.00  0.00    +0.210 HD
ENDBRANCH   3  28
BRANCH   2  30
ATOM     30  O   UNL     1       9.794  -0.655  21.073  0.00  0.00    -0.385 OA
ATOM     31  H   UNL     1       9.201  -0.622  20.298  0.00  0.00    +0.210 HD
ENDBRANCH   2  30
BRANCH   4  32
ATOM     32  C   UNL     1       8.810   2.070  24.704  0.00  0.00    +0.206 C 
BRANCH  32  33
ATOM     33  O   UNL     1       7.448   2.000  24.303  0.00  0.00    -0.284 OA
BRANCH  33  34
ATOM     34  P   UNL     1       6.408   2.122  25.680  0.00  0.00    +0.482 P 
ATOM     35  O   UNL     1       5.834   3.421  25.123  0.00  0.00    -0.227 OA
BRANCH  34  36
ATOM     36  O   UNL     1       7.681   2.598  26.579  0.00  0.00    -0.302 OA
ATOM     37  H   UNL     1       7.760   3.566  26.474  0.00  0.00    +0.222 HD
ENDBRANCH  34  36
BRANCH  34  38
ATOM     38  O   UNL     1       5.368   2.246  27.057  0.00  0.00    -0.206 OA
BRANCH  38  39
ATOM     39  P   UNL     1       5.234   1.112  28.198  0.00  0.00    +0.386 P 
ATOM     40  O   UNL     1       5.346   1.623  29.601  0.00  0.00    -0.254 OA
BRANCH  39  41
ATOM     41  C   UNL     1       3.903  -0.089  27.912  0.00  0.00    +0.318 C 
ATOM     42 CL   UNL     1       2.536   0.766  27.106  0.00  0.00    -0.075 Cl
ATOM     43 CL   UNL     1       3.294  -0.626  29.551  0.00  0.00    -0.075 Cl
BRANCH  41  44
ATOM     44  P   UNL     1       4.206  -1.612  27.004  0.00  0.00    +0.375 P 
ATOM     45  O   UNL     1       4.617  -2.827  27.780  0.00  0.00    -0.255 OA
BRANCH  44  46
ATOM     46  O   UNL     1       2.830  -1.841  26.202  0.00  0.00    -0.322 OA
ATOM     47  H   UNL     1       2.049  -1.538  26.726  0.00  0.00    +0.220 HD
ENDBRANCH  44  46
BRANCH  44  48
ATOM     48  O   UNL     1       5.229  -1.267  25.813  0.00  0.00    -0.322 OA
ATOM     49  H   UNL     1       4.838  -1.233  24.913  0.00  0.00    +0.220 HD
ENDBRANCH  44  48
ENDBRANCH  41  44
ENDBRANCH  39  41
BRANCH  39  50
ATOM     50  O   UNL     1       6.569   0.255  27.863  0.00  0.00    -0.321 OA
ATOM     51  H   UNL     1       6.531  -0.113  26.962  0.00  0.00    +0.220 HD
ENDBRANCH  39  50
ENDBRANCH  38  39
ENDBRANCH  34  38
ENDBRANCH  33  34
ENDBRANCH  32  33
ENDBRANCH   4  32
TORSDOF 22
ENDMDL
MODEL 9
REMARK VINA RESULT:      -5.9      1.893      3.801
REMARK  Name = 
REMARK  23 active torsions:
REMARK  status: ('A' for Active; 'I' for Inactive)
REMARK    1  A    between atoms: C_1  and  S_2
REMARK    2  A    between atoms: S_2  and  C_3
REMARK    3  A    between atoms: C_3  and  C_4
REMARK    4  A    between atoms: C_4  and  N_5
REMARK    5  A    between atoms: N_5  and  C_6
REMARK    6  A    between atoms: N_10  and  C_11
REMARK    7  A    between atoms: C_14  and  C_16
REMARK    8  A    between atoms: C_16  and  O_17
REMARK    9  A    between atoms: O_17  and  P_18
REMARK   10  A    between atoms: P_18  and  O_19
REMARK   11  A    between atoms: P_18  and  O_21
REMARK   12  A    between atoms: O_21  and  P_22
REMARK   13  A    between atoms: P_22  and  O_23
REMARK   14  A    between atoms: P_22  and  C_25
REMARK   15  A    between atoms: C_25  and  P_28
REMARK   16  A    between atoms: P_28  and  O_29
REMARK   17  A    between atoms: P_28  and  O_30
REMARK   18  A    between atoms: C_32  and  O_34
REMARK   19  A    between atoms: C_35  and  O_37
REMARK   20  A    between atoms: C_40  and  S_41
REMARK   21  A    between atoms: S_41  and  C_42
REMARK   22  A    between atoms: C_42  and  C_43
REMARK   23  A    between atoms: C_43  and  C_44
REMARK                            x       y       z     vdW  Elec       q    Type
REMARK                         _______ _______ _______ _____ _____    ______ ____
ROOT
ATOM      1  C   UNL     1       9.652  -0.526  24.995  0.00  0.00    +0.253 C 
ATOM      2  C   UNL     1       8.487  -0.897  25.931  0.00  0.00    +0.195 C 
ATOM      3  C   UNL     1       7.680  -1.971  25.195  0.00  0.00    +0.178 C 
ATOM      4  C   UNL     1       8.509  -2.323  23.967  0.00  0.00    +0.178 C 
ATOM      5  O   UNL     1       9.768  -1.623  24.069  0.00  0.00    -0.346 OA
ENDROOT
BRANCH   1  11
ATOM      6  C   UNL     1       8.651   4.116  23.831  0.00  0.00    +0.151 A 
ATOM      7  N   UNL     1       7.632   4.230  24.744  0.00  0.00    -0.205 NA
ATOM      8  C   UNL     1       7.304   3.149  25.501  0.00  0.00    +0.192 A 
ATOM      9  N   UNL     1       7.899   1.934  25.490  0.00  0.00    -0.202 NA
ATOM     10  C   UNL     1       8.856   1.838  24.562  0.00  0.00    +0.169 A 
ATOM     11  N   UNL     1       9.607   0.732  24.253  0.00  0.00    -0.285 N 
ATOM     12  C   UNL     1      10.482   1.129  23.266  0.00  0.00    +0.203 A 
ATOM     13  N   UNL     1      10.255   2.356  22.866  0.00  0.00    -0.231 NA
ATOM     14  C   UNL     1       9.276   2.844  23.710  0.00  0.00    +0.148 A 
BRANCH   6  15
ATOM     15  N   UNL     1       8.938   5.126  22.899  0.00  0.00    -0.326 N 
ATOM     16  H   UNL     1       8.048   5.348  22.446  0.00  0.00    +0.148 HD
BRANCH  15  17
ATOM     17  C   UNL     1       9.533   6.382  23.367  0.00  0.00    +0.113 C 
BRANCH  17  18
ATOM     18  C   UNL     1      10.387   6.131  24.634  0.00  0.00    +0.087 C 
BRANCH  18  20
ATOM     19  C   UNL     1      12.571   5.047  23.264  0.00  0.00    +0.084 C 
ATOM     20  S   UNL     1      12.189   6.401  24.402  0.00  0.00    -0.163 S 
ENDBRANCH  18  20
ENDBRANCH  17  18
ENDBRANCH  15  17
ENDBRANCH   6  15
BRANCH   8  21
ATOM     21  S   UNL     1       5.825   3.109  26.500  0.00  0.00    -0.086 S 
BRANCH  21  22
ATOM     22  C   UNL     1       4.449   3.591  25.406  0.00  0.00    +0.086 C 
BRANCH  22  23
ATOM     23  C   UNL     1       4.470   2.599  24.234  0.00  0.00    +0.124 C 
BRANCH  23  24
ATOM     24  C   UNL     1       4.720   3.256  22.895  0.00  0.00    +0.391 C 
ATOM     25  F   UNL     1       3.692   3.023  22.047  0.00  0.00    -0.171 F 
ATOM     26  F   UNL     1       5.835   2.755  22.317  0.00  0.00    -0.171 F 
ATOM     27  F   UNL     1       4.875   4.592  22.993  0.00  0.00    -0.171 F 
ENDBRANCH  23  24
ENDBRANCH  22  23
ENDBRANCH  21  22
ENDBRANCH   8  21
ENDBRANCH   1  11
BRANCH   3  28
ATOM     28  O   UNL     1       7.469  -3.152  25.975  0.00  0.00    -0.386 OA
ATOM     29  H   UNL     1       6.508  -3.223  26.140  0.00  0.00    +0.210 HD
ENDBRANCH   3  28
BRANCH   2  30
ATOM     30  O   UNL     1       8.960  -1.482  27.169  0.00  0.00    -0.385 OA
ATOM     31  H   UNL     1       8.195  -1.773  27.700  0.00  0.00    +0.210 HD
ENDBRANCH   2  30
BRANCH   4  32
ATOM     32  C   UNL     1       7.763  -1.907  22.700  0.00  0.00    +0.206 C 
BRANCH  32  33
ATOM     33  O   UNL     1       7.641  -3.012  21.812  0.00  0.00    -0.284 OA
BRANCH  33  34
ATOM     34  P   UNL     1       6.593  -4.213  22.487  0.00  0.00    +0.482 P 
ATOM     35  O   UNL     1       7.222  -5.264  21.576  0.00  0.00    -0.227 OA
BRANCH  34  36
ATOM     36  O   UNL     1       5.361  -3.606  21.610  0.00  0.00    -0.302 OA
ATOM     37  H   UNL     1       5.253  -2.671  21.875  0.00  0.00    +0.222 HD
ENDBRANCH  34  36
BRANCH  34  38
ATOM     38  O   UNL     1       5.546  -5.413  23.160  0.00  0.00    -0.206 OA
BRANCH  38  39
ATOM     39  P   UNL     1       4.140  -5.089  23.884  0.00  0.00    +0.386 P 
ATOM     40  O   UNL     1       2.950  -5.114  22.974  0.00  0.00    -0.254 OA
BRANCH  39  41
ATOM     41  C   UNL     1       3.911  -5.911  25.486  0.00  0.00    +0.318 C 
ATOM     42 CL   UNL     1       3.517  -7.643  25.179  0.00  0.00    -0.075 Cl
ATOM     43 CL   UNL     1       2.437  -5.167  26.273  0.00  0.00    -0.075 Cl
BRANCH  41  44
ATOM     44  P   UNL     1       5.192  -5.858  26.748  0.00  0.00    +0.375 P 
ATOM     45  O   UNL     1       5.188  -4.708  27.710  0.00  0.00    -0.255 OA
BRANCH  44  46
ATOM     46  O   UNL     1       5.031  -7.274  27.495  0.00  0.00    -0.322 OA
ATOM     47  H   UNL     1       5.705  -7.927  27.185  0.00  0.00    +0.220 HD
ENDBRANCH  44  46
BRANCH  44  48
ATOM     48  O   UNL     1       6.607  -6.035  26.006  0.00  0.00    -0.322 OA
ATOM     49  H   UNL     1       7.031  -6.914  26.103  0.00  0.00    +0.220 HD
ENDBRANCH  44  48
ENDBRANCH  41  44
ENDBRANCH  39  41
BRANCH  39  50
ATOM     50  O   UNL     1       4.421  -3.549  24.307  0.00  0.00    -0.321 OA
ATOM     51  H   UNL     1       5.357  -3.416  24.541  0.00  0.00    +0.220 HD
ENDBRANCH  39  50
ENDBRANCH  38  39
ENDBRANCH  34  38
ENDBRANCH  33  34
ENDBRANCH  32  33
ENDBRANCH   4  32
TORSDOF 22
ENDMDL
