MODEL 1
REMARK VINA RESULT:      -2.9      0.000      0.000
REMARK  Name = 
REMARK  3 active torsions:
REMARK  status: ('A' for Active; 'I' for Inactive)
REMARK    1  A    between atoms: N_1  and  CA_2
REMARK    2  A    between atoms: CA_2  and  C_3
REMARK    3  A    between atoms: C_3  and  O_4
REMARK                            x       y       z     vdW  Elec       q    Type
REMARK                         _______ _______ _______ _____ _____    ______ ____
ROOT
ATOM      1  CA  GLY A   1      12.670   4.978  23.005  0.00  0.00    +0.105 C 
ENDROOT
BRANCH   1   2
ATOM      2  N   GLY A   1      14.123   5.153  23.135  0.00  0.00    -0.328 NA
ATOM      3  H1  GLY A   1      14.569   4.942  22.240  0.00  0.00    +0.118 HD
ATOM      4  H2  GLY A   1      14.320   6.139  23.315  0.00  0.00    +0.118 HD
ENDBRANCH   1   2
BRANCH   1   5
ATOM      5  C   GLY A   1      11.936   5.928  23.956  0.00  0.00    +0.170 C 
BRANCH   5   6
ATOM      6  O   GLY A   1      12.859   6.477  24.892  0.00  0.00    -0.394 OA
ATOM      7  H   GLY A   1      12.682   7.441  24.877  0.00  0.00    +0.209 HD
ENDBRANCH   5   6
ENDBRANCH   1   5
TORSDOF 3
ENDMDL
MODEL 2
REMARK VINA RESULT:      -2.8      1.868      2.146
REMARK  Name = 
REMARK  3 active torsions:
REMARK  status: ('A' for Active; 'I' for Inactive)
REMARK    1  A    between atoms: N_1  and  CA_2
REMARK    2  A    between atoms: CA_2  and  C_3
REMARK    3  A    between atoms: C_3  and  O_4
REMARK                            x       y       z     vdW  Elec       q    Type
REMARK                         _______ _______ _______ _____ _____    ______ ____
ROOT
ATOM      1  CA  GLY A   1      12.022   6.003  23.818  0.00  0.00    +0.105 C 
ENDROOT
BRANCH   1   2
ATOM      2  N   GLY A   1      12.736   6.578  24.965  0.00  0.00    -0.328 NA
ATOM      3  H1  GLY A   1      12.560   7.584  25.002  0.00  0.00    +0.118 HD
ATOM      4  H2  GLY A   1      12.337   6.197  25.824  0.00  0.00    +0.118 HD
ENDBRANCH   1   2
BRANCH   1   5
ATOM      5  C   GLY A   1      12.794   4.802  23.263  0.00  0.00    +0.170 C 
BRANCH   5   6
ATOM      6  O   GLY A   1      14.181   5.117  23.185  0.00  0.00    -0.394 OA
ATOM      7  H   GLY A   1      14.321   5.387  22.254  0.00  0.00    +0.209 HD
ENDBRANCH   5   6
ENDBRANCH   1   5
TORSDOF 3
ENDMDL
MODEL 3
REMARK VINA RESULT:      -2.8      2.129      2.305
REMARK  Name = 
REMARK  3 active torsions:
REMARK  status: ('A' for Active; 'I' for Inactive)
REMARK    1  A    between atoms: N_1  and  CA_2
REMARK    2  A    between atoms: CA_2  and  C_3
REMARK    3  A    between atoms: C_3  and  O_4
REMARK                            x       y       z     vdW  Elec       q    Type
REMARK                         _______ _______ _______ _____ _____    ______ ____
ROOT
ATOM      1  CA  GLY A   1      12.006   5.250  23.447  0.00  0.00    +0.105 C 
ENDROOT
BRANCH   1   2
ATOM      2  N   GLY A   1      11.318   3.995  23.114  0.00  0.00    -0.328 NA
ATOM      3  H1  GLY A   1      11.814   3.531  22.351  0.00  0.00    +0.118 HD
ATOM      4  H2  GLY A   1      11.385   3.362  23.912  0.00  0.00    +0.118 HD
ENDBRANCH   1   2
BRANCH   1   5
ATOM      5  C   GLY A   1      13.176   5.481  22.487  0.00  0.00    +0.170 C 
BRANCH   5   6
ATOM      6  O   GLY A   1      14.395   5.096  23.115  0.00  0.00    -0.394 OA
ATOM      7  H   GLY A   1      14.117   4.636  23.934  0.00  0.00    +0.209 HD
ENDBRANCH   5   6
ENDBRANCH   1   5
TORSDOF 3
ENDMDL
MODEL 4
REMARK VINA RESULT:      -2.6     11.963     11.963
REMARK  Name = 
REMARK  3 active torsions:
REMARK  status: ('A' for Active; 'I' for Inactive)
REMARK    1  A    between atoms: N_1  and  CA_2
REMARK    2  A    between atoms: CA_2  and  C_3
REMARK    3  A    between atoms: C_3  and  O_4
REMARK                            x       y       z     vdW  Elec       q    Type
REMARK                         _______ _______ _______ _____ _____    ______ ____
ROOT
ATOM      1  CA  GLY A   1       8.924  -5.227  25.302  0.00  0.00    +0.105 C 
ENDROOT
BRANCH   1   2
ATOM      2  N   GLY A   1      10.365  -5.488  25.412  0.00  0.00    -0.328 NA
ATOM      3  H1  GLY A   1      10.791  -4.778  26.011  0.00  0.00    +0.118 HD
ATOM      4  H2  GLY A   1      10.502  -6.375  25.897  0.00  0.00    +0.118 HD
ENDBRANCH   1   2
BRANCH   1   5
ATOM      5  C   GLY A   1       8.370  -4.743  26.646  0.00  0.00    +0.170 C 
BRANCH   5   6
ATOM      6  O   GLY A   1       7.966  -5.863  27.428  0.00  0.00    -0.394 OA
ATOM      7  H   GLY A   1       7.049  -6.050  27.137  0.00  0.00    +0.209 HD
ENDBRANCH   5   6
ENDBRANCH   1   5
TORSDOF 3
ENDMDL
MODEL 5
REMARK VINA RESULT:      -2.6     12.055     12.100
REMARK  Name = 
REMARK  3 active torsions:
REMARK  status: ('A' for Active; 'I' for Inactive)
REMARK    1  A    between atoms: N_1  and  CA_2
REMARK    2  A    between atoms: CA_2  and  C_3
REMARK    3  A    between atoms: C_3  and  O_4
REMARK                            x       y       z     vdW  Elec       q    Type
REMARK                         _______ _______ _______ _____ _____    ______ ____
ROOT
ATOM      1  CA  GLY A   1       8.539  -4.706  26.602  0.00  0.00    +0.105 C 
ENDROOT
BRANCH   1   2
ATOM      2  N   GLY A   1       7.891  -5.776  27.373  0.00  0.00    -0.328 NA
ATOM      3  H1  GLY A   1       7.743  -5.457  28.332  0.00  0.00    +0.118 HD
ATOM      4  H2  GLY A   1       6.959  -5.938  26.990  0.00  0.00    +0.118 HD
ENDBRANCH   1   2
BRANCH   1   5
ATOM      5  C   GLY A   1       9.090  -5.262  25.286  0.00  0.00    +0.170 C 
BRANCH   5   6
ATOM      6  O   GLY A   1      10.479  -5.545  25.429  0.00  0.00    -0.394 OA
ATOM      7  H   GLY A   1      10.644  -6.289  24.813  0.00  0.00    +0.209 HD
ENDBRANCH   5   6
ENDBRANCH   1   5
TORSDOF 3
ENDMDL
MODEL 6
REMARK VINA RESULT:      -2.6      6.422      6.569
REMARK  Name = 
REMARK  3 active torsions:
REMARK  status: ('A' for Active; 'I' for Inactive)
REMARK    1  A    between atoms: N_1  and  CA_2
REMARK    2  A    between atoms: CA_2  and  C_3
REMARK    3  A    between atoms: C_3  and  O_4
REMARK                            x       y       z     vdW  Elec       q    Type
REMARK                         _______ _______ _______ _____ _____    ______ ____
ROOT
ATOM      1  CA  GLY A   1       9.373  -0.194  21.400  0.00  0.00    +0.105 C 
ENDROOT
BRANCH   1   2
ATOM      2  N   GLY A   1      10.120  -1.446  21.579  0.00  0.00    -0.328 NA
ATOM      3  H1  GLY A   1      10.979  -1.253  22.099  0.00  0.00    +0.118 HD
ATOM      4  H2  GLY A   1       9.574  -2.072  22.172  0.00  0.00    +0.118 HD
ENDBRANCH   1   2
BRANCH   1   5
ATOM      5  C   GLY A   1      10.015   0.928  22.221  0.00  0.00    +0.170 C 
BRANCH   5   6
ATOM      6  O   GLY A   1       9.959   2.149  21.491  0.00  0.00    -0.394 OA
ATOM      7  H   GLY A   1       9.541   2.787  22.106  0.00  0.00    +0.209 HD
ENDBRANCH   5   6
ENDBRANCH   1   5
TORSDOF 3
ENDMDL
MODEL 7
REMARK VINA RESULT:      -2.5      6.847      6.949
REMARK  Name = 
REMARK  3 active torsions:
REMARK  status: ('A' for Active; 'I' for Inactive)
REMARK    1  A    between atoms: N_1  and  CA_2
REMARK    2  A    between atoms: CA_2  and  C_3
REMARK    3  A    between atoms: C_3  and  O_4
REMARK                            x       y       z     vdW  Elec       q    Type
REMARK                         _______ _______ _______ _____ _____    ______ ____
ROOT
ATOM      1  CA  GLY A   1       9.180   0.710  21.479  0.00  0.00    +0.105 C 
ENDROOT
BRANCH   1   2
ATOM      2  N   GLY A   1       9.875   2.000  21.582  0.00  0.00    -0.328 NA
ATOM      3  H1  GLY A   1       9.398   2.585  22.271  0.00  0.00    +0.118 HD
ATOM      4  H2  GLY A   1      10.811   1.839  21.958  0.00  0.00    +0.118 HD
ENDBRANCH   1   2
BRANCH   1   5
ATOM      5  C   GLY A   1       9.959  -0.372  22.232  0.00  0.00    +0.170 C 
BRANCH   5   6
ATOM      6  O   GLY A   1      10.136  -1.508  21.391  0.00  0.00    -0.394 OA
ATOM      7  H   GLY A   1       9.752  -1.241  20.530  0.00  0.00    +0.209 HD
ENDBRANCH   5   6
ENDBRANCH   1   5
TORSDOF 3
ENDMDL
MODEL 8
REMARK VINA RESULT:      -2.3      5.212      5.359
REMARK  Name = 
REMARK  3 active torsions:
REMARK  status: ('A' for Active; 'I' for Inactive)
REMARK    1  A    between atoms: N_1  and  CA_2
REMARK    2  A    between atoms: CA_2  and  C_3
REMARK    3  A    between atoms: C_3  and  O_4
REMARK                            x       y       z     vdW  Elec       q    Type
REMARK                         _______ _______ _______ _____ _____    ______ ____
ROOT
ATOM      1  CA  GLY A   1      10.574   1.787  23.959  0.00  0.00    +0.105 C 
ENDROOT
BRANCH   1   2
ATOM      2  N   GLY A   1      10.514   0.755  25.003  0.00  0.00    -0.328 NA
ATOM      3  H1  GLY A   1      11.065   1.058  25.808  0.00  0.00    +0.118 HD
ATOM      4  H2  GLY A   1       9.553   0.683  25.338  0.00  0.00    +0.118 HD
ENDBRANCH   1   2
BRANCH   1   5
ATOM      5  C   GLY A   1      10.011   1.242  22.644  0.00  0.00    +0.170 C 
BRANCH   5   6
ATOM      6  O   GLY A   1      10.198   2.201  21.608  0.00  0.00    -0.394 OA
ATOM      7  H   GLY A   1       9.315   2.607  21.483  0.00  0.00    +0.209 HD
ENDBRANCH   5   6
ENDBRANCH   1   5
TORSDOF 3
ENDMDL
MODEL 9
REMARK VINA RESULT:      -2.3      5.119      5.204
REMARK  Name = 
REMARK  3 active torsions:
REMARK  status: ('A' for Active; 'I' for Inactive)
REMARK    1  A    between atoms: N_1  and  CA_2
REMARK    2  A    between atoms: CA_2  and  C_3
REMARK    3  A    between atoms: C_3  and  O_4
REMARK                            x       y       z     vdW  Elec       q    Type
REMARK                         _______ _______ _______ _____ _____    ______ ____
ROOT
ATOM      1  CA  GLY A   1      10.015   1.097  22.774  0.00  0.00    +0.105 C 
ENDROOT
BRANCH   1   2
ATOM      2  N   GLY A   1      10.048   2.088  21.690  0.00  0.00    -0.328 NA
ATOM      3  H1  GLY A   1      10.520   2.931  22.019  0.00  0.00    +0.118 HD
ATOM      4  H2  GLY A   1      10.627   1.725  20.931  0.00  0.00    +0.118 HD
ENDBRANCH   1   2
BRANCH   1   5
ATOM      5  C   GLY A   1      10.593   1.699  24.058  0.00  0.00    +0.170 C 
BRANCH   5   6
ATOM      6  O   GLY A   1      10.544   0.735  25.104  0.00  0.00    -0.394 OA
ATOM      7  H   GLY A   1      11.222   0.071  24.861  0.00  0.00    +0.209 HD
ENDBRANCH   5   6
ENDBRANCH   1   5
TORSDOF 3
ENDMDL
