MODEL 1
REMARK VINA RESULT:      -6.2      0.000      0.000
REMARK  Name = 
REMARK  7 active torsions:
REMARK  status: ('A' for Active; 'I' for Inactive)
REMARK    1  A    between atoms: C_1  and  C_2
REMARK    2  A    between atoms: N_4  and  N_5
REMARK    3  A    between atoms: C_11  and  C_13
REMARK    4  A    between atoms: C_13  and  O_14
REMARK    5  A    between atoms: C_15  and  O_17
REMARK    6  A    between atoms: C_18  and  O_20
REMARK    7  A    between atoms: C_21  and  O_23
REMARK                            x       y       z     vdW  Elec       q    Type
REMARK                         _______ _______ _______ _____ _____    ______ ____
ROOT
ATOM      1  N   UNL     1       7.239  -2.318  24.380  0.00  0.00    -0.135 N 
ATOM      2  C   UNL     1       7.899  -1.136  24.550  0.00  0.00    +0.293 C 
ATOM      3  O   UNL     1       8.566  -0.777  25.515  0.00  0.00    -0.268 OA
ATOM      4  C   UNL     1       7.630  -0.285  23.291  0.00  0.00    +0.246 C 
ATOM      5  C   UNL     1       7.573   1.210  23.657  0.00  0.00    +0.205 C 
ATOM      6  C   UNL     1       8.994   1.812  23.741  0.00  0.00    +0.179 C 
ATOM      7  C   UNL     1       9.805   1.463  22.483  0.00  0.00    +0.177 C 
ATOM      8  C   UNL     1       9.782  -0.046  22.175  0.00  0.00    +0.178 C 
ATOM      9  O   UNL     1       8.439  -0.562  22.168  0.00  0.00    -0.338 OA
ATOM     10  N   UNL     1       6.349  -0.869  22.958  0.00  0.00    -0.260 N 
ATOM     11  H   UNL     1       5.764  -0.532  22.205  0.00  0.00    +0.154 HD
ATOM     12  C   UNL     1       6.192  -2.120  23.524  0.00  0.00    +0.328 C 
ATOM     13  O   UNL     1       5.233  -2.854  23.357  0.00  0.00    -0.251 OA
ENDROOT
BRANCH   1  16
ATOM     14  C   UNL     1       8.243  -5.344  26.239  0.00  0.00    +0.111 C 
ATOM     15  C   UNL     1       8.241  -4.312  25.145  0.00  0.00    +0.227 C 
ATOM     16  N   UNL     1       7.284  -3.331  25.324  0.00  0.00    -0.224 N 
ATOM     17  H   UNL     1       6.429  -3.507  25.843  0.00  0.00    +0.174 HD
ATOM     18  O   UNL     1       9.021  -4.346  24.194  0.00  0.00    -0.275 OA
ENDBRANCH   1  16
BRANCH   5  19
ATOM     19  O   UNL     1       6.798   1.922  22.667  0.00  0.00    -0.384 OA
ATOM     20  H   UNL     1       5.927   2.122  23.078  0.00  0.00    +0.210 HD
ENDBRANCH   5  19
BRANCH   6  21
ATOM     21  O   UNL     1       9.751   1.456  24.897  0.00  0.00    -0.386 OA
ATOM     22  H   UNL     1       9.208   0.962  25.548  0.00  0.00    +0.210 HD
ENDBRANCH   6  21
BRANCH   7  23
ATOM     23  O   UNL     1       9.200   2.164  21.378  0.00  0.00    -0.386 OA
ATOM     24  H   UNL     1       9.459   1.691  20.564  0.00  0.00    +0.210 HD
ENDBRANCH   7  23
BRANCH   8  25
ATOM     25  C   UNL     1      10.741  -0.886  23.034  0.00  0.00    +0.190 C 
BRANCH  25  26
ATOM     26  O   UNL     1      10.569  -2.269  22.723  0.00  0.00    -0.392 OA
ATOM     27  H   UNL     1       9.889  -2.334  22.019  0.00  0.00    +0.210 HD
ENDBRANCH  25  26
ENDBRANCH   8  25
TORSDOF 6
ENDMDL
MODEL 2
REMARK VINA RESULT:      -6.2      1.701      3.282
REMARK  Name = 
REMARK  7 active torsions:
REMARK  status: ('A' for Active; 'I' for Inactive)
REMARK    1  A    between atoms: C_1  and  C_2
REMARK    2  A    between atoms: N_4  and  N_5
REMARK    3  A    between atoms: C_11  and  C_13
REMARK    4  A    between atoms: C_13  and  O_14
REMARK    5  A    between atoms: C_15  and  O_17
REMARK    6  A    between atoms: C_18  and  O_20
REMARK    7  A    between atoms: C_21  and  O_23
REMARK                            x       y       z     vdW  Elec       q    Type
REMARK                         _______ _______ _______ _____ _____    ______ ____
ROOT
ATOM      1  N   UNL     1       8.564  -1.490  23.639  0.00  0.00    -0.135 N 
ATOM      2  C   UNL     1       8.026  -0.303  23.233  0.00  0.00    +0.293 C 
ATOM      3  O   UNL     1       6.846  -0.044  23.022  0.00  0.00    -0.268 OA
ATOM      4  C   UNL     1       9.198   0.684  23.052  0.00  0.00    +0.246 C 
ATOM      5  C   UNL     1       8.898   1.666  21.904  0.00  0.00    +0.205 C 
ATOM      6  C   UNL     1       8.012   2.834  22.395  0.00  0.00    +0.179 C 
ATOM      7  C   UNL     1       8.596   3.457  23.672  0.00  0.00    +0.177 C 
ATOM      8  C   UNL     1       8.895   2.401  24.752  0.00  0.00    +0.178 C 
ATOM      9  O   UNL     1       9.672   1.311  24.224  0.00  0.00    -0.338 OA
ATOM     10  N   UNL     1      10.210  -0.303  22.744  0.00  0.00    -0.260 N 
ATOM     11  H   UNL     1      11.154  -0.066  22.473  0.00  0.00    +0.154 HD
ATOM     12  C   UNL     1       9.858  -1.559  23.203  0.00  0.00    +0.328 C 
ATOM     13  O   UNL     1      10.554  -2.558  23.128  0.00  0.00    -0.251 OA
ENDROOT
BRANCH   1  16
ATOM     14  C   UNL     1       6.595  -4.039  25.441  0.00  0.00    +0.111 C 
ATOM     15  C   UNL     1       7.482  -2.840  25.242  0.00  0.00    +0.227 C 
ATOM     16  N   UNL     1       7.782  -2.600  23.914  0.00  0.00    -0.224 N 
ATOM     17  H   UNL     1       7.792  -3.345  23.225  0.00  0.00    +0.174 HD
ATOM     18  O   UNL     1       7.890  -2.150  26.174  0.00  0.00    -0.275 OA
ENDBRANCH   1  16
BRANCH   5  19
ATOM     19  O   UNL     1      10.137   2.183  21.372  0.00  0.00    -0.384 OA
ATOM     20  H   UNL     1      10.668   1.408  21.081  0.00  0.00    +0.210 HD
ENDBRANCH   5  19
BRANCH   6  21
ATOM     21  O   UNL     1       6.637   2.518  22.617  0.00  0.00    -0.386 OA
ATOM     22  H   UNL     1       6.042   3.161  22.174  0.00  0.00    +0.210 HD
ENDBRANCH   6  21
BRANCH   7  23
ATOM     23  O   UNL     1       9.835   4.098  23.304  0.00  0.00    -0.386 OA
ATOM     24  H   UNL     1      10.396   3.415  22.889  0.00  0.00    +0.210 HD
ENDBRANCH   7  23
BRANCH   8  25
ATOM     25  C   UNL     1       7.662   1.930  25.540  0.00  0.00    +0.190 C 
BRANCH  25  26
ATOM     26  O   UNL     1       8.051   0.922  26.473  0.00  0.00    -0.392 OA
ATOM     27  H   UNL     1       8.994   0.708  26.306  0.00  0.00    +0.210 HD
ENDBRANCH  25  26
ENDBRANCH   8  25
TORSDOF 6
ENDMDL
MODEL 3
REMARK VINA RESULT:      -6.0      1.924      5.338
REMARK  Name = 
REMARK  7 active torsions:
REMARK  status: ('A' for Active; 'I' for Inactive)
REMARK    1  A    between atoms: C_1  and  C_2
REMARK    2  A    between atoms: N_4  and  N_5
REMARK    3  A    between atoms: C_11  and  C_13
REMARK    4  A    between atoms: C_13  and  O_14
REMARK    5  A    between atoms: C_15  and  O_17
REMARK    6  A    between atoms: C_18  and  O_20
REMARK    7  A    between atoms: C_21  and  O_23
REMARK                            x       y       z     vdW  Elec       q    Type
REMARK                         _______ _______ _______ _____ _____    ______ ____
ROOT
ATOM      1  N   UNL     1       8.239  -1.047  23.506  0.00  0.00    -0.135 N 
ATOM      2  C   UNL     1       8.218  -2.407  23.390  0.00  0.00    +0.293 C 
ATOM      3  O   UNL     1       9.169  -3.164  23.223  0.00  0.00    -0.268 OA
ATOM      4  C   UNL     1       6.741  -2.843  23.477  0.00  0.00    +0.246 C 
ATOM      5  C   UNL     1       6.495  -4.082  22.596  0.00  0.00    +0.205 C 
ATOM      6  C   UNL     1       6.904  -5.376  23.337  0.00  0.00    +0.179 C 
ATOM      7  C   UNL     1       6.277  -5.418  24.739  0.00  0.00    +0.177 C 
ATOM      8  C   UNL     1       6.545  -4.128  25.537  0.00  0.00    +0.178 C 
ATOM      9  O   UNL     1       6.201  -2.956  24.776  0.00  0.00    -0.338 OA
ATOM     10  N   UNL     1       6.168  -1.620  22.961  0.00  0.00    -0.260 N 
ATOM     11  H   UNL     1       5.181  -1.503  22.775  0.00  0.00    +0.154 HD
ATOM     12  C   UNL     1       7.034  -0.550  23.094  0.00  0.00    +0.328 C 
ATOM     13  O   UNL     1       6.781   0.604  22.793  0.00  0.00    -0.251 OA
ENDROOT
BRANCH   1  16
ATOM     14  C   UNL     1      11.249   0.792  24.594  0.00  0.00    +0.111 C 
ATOM     15  C   UNL     1       9.946   0.047  24.711  0.00  0.00    +0.227 C 
ATOM     16  N   UNL     1       9.420  -0.323  23.488  0.00  0.00    -0.224 N 
ATOM     17  H   UNL     1       9.620   0.199  22.639  0.00  0.00    +0.174 HD
ATOM     18  O   UNL     1       9.416  -0.204  25.791  0.00  0.00    -0.275 OA
ENDBRANCH   1  16
BRANCH   5  19
ATOM     19  O   UNL     1       5.099  -4.149  22.232  0.00  0.00    -0.384 OA
ATOM     20  H   UNL     1       5.048  -3.965  21.266  0.00  0.00    +0.210 HD
ENDBRANCH   5  19
BRANCH   6  21
ATOM     21  O   UNL     1       8.308  -5.610  23.448  0.00  0.00    -0.386 OA
ATOM     22  H   UNL     1       8.570  -6.452  23.018  0.00  0.00    +0.210 HD
ENDBRANCH   6  21
BRANCH   7  23
ATOM     23  O   UNL     1       4.852  -5.559  24.564  0.00  0.00    -0.386 OA
ATOM     24  H   UNL     1       4.692  -5.663  23.607  0.00  0.00    +0.210 HD
ENDBRANCH   7  23
BRANCH   8  25
ATOM     25  C   UNL     1       7.947  -4.045  26.161  0.00  0.00    +0.190 C 
BRANCH  25  26
ATOM     26  O   UNL     1       8.387  -5.356  26.518  0.00  0.00    -0.392 OA
ATOM     27  H   UNL     1       7.589  -5.906  26.672  0.00  0.00    +0.210 HD
ENDBRANCH  25  26
ENDBRANCH   8  25
TORSDOF 6
ENDMDL
MODEL 4
REMARK VINA RESULT:      -6.0      1.682      3.538
REMARK  Name = 
REMARK  7 active torsions:
REMARK  status: ('A' for Active; 'I' for Inactive)
REMARK    1  A    between atoms: C_1  and  C_2
REMARK    2  A    between atoms: N_4  and  N_5
REMARK    3  A    between atoms: C_11  and  C_13
REMARK    4  A    between atoms: C_13  and  O_14
REMARK    5  A    between atoms: C_15  and  O_17
REMARK    6  A    between atoms: C_18  and  O_20
REMARK    7  A    between atoms: C_21  and  O_23
REMARK                            x       y       z     vdW  Elec       q    Type
REMARK                         _______ _______ _______ _____ _____    ______ ____
ROOT
ATOM      1  N   UNL     1       8.345  -2.503  23.214  0.00  0.00    -0.135 N 
ATOM      2  C   UNL     1       8.835  -1.350  22.672  0.00  0.00    +0.293 C 
ATOM      3  O   UNL     1       8.960  -1.070  21.484  0.00  0.00    -0.268 OA
ATOM      4  C   UNL     1       9.247  -0.440  23.847  0.00  0.00    +0.246 C 
ATOM      5  C   UNL     1      10.469   0.413  23.460  0.00  0.00    +0.205 C 
ATOM      6  C   UNL     1      10.038   1.665  22.663  0.00  0.00    +0.179 C 
ATOM      7  C   UNL     1       8.908   2.409  23.392  0.00  0.00    +0.177 C 
ATOM      8  C   UNL     1       7.744   1.474  23.768  0.00  0.00    +0.178 C 
ATOM      9  O   UNL     1       8.210   0.300  24.456  0.00  0.00    -0.338 OA
ATOM     10  N   UNL     1       9.531  -1.496  24.794  0.00  0.00    -0.260 N 
ATOM     11  H   UNL     1       9.919  -1.331  25.712  0.00  0.00    +0.154 HD
ATOM     12  C   UNL     1       8.893  -2.675  24.455  0.00  0.00    +0.328 C 
ATOM     13  O   UNL     1       8.914  -3.703  25.110  0.00  0.00    -0.251 OA
ENDROOT
BRANCH   1  16
ATOM     14  C   UNL     1       6.062  -4.770  21.405  0.00  0.00    +0.111 C 
ATOM     15  C   UNL     1       6.490  -3.643  22.305  0.00  0.00    +0.227 C 
ATOM     16  N   UNL     1       7.863  -3.540  22.432  0.00  0.00    -0.224 N 
ATOM     17  H   UNL     1       8.472  -4.345  22.319  0.00  0.00    +0.174 HD
ATOM     18  O   UNL     1       5.691  -2.893  22.862  0.00  0.00    -0.275 OA
ENDBRANCH   1  16
BRANCH   5  19
ATOM     19  O   UNL     1      11.178   0.814  24.654  0.00  0.00    -0.384 OA
ATOM     20  H   UNL     1      10.532   0.778  25.394  0.00  0.00    +0.210 HD
ENDBRANCH   5  19
BRANCH   6  21
ATOM     21  O   UNL     1       9.647   1.434  21.310  0.00  0.00    -0.386 OA
ATOM     22  H   UNL     1      10.370   1.649  20.682  0.00  0.00    +0.210 HD
ENDBRANCH   6  21
BRANCH   7  23
ATOM     23  O   UNL     1       9.469   2.951  24.605  0.00  0.00    -0.386 OA
ATOM     24  H   UNL     1       9.574   3.911  24.465  0.00  0.00    +0.210 HD
ENDBRANCH   7  23
BRANCH   8  25
ATOM     25  C   UNL     1       6.788   1.149  22.608  0.00  0.00    +0.190 C 
BRANCH  25  26
ATOM     26  O   UNL     1       6.784   2.232  21.678  0.00  0.00    -0.392 OA
ATOM     27  H   UNL     1       7.481   2.865  21.955  0.00  0.00    +0.210 HD
ENDBRANCH  25  26
ENDBRANCH   8  25
TORSDOF 6
ENDMDL
MODEL 5
REMARK VINA RESULT:      -6.0      2.192      5.229
REMARK  Name = 
REMARK  7 active torsions:
REMARK  status: ('A' for Active; 'I' for Inactive)
REMARK    1  A    between atoms: C_1  and  C_2
REMARK    2  A    between atoms: N_4  and  N_5
REMARK    3  A    between atoms: C_11  and  C_13
REMARK    4  A    between atoms: C_13  and  O_14
REMARK    5  A    between atoms: C_15  and  O_17
REMARK    6  A    between atoms: C_18  and  O_20
REMARK    7  A    between atoms: C_21  and  O_23
REMARK                            x       y       z     vdW  Elec       q    Type
REMARK                         _______ _______ _______ _____ _____    ______ ____
ROOT
ATOM      1  N   UNL     1       6.937   2.039  22.964  0.00  0.00    -0.135 N 
ATOM      2  C   UNL     1       7.726   1.075  22.407  0.00  0.00    +0.293 C 
ATOM      3  O   UNL     1       8.386   1.145  21.375  0.00  0.00    -0.268 OA
ATOM      4  C   UNL     1       7.621  -0.171  23.309  0.00  0.00    +0.246 C 
ATOM      5  C   UNL     1       7.727  -1.455  22.465  0.00  0.00    +0.205 C 
ATOM      6  C   UNL     1       9.205  -1.807  22.180  0.00  0.00    +0.179 C 
ATOM      7  C   UNL     1      10.025  -1.792  23.479  0.00  0.00    +0.177 C 
ATOM      8  C   UNL     1       9.834  -0.487  24.274  0.00  0.00    +0.178 C 
ATOM      9  O   UNL     1       8.441  -0.180  24.458  0.00  0.00    -0.338 OA
ATOM     10  N   UNL     1       6.295   0.098  23.822  0.00  0.00    -0.260 N 
ATOM     11  H   UNL     1       5.790  -0.541  24.421  0.00  0.00    +0.154 HD
ATOM     12  C   UNL     1       5.962   1.435  23.708  0.00  0.00    +0.328 C 
ATOM     13  O   UNL     1       4.930   1.942  24.114  0.00  0.00    -0.251 OA
ENDROOT
BRANCH   1  16
ATOM     14  C   UNL     1       7.442   5.627  22.263  0.00  0.00    +0.111 C 
ATOM     15  C   UNL     1       7.609   4.300  22.951  0.00  0.00    +0.227 C 
ATOM     16  N   UNL     1       6.816   3.304  22.413  0.00  0.00    -0.224 N 
ATOM     17  H   UNL     1       5.940   3.513  21.944  0.00  0.00    +0.174 HD
ATOM     18  O   UNL     1       8.381   4.130  23.893  0.00  0.00    -0.275 OA
ENDBRANCH   1  16
BRANCH   5  19
ATOM     19  O   UNL     1       7.091  -2.549  23.162  0.00  0.00    -0.384 OA
ATOM     20  H   UNL     1       7.017  -3.291  22.520  0.00  0.00    +0.210 HD
ENDBRANCH   5  19
BRANCH   6  21
ATOM     21  O   UNL     1       9.860  -0.993  21.206  0.00  0.00    -0.386 OA
ATOM     22  H   UNL     1      10.731  -1.364  20.951  0.00  0.00    +0.210 HD
ENDBRANCH   6  21
BRANCH   7  23
ATOM     23  O   UNL     1       9.561  -2.892  24.288  0.00  0.00    -0.386 OA
ATOM     24  H   UNL     1      10.183  -3.631  24.148  0.00  0.00    +0.210 HD
ENDBRANCH   7  23
BRANCH   8  25
ATOM     25  C   UNL     1      10.645   0.707  23.743  0.00  0.00    +0.190 C 
BRANCH  25  26
ATOM     26  O   UNL     1      10.278   1.886  24.460  0.00  0.00    -0.392 OA
ATOM     27  H   UNL     1      10.665   2.654  23.987  0.00  0.00    +0.210 HD
ENDBRANCH  25  26
ENDBRANCH   8  25
TORSDOF 6
ENDMDL
MODEL 6
REMARK VINA RESULT:      -5.9      1.686      1.784
REMARK  Name = 
REMARK  7 active torsions:
REMARK  status: ('A' for Active; 'I' for Inactive)
REMARK    1  A    between atoms: C_1  and  C_2
REMARK    2  A    between atoms: N_4  and  N_5
REMARK    3  A    between atoms: C_11  and  C_13
REMARK    4  A    between atoms: C_13  and  O_14
REMARK    5  A    between atoms: C_15  and  O_17
REMARK    6  A    between atoms: C_18  and  O_20
REMARK    7  A    between atoms: C_21  and  O_23
REMARK                            x       y       z     vdW  Elec       q    Type
REMARK                         _______ _______ _______ _____ _____    ______ ____
ROOT
ATOM      1  N   UNL     1       6.906  -0.987  25.460  0.00  0.00    -0.135 N 
ATOM      2  C   UNL     1       8.115  -0.446  25.127  0.00  0.00    +0.293 C 
ATOM      3  O   UNL     1       9.217  -0.722  25.591  0.00  0.00    -0.268 OA
ATOM      4  C   UNL     1       7.847   0.629  24.054  0.00  0.00    +0.246 C 
ATOM      5  C   UNL     1       8.851   1.788  24.196  0.00  0.00    +0.205 C 
ATOM      6  C   UNL     1      10.188   1.449  23.499  0.00  0.00    +0.179 C 
ATOM      7  C   UNL     1       9.940   0.950  22.066  0.00  0.00    +0.177 C 
ATOM      8  C   UNL     1       8.902  -0.185  22.016  0.00  0.00    +0.178 C 
ATOM      9  O   UNL     1       7.702   0.164  22.729  0.00  0.00    -0.338 OA
ATOM     10  N   UNL     1       6.498   0.952  24.465  0.00  0.00    -0.260 N 
ATOM     11  H   UNL     1       5.955   1.698  24.052  0.00  0.00    +0.154 HD
ATOM     12  C   UNL     1       5.926  -0.069  25.200  0.00  0.00    +0.328 C 
ATOM     13  O   UNL     1       4.781  -0.081  25.620  0.00  0.00    -0.251 OA
ENDROOT
BRANCH   1  16
ATOM     14  C   UNL     1       6.595  -4.333  26.985  0.00  0.00    +0.111 C 
ATOM     15  C   UNL     1       6.680  -3.293  25.902  0.00  0.00    +0.227 C 
ATOM     16  N   UNL     1       6.784  -2.005  26.392  0.00  0.00    -0.224 N 
ATOM     17  H   UNL     1       6.411  -1.746  27.300  0.00  0.00    +0.174 HD
ATOM     18  O   UNL     1       6.663  -3.573  24.705  0.00  0.00    -0.275 OA
ENDBRANCH   1  16
BRANCH   5  19
ATOM     19  O   UNL     1       8.290   2.988  23.618  0.00  0.00    -0.384 OA
ATOM     20  H   UNL     1       8.315   2.873  22.642  0.00  0.00    +0.210 HD
ENDBRANCH   5  19
BRANCH   6  21
ATOM     21  O   UNL     1      11.022   0.512  24.180  0.00  0.00    -0.386 OA
ATOM     22  H   UNL     1      11.154   0.761  25.120  0.00  0.00    +0.210 HD
ENDBRANCH   6  21
BRANCH   7  23
ATOM     23  O   UNL     1       9.433   2.067  21.308  0.00  0.00    -0.386 OA
ATOM     24  H   UNL     1      10.156   2.367  20.725  0.00  0.00    +0.210 HD
ENDBRANCH   7  23
BRANCH   8  25
ATOM     25  C   UNL     1       9.450  -1.568  22.407  0.00  0.00    +0.190 C 
BRANCH  25  26
ATOM     26  O   UNL     1      10.803  -1.683  21.970  0.00  0.00    -0.392 OA
ATOM     27  H   UNL     1      11.151  -0.776  21.832  0.00  0.00    +0.210 HD
ENDBRANCH  25  26
ENDBRANCH   8  25
TORSDOF 6
ENDMDL
MODEL 7
REMARK VINA RESULT:      -5.9      1.881      5.537
REMARK  Name = 
REMARK  7 active torsions:
REMARK  status: ('A' for Active; 'I' for Inactive)
REMARK    1  A    between atoms: C_1  and  C_2
REMARK    2  A    between atoms: N_4  and  N_5
REMARK    3  A    between atoms: C_11  and  C_13
REMARK    4  A    between atoms: C_13  and  O_14
REMARK    5  A    between atoms: C_15  and  O_17
REMARK    6  A    between atoms: C_18  and  O_20
REMARK    7  A    between atoms: C_21  and  O_23
REMARK                            x       y       z     vdW  Elec       q    Type
REMARK                         _______ _______ _______ _____ _____    ______ ____
ROOT
ATOM      1  N   UNL     1       8.435  -0.422  24.126  0.00  0.00    -0.135 N 
ATOM      2  C   UNL     1       7.832  -1.582  24.516  0.00  0.00    +0.293 C 
ATOM      3  O   UNL     1       6.841  -1.714  25.228  0.00  0.00    -0.268 OA
ATOM      4  C   UNL     1       8.652  -2.741  23.913  0.00  0.00    +0.246 C 
ATOM      5  C   UNL     1       8.632  -3.958  24.855  0.00  0.00    +0.205 C 
ATOM      6  C   UNL     1       7.343  -4.789  24.657  0.00  0.00    +0.179 C 
ATOM      7  C   UNL     1       7.119  -5.093  23.167  0.00  0.00    +0.177 C 
ATOM      8  C   UNL     1       7.187  -3.825  22.297  0.00  0.00    +0.178 C 
ATOM      9  O   UNL     1       8.378  -3.063  22.566  0.00  0.00    -0.338 OA
ATOM     10  N   UNL     1       9.920  -2.047  23.860  0.00  0.00    -0.260 N 
ATOM     11  H   UNL     1      10.785  -2.490  23.582  0.00  0.00    +0.154 HD
ATOM     12  C   UNL     1       9.755  -0.674  23.874  0.00  0.00    +0.328 C 
ATOM     13  O   UNL     1      10.653   0.145  23.781  0.00  0.00    -0.251 OA
ENDROOT
BRANCH   1  16
ATOM     14  C   UNL     1       6.723   2.845  23.995  0.00  0.00    +0.111 C 
ATOM     15  C   UNL     1       7.258   1.527  23.507  0.00  0.00    +0.227 C 
ATOM     16  N   UNL     1       7.942   0.823  24.481  0.00  0.00    -0.224 N 
ATOM     17  H   UNL     1       8.404   1.292  25.254  0.00  0.00    +0.174 HD
ATOM     18  O   UNL     1       7.095   1.124  22.357  0.00  0.00    -0.275 OA
ENDBRANCH   1  16
BRANCH   5  19
ATOM     19  O   UNL     1       9.789  -4.786  24.604  0.00  0.00    -0.384 OA
ATOM     20  H   UNL     1      10.298  -4.351  23.882  0.00  0.00    +0.210 HD
ENDBRANCH   5  19
BRANCH   6  21
ATOM     21  O   UNL     1       6.151  -4.223  25.201  0.00  0.00    -0.386 OA
ATOM     22  H   UNL     1       6.039  -4.455  26.148  0.00  0.00    +0.210 HD
ENDBRANCH   6  21
BRANCH   7  23
ATOM     23  O   UNL     1       8.171  -5.989  22.753  0.00  0.00    -0.386 OA
ATOM     24  H   UNL     1       8.778  -5.473  22.189  0.00  0.00    +0.210 HD
ENDBRANCH   7  23
BRANCH   8  25
ATOM     25  C   UNL     1       5.911  -2.968  22.318  0.00  0.00    +0.190 C 
BRANCH  25  26
ATOM     26  O   UNL     1       4.774  -3.814  22.486  0.00  0.00    -0.392 OA
ATOM     27  H   UNL     1       4.780  -4.470  21.756  0.00  0.00    +0.210 HD
ENDBRANCH  25  26
ENDBRANCH   8  25
TORSDOF 6
ENDMDL
MODEL 8
REMARK VINA RESULT:      -5.9      2.181      5.660
REMARK  Name = 
REMARK  7 active torsions:
REMARK  status: ('A' for Active; 'I' for Inactive)
REMARK    1  A    between atoms: C_1  and  C_2
REMARK    2  A    between atoms: N_4  and  N_5
REMARK    3  A    between atoms: C_11  and  C_13
REMARK    4  A    between atoms: C_13  and  O_14
REMARK    5  A    between atoms: C_15  and  O_17
REMARK    6  A    between atoms: C_18  and  O_20
REMARK    7  A    between atoms: C_21  and  O_23
REMARK                            x       y       z     vdW  Elec       q    Type
REMARK                         _______ _______ _______ _____ _____    ______ ____
ROOT
ATOM      1  N   UNL     1       7.950  -0.954  24.690  0.00  0.00    -0.135 N 
ATOM      2  C   UNL     1       7.481  -2.234  24.625  0.00  0.00    +0.293 C 
ATOM      3  O   UNL     1       7.200  -2.884  23.623  0.00  0.00    -0.268 OA
ATOM      4  C   UNL     1       7.333  -2.734  26.077  0.00  0.00    +0.246 C 
ATOM      5  C   UNL     1       6.142  -3.704  26.191  0.00  0.00    +0.205 C 
ATOM      6  C   UNL     1       6.550  -5.131  25.759  0.00  0.00    +0.179 C 
ATOM      7  C   UNL     1       7.837  -5.566  26.476  0.00  0.00    +0.177 C 
ATOM      8  C   UNL     1       8.963  -4.524  26.337  0.00  0.00    +0.178 C 
ATOM      9  O   UNL     1       8.510  -3.207  26.696  0.00  0.00    -0.338 OA
ATOM     10  N   UNL     1       7.110  -1.440  26.683  0.00  0.00    -0.260 N 
ATOM     11  H   UNL     1       6.883  -1.315  27.661  0.00  0.00    +0.154 HD
ATOM     12  C   UNL     1       7.587  -0.412  25.891  0.00  0.00    +0.328 C 
ATOM     13  O   UNL     1       7.579   0.771  26.189  0.00  0.00    -0.251 OA
ENDROOT
BRANCH   1  16
ATOM     14  C   UNL     1       9.737   0.755  21.950  0.00  0.00    +0.111 C 
ATOM     15  C   UNL     1       9.546  -0.031  23.218  0.00  0.00    +0.227 C 
ATOM     16  N   UNL     1       8.217  -0.207  23.554  0.00  0.00    -0.224 N 
ATOM     17  H   UNL     1       7.500   0.452  23.266  0.00  0.00    +0.174 HD
ATOM     18  O   UNL     1      10.485  -0.471  23.878  0.00  0.00    -0.275 OA
ENDBRANCH   1  16
BRANCH   5  19
ATOM     19  O   UNL     1       5.662  -3.724  27.553  0.00  0.00    -0.384 OA
ATOM     20  H   UNL     1       5.093  -4.522  27.642  0.00  0.00    +0.210 HD
ENDBRANCH   5  19
BRANCH   6  21
ATOM     21  O   UNL     1       6.708  -5.332  24.355  0.00  0.00    -0.386 OA
ATOM     22  H   UNL     1       5.850  -5.274  23.882  0.00  0.00    +0.210 HD
ENDBRANCH   6  21
BRANCH   7  23
ATOM     23  O   UNL     1       7.518  -5.710  27.875  0.00  0.00    -0.386 OA
ATOM     24  H   UNL     1       8.352  -5.913  28.339  0.00  0.00    +0.210 HD
ENDBRANCH   7  23
BRANCH   8  25
ATOM     25  C   UNL     1       9.698  -4.557  24.987  0.00  0.00    +0.190 C 
BRANCH  25  26
ATOM     26  O   UNL     1       9.693  -5.890  24.476  0.00  0.00    -0.392 OA
ATOM     27  H   UNL     1      10.275  -6.432  25.052  0.00  0.00    +0.210 HD
ENDBRANCH  25  26
ENDBRANCH   8  25
TORSDOF 6
ENDMDL
MODEL 9
REMARK VINA RESULT:      -5.9      3.170      6.941
REMARK  Name = 
REMARK  7 active torsions:
REMARK  status: ('A' for Active; 'I' for Inactive)
REMARK    1  A    between atoms: C_1  and  C_2
REMARK    2  A    between atoms: N_4  and  N_5
REMARK    3  A    between atoms: C_11  and  C_13
REMARK    4  A    between atoms: C_13  and  O_14
REMARK    5  A    between atoms: C_15  and  O_17
REMARK    6  A    between atoms: C_18  and  O_20
REMARK    7  A    between atoms: C_21  and  O_23
REMARK                            x       y       z     vdW  Elec       q    Type
REMARK                         _______ _______ _______ _____ _____    ______ ____
ROOT
ATOM      1  N   UNL     1       8.301  -3.878  24.909  0.00  0.00    -0.135 N 
ATOM      2  C   UNL     1       7.286  -3.873  25.821  0.00  0.00    +0.293 C 
ATOM      3  O   UNL     1       6.579  -2.927  26.156  0.00  0.00    -0.268 OA
ATOM      4  C   UNL     1       7.193  -5.299  26.401  0.00  0.00    +0.246 C 
ATOM      5  C   UNL     1       6.753  -5.250  27.876  0.00  0.00    +0.205 C 
ATOM      6  C   UNL     1       5.217  -5.121  27.990  0.00  0.00    +0.179 C 
ATOM      7  C   UNL     1       4.519  -6.179  27.119  0.00  0.00    +0.177 C 
ATOM      8  C   UNL     1       5.042  -6.178  25.671  0.00  0.00    +0.178 C 
ATOM      9  O   UNL     1       6.479  -6.240  25.628  0.00  0.00    -0.338 OA
ATOM     10  N   UNL     1       8.580  -5.657  26.202  0.00  0.00    -0.260 N 
ATOM     11  H   UNL     1       8.982  -6.526  26.528  0.00  0.00    +0.154 HD
ATOM     12  C   UNL     1       9.179  -4.874  25.233  0.00  0.00    +0.328 C 
ATOM     13  O   UNL     1      10.323  -5.002  24.830  0.00  0.00    -0.251 OA
ENDROOT
BRANCH   1  16
ATOM     14  C   UNL     1       8.612  -1.431  22.164  0.00  0.00    +0.111 C 
ATOM     15  C   UNL     1       8.231  -2.707  22.862  0.00  0.00    +0.227 C 
ATOM     16  N   UNL     1       8.645  -2.752  24.180  0.00  0.00    -0.224 N 
ATOM     17  H   UNL     1       9.455  -2.231  24.504  0.00  0.00    +0.174 HD
ATOM     18  O   UNL     1       7.609  -3.611  22.307  0.00  0.00    -0.275 OA
ENDBRANCH   1  16
BRANCH   5  19
ATOM     19  O   UNL     1       7.195  -6.447  28.554  0.00  0.00    -0.384 OA
ATOM     20  H   UNL     1       7.148  -7.179  27.898  0.00  0.00    +0.210 HD
ENDBRANCH   5  19
BRANCH   6  21
ATOM     21  O   UNL     1       4.678  -3.836  27.683  0.00  0.00    -0.386 OA
ATOM     22  H   UNL     1       5.295  -3.305  27.136  0.00  0.00    +0.210 HD
ENDBRANCH   6  21
BRANCH   7  23
ATOM     23  O   UNL     1       4.800  -7.466  27.706  0.00  0.00    -0.386 OA
ATOM     24  H   UNL     1       3.947  -7.837  28.000  0.00  0.00    +0.210 HD
ENDBRANCH   7  23
BRANCH   8  25
ATOM     25  C   UNL     1       4.465  -5.061  24.786  0.00  0.00    +0.190 C 
BRANCH  25  26
ATOM     26  O   UNL     1       3.153  -4.727  25.239  0.00  0.00    -0.392 OA
ATOM     27  H   UNL     1       2.730  -4.175  24.546  0.00  0.00    +0.210 HD
ENDBRANCH  25  26
ENDBRANCH   8  25
TORSDOF 6
ENDMDL
