MODEL 1
REMARK VINA RESULT:      -7.7      0.000      0.000
REMARK  Name = 
REMARK  8 active torsions:
REMARK  status: ('A' for Active; 'I' for Inactive)
REMARK    1  A    between atoms: C_1  and  C_2
REMARK    2  A    between atoms: C_2  and  S_3
REMARK    3  A    between atoms: S_3  and  C_6
REMARK    4  A    between atoms: C_9  and  O_10
REMARK    5  A    between atoms: O_10  and  C_11
REMARK    6  A    between atoms: C_12  and  N_13
REMARK    7  A    between atoms: C_17  and  C_19
REMARK    8  A    between atoms: C_23  and  C_25
REMARK                            x       y       z     vdW  Elec       q    Type
REMARK                         _______ _______ _______ _____ _____    ______ ____
ROOT
ATOM      1  N   UNL     1       7.322  -4.119  24.211  0.00  0.00    -0.266 N 
ATOM      2  H   UNL     1       8.270  -4.477  24.229  0.00  0.00    +0.157 HD
ATOM      3  C   UNL     1       7.140  -2.814  23.930  0.00  0.00    +0.292 A 
ATOM      4  O   UNL     1       8.271  -2.036  23.933  0.00  0.00    -0.424 OA
ATOM      5  C   UNL     1       7.826  -0.752  23.700  0.00  0.00    +0.157 A 
ATOM      6  C   UNL     1       6.467  -0.841  23.499  0.00  0.00    +0.163 A 
ATOM      7  N   UNL     1       6.041  -2.134  23.676  0.00  0.00    -0.203 NA
ENDROOT
BRANCH   1  10
ATOM      8  C   UNL     1       5.436  -6.082  26.780  0.00  0.00    +0.090 A 
ATOM      9  C   UNL     1       6.293  -5.135  26.212  0.00  0.00    +0.054 A 
ATOM     10  C   UNL     1       6.401  -5.009  24.820  0.00  0.00    +0.079 A 
ATOM     11  C   UNL     1       5.545  -5.799  24.011  0.00  0.00    +0.141 A 
ATOM     12  C   UNL     1       4.634  -6.692  24.599  0.00  0.00    +0.049 A 
ATOM     13  C   UNL     1       4.590  -6.847  25.984  0.00  0.00    +0.030 A 
BRANCH   8  14
ATOM     14  S   UNL     1       5.530  -6.387  28.528  0.00  0.00    -0.003 S 
ATOM     15  O   UNL     1       5.929  -7.768  28.700  0.00  0.00    -0.169 OA
ATOM     16  O   UNL     1       6.305  -5.304  29.108  0.00  0.00    -0.169 OA
BRANCH  14  18
ATOM     17  C   UNL     1       3.357  -4.764  28.916  0.00  0.00    +0.028 C 
ATOM     18  C   UNL     1       3.836  -6.191  29.066  0.00  0.00    +0.168 C 
ENDBRANCH  14  18
ENDBRANCH   8  14
BRANCH  11  19
ATOM     19  O   UNL     1       5.699  -5.645  22.649  0.00  0.00    -0.493 OA
ATOM     20  C   UNL     1       6.706  -6.439  22.025  0.00  0.00    +0.277 C 
ENDBRANCH  11  19
ENDBRANCH   1  10
BRANCH   5  21
ATOM     21  C   UNL     1       8.808   0.330  23.751  0.00  0.00    +0.020 A 
ATOM     22  C   UNL     1       8.459   1.659  23.427  0.00  0.00    +0.021 A 
ATOM     23  C   UNL     1       9.373   2.734  23.549  0.00  0.00    +0.001 A 
ATOM     24  C   UNL     1      10.684   2.417  23.950  0.00  0.00    +0.010 A 
ATOM     25  C   UNL     1      11.050   1.111  24.271  0.00  0.00    +0.001 A 
ATOM     26  C   UNL     1      10.117   0.079  24.182  0.00  0.00    +0.011 A 
BRANCH  23  27
ATOM     27  C   UNL     1       8.955   4.141  23.316  0.00  0.00    +0.071 A 
ATOM     28  N   UNL     1       7.802   4.326  22.623  0.00  0.00    -0.255 NA
ATOM     29  C   UNL     1       7.373   5.598  22.438  0.00  0.00    +0.111 A 
ATOM     30  C   UNL     1       8.024   6.717  22.922  0.00  0.00    +0.020 A 
ATOM     31  C   UNL     1       9.202   6.526  23.630  0.00  0.00    +0.004 A 
ATOM     32  C   UNL     1       9.672   5.228  23.826  0.00  0.00    +0.028 A 
ENDBRANCH  23  27
ENDBRANCH   5  21
TORSDOF 6
ENDMDL
MODEL 2
REMARK VINA RESULT:      -7.6      1.667      2.093
REMARK  Name = 
REMARK  8 active torsions:
REMARK  status: ('A' for Active; 'I' for Inactive)
REMARK    1  A    between atoms: C_1  and  C_2
REMARK    2  A    between atoms: C_2  and  S_3
REMARK    3  A    between atoms: S_3  and  C_6
REMARK    4  A    between atoms: C_9  and  O_10
REMARK    5  A    between atoms: O_10  and  C_11
REMARK    6  A    between atoms: C_12  and  N_13
REMARK    7  A    between atoms: C_17  and  C_19
REMARK    8  A    between atoms: C_23  and  C_25
REMARK                            x       y       z     vdW  Elec       q    Type
REMARK                         _______ _______ _______ _____ _____    ______ ____
ROOT
ATOM      1  N   UNL     1       5.600  -2.923  25.581  0.00  0.00    -0.266 N 
ATOM      2  H   UNL     1       4.870  -2.580  24.968  0.00  0.00    +0.157 HD
ATOM      3  C   UNL     1       6.783  -2.277  25.585  0.00  0.00    +0.292 A 
ATOM      4  O   UNL     1       6.970  -1.361  24.581  0.00  0.00    -0.424 OA
ATOM      5  C   UNL     1       8.257  -0.898  24.750  0.00  0.00    +0.157 A 
ATOM      6  C   UNL     1       8.744  -1.507  25.885  0.00  0.00    +0.163 A 
ATOM      7  N   UNL     1       7.823  -2.393  26.384  0.00  0.00    -0.203 NA
ENDROOT
BRANCH   1  10
ATOM      8  C   UNL     1       5.203  -5.868  27.858  0.00  0.00    +0.090 A 
ATOM      9  C   UNL     1       5.395  -4.552  27.424  0.00  0.00    +0.054 A 
ATOM     10  C   UNL     1       5.327  -4.229  26.063  0.00  0.00    +0.079 A 
ATOM     11  C   UNL     1       4.962  -5.252  25.151  0.00  0.00    +0.141 A 
ATOM     12  C   UNL     1       4.697  -6.553  25.611  0.00  0.00    +0.049 A 
ATOM     13  C   UNL     1       4.833  -6.867  26.963  0.00  0.00    +0.030 A 
BRANCH   8  14
ATOM     14  S   UNL     1       5.560  -6.276  29.549  0.00  0.00    -0.003 S 
ATOM     15  O   UNL     1       6.477  -7.396  29.534  0.00  0.00    -0.169 OA
ATOM     16  O   UNL     1       5.902  -5.036  30.224  0.00  0.00    -0.169 OA
BRANCH  14  18
ATOM     17  C   UNL     1       2.988  -5.678  30.280  0.00  0.00    +0.028 C 
ATOM     18  C   UNL     1       3.977  -6.818  30.180  0.00  0.00    +0.168 C 
ENDBRANCH  14  18
ENDBRANCH   8  14
BRANCH  11  19
ATOM     19  O   UNL     1       4.920  -4.885  23.823  0.00  0.00    -0.493 OA
ATOM     20  C   UNL     1       5.933  -5.425  22.977  0.00  0.00    +0.277 C 
ENDBRANCH  11  19
ENDBRANCH   1  10
BRANCH   5  21
ATOM     21  C   UNL     1       8.786   0.028  23.750  0.00  0.00    +0.020 A 
ATOM     22  C   UNL     1       9.153   1.349  24.089  0.00  0.00    +0.021 A 
ATOM     23  C   UNL     1       9.744   2.235  23.155  0.00  0.00    +0.001 A 
ATOM     24  C   UNL     1       9.897   1.766  21.838  0.00  0.00    +0.010 A 
ATOM     25  C   UNL     1       9.538   0.467  21.481  0.00  0.00    +0.001 A 
ATOM     26  C   UNL     1       8.998  -0.397  22.433  0.00  0.00    +0.011 A 
BRANCH  23  27
ATOM     27  C   UNL     1      10.229   3.580  23.558  0.00  0.00    +0.071 A 
ATOM     28  N   UNL     1      11.537   3.853  23.315  0.00  0.00    -0.255 NA
ATOM     29  C   UNL     1      11.994   5.090  23.629  0.00  0.00    +0.111 A 
ATOM     30  C   UNL     1      11.212   6.095  24.166  0.00  0.00    +0.020 A 
ATOM     31  C   UNL     1       9.876   5.815  24.413  0.00  0.00    +0.004 A 
ATOM     32  C   UNL     1       9.382   4.547  24.109  0.00  0.00    +0.028 A 
ENDBRANCH  23  27
ENDBRANCH   5  21
TORSDOF 6
ENDMDL
MODEL 3
REMARK VINA RESULT:      -7.4      1.919      2.816
REMARK  Name = 
REMARK  8 active torsions:
REMARK  status: ('A' for Active; 'I' for Inactive)
REMARK    1  A    between atoms: C_1  and  C_2
REMARK    2  A    between atoms: C_2  and  S_3
REMARK    3  A    between atoms: S_3  and  C_6
REMARK    4  A    between atoms: C_9  and  O_10
REMARK    5  A    between atoms: O_10  and  C_11
REMARK    6  A    between atoms: C_12  and  N_13
REMARK    7  A    between atoms: C_17  and  C_19
REMARK    8  A    between atoms: C_23  and  C_25
REMARK                            x       y       z     vdW  Elec       q    Type
REMARK                         _______ _______ _______ _____ _____    ______ ____
ROOT
ATOM      1  N   UNL     1       6.520  -4.082  23.916  0.00  0.00    -0.266 N 
ATOM      2  H   UNL     1       7.307  -4.473  23.410  0.00  0.00    +0.157 HD
ATOM      3  C   UNL     1       6.491  -2.749  24.114  0.00  0.00    +0.292 A 
ATOM      4  O   UNL     1       7.650  -2.074  23.824  0.00  0.00    -0.424 OA
ATOM      5  C   UNL     1       7.400  -0.764  24.175  0.00  0.00    +0.157 A 
ATOM      6  C   UNL     1       6.088  -0.713  24.586  0.00  0.00    +0.163 A 
ATOM      7  N   UNL     1       5.534  -1.969  24.574  0.00  0.00    -0.203 NA
ENDROOT
BRANCH   1  10
ATOM      8  C   UNL     1       3.938  -6.662  24.741  0.00  0.00    +0.090 A 
ATOM      9  C   UNL     1       4.703  -5.750  24.008  0.00  0.00    +0.054 A 
ATOM     10  C   UNL     1       5.777  -5.075  24.603  0.00  0.00    +0.079 A 
ATOM     11  C   UNL     1       6.124  -5.415  25.936  0.00  0.00    +0.141 A 
ATOM     12  C   UNL     1       5.392  -6.390  26.634  0.00  0.00    +0.049 A 
ATOM     13  C   UNL     1       4.287  -7.003  26.043  0.00  0.00    +0.030 A 
BRANCH   8  14
ATOM     14  S   UNL     1       2.435  -7.289  24.030  0.00  0.00    -0.003 S 
ATOM     15  O   UNL     1       2.323  -6.726  22.700  0.00  0.00    -0.169 OA
ATOM     16  O   UNL     1       2.432  -8.727  24.238  0.00  0.00    -0.169 OA
BRANCH  14  18
ATOM     17  C   UNL     1       1.137  -5.077  24.993  0.00  0.00    +0.028 C 
ATOM     18  C   UNL     1       1.166  -6.587  25.076  0.00  0.00    +0.168 C 
ENDBRANCH  14  18
ENDBRANCH   8  14
BRANCH  11  19
ATOM     19  O   UNL     1       7.180  -4.714  26.478  0.00  0.00    -0.493 OA
ATOM     20  C   UNL     1       8.470  -5.313  26.366  0.00  0.00    +0.277 C 
ENDBRANCH  11  19
ENDBRANCH   1  10
BRANCH   5  21
ATOM     21  C   UNL     1       8.504   0.191  24.076  0.00  0.00    +0.020 A 
ATOM     22  C   UNL     1       8.283   1.539  23.719  0.00  0.00    +0.021 A 
ATOM     23  C   UNL     1       9.325   2.498  23.697  0.00  0.00    +0.001 A 
ATOM     24  C   UNL     1      10.623   2.038  23.987  0.00  0.00    +0.010 A 
ATOM     25  C   UNL     1      10.863   0.711  24.338  0.00  0.00    +0.001 A 
ATOM     26  C   UNL     1       9.810  -0.201  24.393  0.00  0.00    +0.011 A 
BRANCH  23  27
ATOM     27  C   UNL     1       9.055   3.935  23.433  0.00  0.00    +0.071 A 
ATOM     28  N   UNL     1       7.887   4.229  22.806  0.00  0.00    -0.255 NA
ATOM     29  C   UNL     1       7.593   5.535  22.595  0.00  0.00    +0.111 A 
ATOM     30  C   UNL     1       8.398   6.586  22.991  0.00  0.00    +0.020 A 
ATOM     31  C   UNL     1       9.591   6.285  23.632  0.00  0.00    +0.004 A 
ATOM     32  C   UNL     1       9.923   4.949  23.852  0.00  0.00    +0.028 A 
ENDBRANCH  23  27
ENDBRANCH   5  21
TORSDOF 6
ENDMDL
MODEL 4
REMARK VINA RESULT:      -7.3      2.460      3.917
REMARK  Name = 
REMARK  8 active torsions:
REMARK  status: ('A' for Active; 'I' for Inactive)
REMARK    1  A    between atoms: C_1  and  C_2
REMARK    2  A    between atoms: C_2  and  S_3
REMARK    3  A    between atoms: S_3  and  C_6
REMARK    4  A    between atoms: C_9  and  O_10
REMARK    5  A    between atoms: O_10  and  C_11
REMARK    6  A    between atoms: C_12  and  N_13
REMARK    7  A    between atoms: C_17  and  C_19
REMARK    8  A    between atoms: C_23  and  C_25
REMARK                            x       y       z     vdW  Elec       q    Type
REMARK                         _______ _______ _______ _____ _____    ______ ____
ROOT
ATOM      1  N   UNL     1       6.408  -1.217  23.018  0.00  0.00    -0.266 N 
ATOM      2  H   UNL     1       6.366  -1.105  22.011  0.00  0.00    +0.157 HD
ATOM      3  C   UNL     1       6.496  -0.108  23.778  0.00  0.00    +0.292 A 
ATOM      4  O   UNL     1       6.767   1.059  23.108  0.00  0.00    -0.424 OA
ATOM      5  C   UNL     1       6.883   2.020  24.090  0.00  0.00    +0.157 A 
ATOM      6  C   UNL     1       6.606   1.392  25.284  0.00  0.00    +0.163 A 
ATOM      7  N   UNL     1       6.395   0.052  25.081  0.00  0.00    -0.203 NA
ENDROOT
BRANCH   1  10
ATOM      8  C   UNL     1       6.108  -4.657  24.463  0.00  0.00    +0.090 A 
ATOM      9  C   UNL     1       5.760  -3.375  24.025  0.00  0.00    +0.054 A 
ATOM     10  C   UNL     1       6.703  -2.551  23.397  0.00  0.00    +0.079 A 
ATOM     11  C   UNL     1       7.988  -3.089  23.132  0.00  0.00    +0.141 A 
ATOM     12  C   UNL     1       8.299  -4.406  23.510  0.00  0.00    +0.049 A 
ATOM     13  C   UNL     1       7.366  -5.186  24.192  0.00  0.00    +0.030 A 
BRANCH   8  14
ATOM     14  S   UNL     1       4.966  -5.556  25.484  0.00  0.00    -0.003 S 
ATOM     15  O   UNL     1       5.745  -6.258  26.483  0.00  0.00    -0.169 OA
ATOM     16  O   UNL     1       3.915  -4.629  25.867  0.00  0.00    -0.169 OA
BRANCH  14  18
ATOM     17  C   UNL     1       3.134  -6.141  23.533  0.00  0.00    +0.028 C 
ATOM     18  C   UNL     1       4.255  -6.743  24.350  0.00  0.00    +0.168 C 
ENDBRANCH  14  18
ENDBRANCH   8  14
BRANCH  11  19
ATOM     19  O   UNL     1       8.882  -2.234  22.523  0.00  0.00    -0.493 OA
ATOM     20  C   UNL     1      10.045  -1.886  23.271  0.00  0.00    +0.277 C 
ENDBRANCH  11  19
ENDBRANCH   1  10
BRANCH   5  21
ATOM     21  C   UNL     1       7.278   3.367  23.683  0.00  0.00    +0.020 A 
ATOM     22  C   UNL     1       8.381   4.023  24.273  0.00  0.00    +0.021 A 
ATOM     23  C   UNL     1       8.829   5.294  23.836  0.00  0.00    +0.001 A 
ATOM     24  C   UNL     1       8.086   5.919  22.818  0.00  0.00    +0.010 A 
ATOM     25  C   UNL     1       6.993   5.290  22.224  0.00  0.00    +0.001 A 
ATOM     26  C   UNL     1       6.600   4.021  22.646  0.00  0.00    +0.011 A 
BRANCH  23  27
ATOM     27  C   UNL     1      10.060   5.917  24.389  0.00  0.00    +0.071 A 
ATOM     28  N   UNL     1       9.931   6.572  25.572  0.00  0.00    -0.255 NA
ATOM     29  C   UNL     1      11.048   7.108  26.122  0.00  0.00    +0.111 A 
ATOM     30  C   UNL     1      12.309   7.018  25.566  0.00  0.00    +0.020 A 
ATOM     31  C   UNL     1      12.439   6.348  24.358  0.00  0.00    +0.004 A 
ATOM     32  C   UNL     1      11.305   5.796  23.764  0.00  0.00    +0.028 A 
ENDBRANCH  23  27
ENDBRANCH   5  21
TORSDOF 6
ENDMDL
MODEL 5
REMARK VINA RESULT:      -7.1      2.466      3.708
REMARK  Name = 
REMARK  8 active torsions:
REMARK  status: ('A' for Active; 'I' for Inactive)
REMARK    1  A    between atoms: C_1  and  C_2
REMARK    2  A    between atoms: C_2  and  S_3
REMARK    3  A    between atoms: S_3  and  C_6
REMARK    4  A    between atoms: C_9  and  O_10
REMARK    5  A    between atoms: O_10  and  C_11
REMARK    6  A    between atoms: C_12  and  N_13
REMARK    7  A    between atoms: C_17  and  C_19
REMARK    8  A    between atoms: C_23  and  C_25
REMARK                            x       y       z     vdW  Elec       q    Type
REMARK                         _______ _______ _______ _____ _____    ______ ____
ROOT
ATOM      1  N   UNL     1       7.326  -1.681  25.062  0.00  0.00    -0.266 N 
ATOM      2  H   UNL     1       7.154  -1.273  25.974  0.00  0.00    +0.157 HD
ATOM      3  C   UNL     1       7.760  -0.872  24.075  0.00  0.00    +0.292 A 
ATOM      4  O   UNL     1       7.695   0.475  24.332  0.00  0.00    -0.424 OA
ATOM      5  C   UNL     1       8.112   1.083  23.167  0.00  0.00    +0.157 A 
ATOM      6  C   UNL     1       8.470   0.071  22.305  0.00  0.00    +0.163 A 
ATOM      7  N   UNL     1       8.217  -1.152  22.872  0.00  0.00    -0.203 NA
ENDROOT
BRANCH   1  10
ATOM      8  C   UNL     1       4.843  -4.435  24.551  0.00  0.00    +0.090 A 
ATOM      9  C   UNL     1       5.404  -3.154  24.587  0.00  0.00    +0.054 A 
ATOM     10  C   UNL     1       6.749  -2.970  24.933  0.00  0.00    +0.079 A 
ATOM     11  C   UNL     1       7.546  -4.123  25.149  0.00  0.00    +0.141 A 
ATOM     12  C   UNL     1       6.987  -5.406  25.034  0.00  0.00    +0.049 A 
ATOM     13  C   UNL     1       5.631  -5.564  24.751  0.00  0.00    +0.030 A 
BRANCH   8  14
ATOM     14  S   UNL     1       3.083  -4.598  24.370  0.00  0.00    -0.003 S 
ATOM     15  O   UNL     1       2.481  -3.425  24.970  0.00  0.00    -0.169 OA
ATOM     16  O   UNL     1       2.828  -4.946  22.983  0.00  0.00    -0.169 OA
BRANCH  14  18
ATOM     17  C   UNL     1       2.689  -5.705  26.845  0.00  0.00    +0.028 C 
ATOM     18  C   UNL     1       2.703  -6.032  25.368  0.00  0.00    +0.168 C 
ENDBRANCH  14  18
ENDBRANCH   8  14
BRANCH  11  19
ATOM     19  O   UNL     1       8.860  -3.887  25.497  0.00  0.00    -0.493 OA
ATOM     20  C   UNL     1       9.726  -5.019  25.530  0.00  0.00    +0.277 C 
ENDBRANCH  11  19
ENDBRANCH   1  10
BRANCH   5  21
ATOM     21  C   UNL     1       8.050   2.543  23.100  0.00  0.00    +0.020 A 
ATOM     22  C   UNL     1       9.010   3.352  23.745  0.00  0.00    +0.021 A 
ATOM     23  C   UNL     1       9.015   4.764  23.624  0.00  0.00    +0.001 A 
ATOM     24  C   UNL     1       7.975   5.345  22.877  0.00  0.00    +0.010 A 
ATOM     25  C   UNL     1       7.015   4.564  22.235  0.00  0.00    +0.001 A 
ATOM     26  C   UNL     1       7.060   3.175  22.337  0.00  0.00    +0.011 A 
BRANCH  23  27
ATOM     27  C   UNL     1      10.099   5.591  24.214  0.00  0.00    +0.071 A 
ATOM     28  N   UNL     1       9.760   6.377  25.268  0.00  0.00    -0.255 NA
ATOM     29  C   UNL     1      10.740   7.105  25.856  0.00  0.00    +0.111 A 
ATOM     30  C   UNL     1      12.064   7.088  25.461  0.00  0.00    +0.020 A 
ATOM     31  C   UNL     1      12.410   6.284  24.384  0.00  0.00    +0.004 A 
ATOM     32  C   UNL     1      11.419   5.532  23.754  0.00  0.00    +0.028 A 
ENDBRANCH  23  27
ENDBRANCH   5  21
TORSDOF 6
ENDMDL
MODEL 6
REMARK VINA RESULT:      -6.9      3.581      9.945
REMARK  Name = 
REMARK  8 active torsions:
REMARK  status: ('A' for Active; 'I' for Inactive)
REMARK    1  A    between atoms: C_1  and  C_2
REMARK    2  A    between atoms: C_2  and  S_3
REMARK    3  A    between atoms: S_3  and  C_6
REMARK    4  A    between atoms: C_9  and  O_10
REMARK    5  A    between atoms: O_10  and  C_11
REMARK    6  A    between atoms: C_12  and  N_13
REMARK    7  A    between atoms: C_17  and  C_19
REMARK    8  A    between atoms: C_23  and  C_25
REMARK                            x       y       z     vdW  Elec       q    Type
REMARK                         _______ _______ _______ _____ _____    ______ ____
ROOT
ATOM      1  N   UNL     1       8.642  -0.589  25.291  0.00  0.00    -0.266 N 
ATOM      2  H   UNL     1       9.399  -1.123  25.703  0.00  0.00    +0.157 HD
ATOM      3  C   UNL     1       7.394  -1.093  25.366  0.00  0.00    +0.292 A 
ATOM      4  O   UNL     1       7.298  -2.398  25.781  0.00  0.00    -0.424 OA
ATOM      5  C   UNL     1       5.956  -2.702  25.703  0.00  0.00    +0.157 A 
ATOM      6  C   UNL     1       5.316  -1.546  25.317  0.00  0.00    +0.163 A 
ATOM      7  N   UNL     1       6.229  -0.551  25.078  0.00  0.00    -0.203 NA
ENDROOT
BRANCH   1  10
ATOM      8  C   UNL     1       9.436   2.766  23.835  0.00  0.00    +0.090 A 
ATOM      9  C   UNL     1       9.042   1.786  24.750  0.00  0.00    +0.054 A 
ATOM     10  C   UNL     1       9.113   0.426  24.420  0.00  0.00    +0.079 A 
ATOM     11  C   UNL     1       9.688   0.072  23.173  0.00  0.00    +0.141 A 
ATOM     12  C   UNL     1      10.151   1.066  22.295  0.00  0.00    +0.049 A 
ATOM     13  C   UNL     1      10.011   2.415  22.617  0.00  0.00    +0.030 A 
BRANCH   8  14
ATOM     14  S   UNL     1       9.080   4.470  24.193  0.00  0.00    -0.003 S 
ATOM     15  O   UNL     1       8.422   4.507  25.482  0.00  0.00    -0.169 OA
ATOM     16  O   UNL     1      10.300   5.220  23.952  0.00  0.00    -0.169 OA
BRANCH  14  18
ATOM     17  C   UNL     1       6.614   4.144  23.045  0.00  0.00    +0.028 C 
ATOM     18  C   UNL     1       7.908   4.916  22.918  0.00  0.00    +0.168 C 
ENDBRANCH  14  18
ENDBRANCH   8  14
BRANCH  11  19
ATOM     19  O   UNL     1       9.725  -1.278  22.891  0.00  0.00    -0.493 OA
ATOM     20  C   UNL     1       8.793  -1.755  21.924  0.00  0.00    +0.277 C 
ENDBRANCH  11  19
ENDBRANCH   1  10
BRANCH   5  21
ATOM     21  C   UNL     1       5.550  -4.078  25.988  0.00  0.00    +0.020 A 
ATOM     22  C   UNL     1       4.547  -4.723  25.233  0.00  0.00    +0.021 A 
ATOM     23  C   UNL     1       4.198  -6.080  25.439  0.00  0.00    +0.001 A 
ATOM     24  C   UNL     1       4.853  -6.757  26.483  0.00  0.00    +0.010 A 
ATOM     25  C   UNL     1       5.844  -6.138  27.243  0.00  0.00    +0.001 A 
ATOM     26  C   UNL     1       6.196  -4.813  26.990  0.00  0.00    +0.011 A 
BRANCH  23  27
ATOM     27  C   UNL     1       3.223  -6.775  24.559  0.00  0.00    +0.071 A 
ATOM     28  N   UNL     1       2.850  -8.026  24.932  0.00  0.00    -0.255 NA
ATOM     29  C   UNL     1       1.926  -8.664  24.174  0.00  0.00    +0.111 A 
ATOM     30  C   UNL     1       1.328  -8.118  23.054  0.00  0.00    +0.020 A 
ATOM     31  C   UNL     1       1.709  -6.839  22.673  0.00  0.00    +0.004 A 
ATOM     32  C   UNL     1       2.667  -6.164  23.430  0.00  0.00    +0.028 A 
ENDBRANCH  23  27
ENDBRANCH   5  21
TORSDOF 6
ENDMDL
MODEL 7
REMARK VINA RESULT:      -6.9      3.951     10.003
REMARK  Name = 
REMARK  8 active torsions:
REMARK  status: ('A' for Active; 'I' for Inactive)
REMARK    1  A    between atoms: C_1  and  C_2
REMARK    2  A    between atoms: C_2  and  S_3
REMARK    3  A    between atoms: S_3  and  C_6
REMARK    4  A    between atoms: C_9  and  O_10
REMARK    5  A    between atoms: O_10  and  C_11
REMARK    6  A    between atoms: C_12  and  N_13
REMARK    7  A    between atoms: C_17  and  C_19
REMARK    8  A    between atoms: C_23  and  C_25
REMARK                            x       y       z     vdW  Elec       q    Type
REMARK                         _______ _______ _______ _____ _____    ______ ____
ROOT
ATOM      1  N   UNL     1       6.273   1.596  23.247  0.00  0.00    -0.266 N 
ATOM      2  H   UNL     1       5.429   1.342  23.748  0.00  0.00    +0.157 HD
ATOM      3  C   UNL     1       7.189   0.635  23.016  0.00  0.00    +0.292 A 
ATOM      4  O   UNL     1       7.004  -0.545  23.692  0.00  0.00    -0.424 OA
ATOM      5  C   UNL     1       8.090  -1.326  23.356  0.00  0.00    +0.157 A 
ATOM      6  C   UNL     1       8.824  -0.601  22.444  0.00  0.00    +0.163 A 
ATOM      7  N   UNL     1       8.268   0.640  22.261  0.00  0.00    -0.203 NA
ENDROOT
BRANCH   1  10
ATOM      8  C   UNL     1       7.752   5.011  23.651  0.00  0.00    +0.090 A 
ATOM      9  C   UNL     1       7.633   3.618  23.643  0.00  0.00    +0.054 A 
ATOM     10  C   UNL     1       6.460   3.001  23.189  0.00  0.00    +0.079 A 
ATOM     11  C   UNL     1       5.439   3.824  22.648  0.00  0.00    +0.141 A 
ATOM     12  C   UNL     1       5.605   5.218  22.592  0.00  0.00    +0.049 A 
ATOM     13  C   UNL     1       6.755   5.815  23.109  0.00  0.00    +0.030 A 
BRANCH   8  14
ATOM     14  S   UNL     1       9.141   5.750  24.476  0.00  0.00    -0.003 S 
ATOM     15  O   UNL     1       9.257   7.108  23.986  0.00  0.00    -0.169 OA
ATOM     16  O   UNL     1       8.989   5.475  25.895  0.00  0.00    -0.169 OA
BRANCH  14  18
ATOM     17  C   UNL     1      11.735   5.653  23.600  0.00  0.00    +0.028 C 
ATOM     18  C   UNL     1      10.526   4.788  23.882  0.00  0.00    +0.168 C 
ENDBRANCH  14  18
ENDBRANCH   8  14
BRANCH  11  19
ATOM     19  O   UNL     1       4.302   3.169  22.226  0.00  0.00    -0.493 OA
ATOM     20  C   UNL     1       3.121   3.375  22.999  0.00  0.00    +0.277 C 
ENDBRANCH  11  19
ENDBRANCH   1  10
BRANCH   5  21
ATOM     21  C   UNL     1       8.226  -2.624  24.014  0.00  0.00    +0.020 A 
ATOM     22  C   UNL     1       7.099  -3.412  24.333  0.00  0.00    +0.021 A 
ATOM     23  C   UNL     1       7.214  -4.707  24.896  0.00  0.00    +0.001 A 
ATOM     24  C   UNL     1       8.511  -5.163  25.190  0.00  0.00    +0.010 A 
ATOM     25  C   UNL     1       9.637  -4.400  24.887  0.00  0.00    +0.001 A 
ATOM     26  C   UNL     1       9.495  -3.146  24.294  0.00  0.00    +0.011 A 
BRANCH  23  27
ATOM     27  C   UNL     1       6.023  -5.567  25.118  0.00  0.00    +0.071 A 
ATOM     28  N   UNL     1       5.356  -5.981  24.009  0.00  0.00    -0.255 NA
ATOM     29  C   UNL     1       4.295  -6.806  24.180  0.00  0.00    +0.111 A 
ATOM     30  C   UNL     1       3.857  -7.265  25.407  0.00  0.00    +0.020 A 
ATOM     31  C   UNL     1       4.538  -6.842  26.539  0.00  0.00    +0.004 A 
ATOM     32  C   UNL     1       5.628  -5.984  26.393  0.00  0.00    +0.028 A 
ENDBRANCH  23  27
ENDBRANCH   5  21
TORSDOF 6
ENDMDL
MODEL 8
REMARK VINA RESULT:      -6.8      2.293      3.867
REMARK  Name = 
REMARK  8 active torsions:
REMARK  status: ('A' for Active; 'I' for Inactive)
REMARK    1  A    between atoms: C_1  and  C_2
REMARK    2  A    between atoms: C_2  and  S_3
REMARK    3  A    between atoms: S_3  and  C_6
REMARK    4  A    between atoms: C_9  and  O_10
REMARK    5  A    between atoms: O_10  and  C_11
REMARK    6  A    between atoms: C_12  and  N_13
REMARK    7  A    between atoms: C_17  and  C_19
REMARK    8  A    between atoms: C_23  and  C_25
REMARK                            x       y       z     vdW  Elec       q    Type
REMARK                         _______ _______ _______ _____ _____    ______ ____
ROOT
ATOM      1  N   UNL     1       5.142  -1.640  25.904  0.00  0.00    -0.266 N 
ATOM      2  H   UNL     1       4.574  -0.899  25.508  0.00  0.00    +0.157 HD
ATOM      3  C   UNL     1       6.469  -1.433  26.015  0.00  0.00    +0.292 A 
ATOM      4  O   UNL     1       6.962  -0.333  25.359  0.00  0.00    -0.424 OA
ATOM      5  C   UNL     1       8.326  -0.378  25.555  0.00  0.00    +0.157 A 
ATOM      6  C   UNL     1       8.567  -1.458  26.374  0.00  0.00    +0.163 A 
ATOM      7  N   UNL     1       7.399  -2.132  26.632  0.00  0.00    -0.203 NA
ENDROOT
BRANCH   1  10
ATOM      8  C   UNL     1       3.980  -5.099  25.070  0.00  0.00    +0.090 A 
ATOM      9  C   UNL     1       4.735  -3.922  25.056  0.00  0.00    +0.054 A 
ATOM     10  C   UNL     1       4.454  -2.879  25.948  0.00  0.00    +0.079 A 
ATOM     11  C   UNL     1       3.449  -3.091  26.927  0.00  0.00    +0.141 A 
ATOM     12  C   UNL     1       2.751  -4.308  26.978  0.00  0.00    +0.049 A 
ATOM     13  C   UNL     1       3.003  -5.309  26.039  0.00  0.00    +0.030 A 
BRANCH   8  14
ATOM     14  S   UNL     1       4.197  -6.275  23.756  0.00  0.00    -0.003 S 
ATOM     15  O   UNL     1       4.172  -7.594  24.354  0.00  0.00    -0.169 OA
ATOM     16  O   UNL     1       3.266  -5.912  22.701  0.00  0.00    -0.169 OA
BRANCH  14  18
ATOM     17  C   UNL     1       5.943  -6.024  21.661  0.00  0.00    +0.028 C 
ATOM     18  C   UNL     1       5.848  -5.926  23.167  0.00  0.00    +0.168 C 
ENDBRANCH  14  18
ENDBRANCH   8  14
BRANCH  11  19
ATOM     19  O   UNL     1       3.203  -2.030  27.773  0.00  0.00    -0.493 OA
ATOM     20  C   UNL     1       3.477  -2.239  29.157  0.00  0.00    +0.277 C 
ENDBRANCH  11  19
ENDBRANCH   1  10
BRANCH   5  21
ATOM     21  C   UNL     1       9.146   0.624  24.875  0.00  0.00    +0.020 A 
ATOM     22  C   UNL     1       8.590   1.829  24.394  0.00  0.00    +0.021 A 
ATOM     23  C   UNL     1       9.381   2.847  23.808  0.00  0.00    +0.001 A 
ATOM     24  C   UNL     1      10.755   2.585  23.661  0.00  0.00    +0.010 A 
ATOM     25  C   UNL     1      11.324   1.400  24.127  0.00  0.00    +0.001 A 
ATOM     26  C   UNL     1      10.527   0.434  24.738  0.00  0.00    +0.011 A 
BRANCH  23  27
ATOM     27  C   UNL     1       8.798   4.156  23.413  0.00  0.00    +0.071 A 
ATOM     28  N   UNL     1       9.493   5.266  23.773  0.00  0.00    -0.255 NA
ATOM     29  C   UNL     1       9.008   6.470  23.383  0.00  0.00    +0.111 A 
ATOM     30  C   UNL     1       7.861   6.640  22.632  0.00  0.00    +0.020 A 
ATOM     31  C   UNL     1       7.152   5.505  22.264  0.00  0.00    +0.004 A 
ATOM     32  C   UNL     1       7.622   4.254  22.661  0.00  0.00    +0.028 A 
ENDBRANCH  23  27
ENDBRANCH   5  21
TORSDOF 6
ENDMDL
MODEL 9
REMARK VINA RESULT:      -6.8      4.023     10.232
REMARK  Name = 
REMARK  8 active torsions:
REMARK  status: ('A' for Active; 'I' for Inactive)
REMARK    1  A    between atoms: C_1  and  C_2
REMARK    2  A    between atoms: C_2  and  S_3
REMARK    3  A    between atoms: S_3  and  C_6
REMARK    4  A    between atoms: C_9  and  O_10
REMARK    5  A    between atoms: O_10  and  C_11
REMARK    6  A    between atoms: C_12  and  N_13
REMARK    7  A    between atoms: C_17  and  C_19
REMARK    8  A    between atoms: C_23  and  C_25
REMARK                            x       y       z     vdW  Elec       q    Type
REMARK                         _______ _______ _______ _____ _____    ______ ____
ROOT
ATOM      1  N   UNL     1       9.220   2.094  23.151  0.00  0.00    -0.266 N 
ATOM      2  H   UNL     1       9.310   1.858  22.169  0.00  0.00    +0.157 HD
ATOM      3  C   UNL     1       9.029   1.092  24.031  0.00  0.00    +0.292 A 
ATOM      4  O   UNL     1       8.730  -0.133  23.489  0.00  0.00    -0.424 OA
ATOM      5  C   UNL     1       8.506  -0.960  24.570  0.00  0.00    +0.157 A 
ATOM      6  C   UNL     1       8.753  -0.206  25.695  0.00  0.00    +0.163 A 
ATOM      7  N   UNL     1       9.050   1.088  25.348  0.00  0.00    -0.203 NA
ENDROOT
BRANCH   1  10
ATOM      8  C   UNL     1       7.488   5.395  23.489  0.00  0.00    +0.090 A 
ATOM      9  C   UNL     1       7.687   4.016  23.375  0.00  0.00    +0.054 A 
ATOM     10  C   UNL     1       8.980   3.478  23.351  0.00  0.00    +0.079 A 
ATOM     11  C   UNL     1      10.074   4.361  23.542  0.00  0.00    +0.141 A 
ATOM     12  C   UNL     1       9.854   5.735  23.732  0.00  0.00    +0.049 A 
ATOM     13  C   UNL     1       8.561   6.257  23.688  0.00  0.00    +0.030 A 
BRANCH   8  14
ATOM     14  S   UNL     1       5.854   6.050  23.248  0.00  0.00    -0.003 S 
ATOM     15  O   UNL     1       5.416   6.584  24.521  0.00  0.00    -0.169 OA
ATOM     16  O   UNL     1       5.900   6.885  22.061  0.00  0.00    -0.169 OA
BRANCH  14  18
ATOM     17  C   UNL     1       3.819   4.331  23.890  0.00  0.00    +0.028 C 
ATOM     18  C   UNL     1       4.888   4.598  22.854  0.00  0.00    +0.168 C 
ENDBRANCH  14  18
ENDBRANCH   8  14
BRANCH  11  19
ATOM     19  O   UNL     1      11.326   3.783  23.499  0.00  0.00    -0.493 OA
ATOM     20  C   UNL     1      12.426   4.658  23.262  0.00  0.00    +0.277 C 
ENDBRANCH  11  19
ENDBRANCH   1  10
BRANCH   5  21
ATOM     21  C   UNL     1       8.059  -2.326  24.302  0.00  0.00    +0.020 A 
ATOM     22  C   UNL     1       7.587  -3.163  25.336  0.00  0.00    +0.021 A 
ATOM     23  C   UNL     1       7.072  -4.459  25.087  0.00  0.00    +0.001 A 
ATOM     24  C   UNL     1       7.108  -4.916  23.757  0.00  0.00    +0.010 A 
ATOM     25  C   UNL     1       7.574  -4.107  22.722  0.00  0.00    +0.001 A 
ATOM     26  C   UNL     1       8.035  -2.820  22.992  0.00  0.00    +0.011 A 
BRANCH  23  27
ATOM     27  C   UNL     1       6.473  -5.281  26.170  0.00  0.00    +0.071 A 
ATOM     28  N   UNL     1       7.008  -5.137  27.410  0.00  0.00    -0.255 NA
ATOM     29  C   UNL     1       6.449  -5.838  28.426  0.00  0.00    +0.111 A 
ATOM     30  C   UNL     1       5.360  -6.677  28.285  0.00  0.00    +0.020 A 
ATOM     31  C   UNL     1       4.813  -6.823  27.018  0.00  0.00    +0.004 A 
ATOM     32  C   UNL     1       5.376  -6.121  25.952  0.00  0.00    +0.028 A 
ENDBRANCH  23  27
ENDBRANCH   5  21
TORSDOF 6
ENDMDL
