MODEL 1
REMARK VINA RESULT:      -7.3      0.000      0.000
REMARK  Name = 
REMARK  3 active torsions:
REMARK  status: ('A' for Active; 'I' for Inactive)
REMARK    1  A    between atoms: N_10  and  C_11
REMARK    2  A    between atoms: P_18  and  O_19
REMARK    3  A    between atoms: C_24  and  O_26
REMARK                            x       y       z     vdW  Elec       q    Type
REMARK                         _______ _______ _______ _____ _____    ______ ____
ROOT
ATOM      1  C   UNL     1       7.449  -2.572  23.370  0.00  0.00    +0.253 C 
ATOM      2  C   UNL     1       7.033  -2.375  24.842  0.00  0.00    +0.196 C 
ATOM      3  C   UNL     1       7.860  -3.437  25.542  0.00  0.00    +0.191 C 
ATOM      4  C   UNL     1       7.843  -4.564  24.531  0.00  0.00    +0.179 C 
ATOM      5  C   UNL     1       6.573  -5.417  24.558  0.00  0.00    +0.204 C 
ATOM      6  O   UNL     1       5.972  -5.576  25.824  0.00  0.00    -0.308 OA
ATOM      7  P   UNL     1       6.648  -5.095  27.192  0.00  0.00    +0.306 P 
ATOM      8  S   UNL     1       5.495  -5.007  28.726  0.00  0.00    +0.022 S 
ATOM      9  O   UNL     1       7.392  -3.720  26.833  0.00  0.00    -0.302 OA
ATOM     10  O   UNL     1       7.996  -3.919  23.253  0.00  0.00    -0.346 OA
ENDROOT
BRANCH   1  18
ATOM     11  N   UNL     1      10.432   2.442  21.801  0.00  0.00    -0.341 N 
ATOM     12  H   UNL     1      11.222   1.898  21.475  0.00  0.00    +0.144 HD
ATOM     13  H   UNL     1      10.198   3.288  21.299  0.00  0.00    +0.144 HD
ATOM     14  C   UNL     1       9.304   1.677  22.067  0.00  0.00    +0.147 A 
ATOM     15  C   UNL     1       9.346   0.303  22.355  0.00  0.00    +0.147 A 
ATOM     16  N   UNL     1      10.371  -0.619  22.446  0.00  0.00    -0.231 NA
ATOM     17  C   UNL     1       9.785  -1.753  22.780  0.00  0.00    +0.203 A 
ATOM     18  N   UNL     1       8.434  -1.602  22.932  0.00  0.00    -0.286 N 
ATOM     19  C   UNL     1       8.131  -0.303  22.619  0.00  0.00    +0.167 A 
ATOM     20  N   UNL     1       6.917   0.264  22.620  0.00  0.00    -0.216 NA
ATOM     21  C   UNL     1       6.996   1.573  22.320  0.00  0.00    +0.225 A 
ATOM     22  N   UNL     1       8.101   2.298  22.046  0.00  0.00    -0.219 NA
ENDBRANCH   1  18
BRANCH   2  23
ATOM     23  O   UNL     1       5.635  -2.641  25.009  0.00  0.00    -0.385 OA
ATOM     24  H   UNL     1       5.252  -2.745  24.116  0.00  0.00    +0.210 HD
ENDBRANCH   2  23
BRANCH   7  25
ATOM     25  O   UNL     1       7.878  -6.116  27.336  0.00  0.00    -0.327 OA
ATOM     26  H   UNL     1       8.554  -5.930  28.004  0.00  0.00    +0.219 HD
ENDBRANCH   7  25
TORSDOF 3
ENDMDL
MODEL 2
REMARK VINA RESULT:      -7.2      4.493      6.790
REMARK  Name = 
REMARK  3 active torsions:
REMARK  status: ('A' for Active; 'I' for Inactive)
REMARK    1  A    between atoms: N_10  and  C_11
REMARK    2  A    between atoms: P_18  and  O_19
REMARK    3  A    between atoms: C_24  and  O_26
REMARK                            x       y       z     vdW  Elec       q    Type
REMARK                         _______ _______ _______ _____ _____    ______ ____
ROOT
ATOM      1  C   UNL     1       8.093  -2.449  23.562  0.00  0.00    +0.253 C 
ATOM      2  C   UNL     1       7.576  -1.037  23.901  0.00  0.00    +0.196 C 
ATOM      3  C   UNL     1       7.986  -0.253  22.669  0.00  0.00    +0.191 C 
ATOM      4  C   UNL     1       9.315  -0.888  22.320  0.00  0.00    +0.179 C 
ATOM      5  C   UNL     1      10.497  -0.371  23.143  0.00  0.00    +0.204 C 
ATOM      6  O   UNL     1      10.426   0.984  23.528  0.00  0.00    -0.308 OA
ATOM      7  P   UNL     1       9.313   2.000  22.990  0.00  0.00    +0.306 P 
ATOM      8  S   UNL     1       9.129   3.650  23.957  0.00  0.00    +0.022 S 
ATOM      9  O   UNL     1       7.968   1.133  22.881  0.00  0.00    -0.302 OA
ATOM     10  O   UNL     1       9.121  -2.298  22.538  0.00  0.00    -0.346 OA
ENDROOT
BRANCH   1  18
ATOM     11  N   UNL     1       3.625  -6.478  23.008  0.00  0.00    -0.341 N 
ATOM     12  H   UNL     1       3.665  -6.418  21.997  0.00  0.00    +0.144 HD
ATOM     13  H   UNL     1       3.414  -7.375  23.422  0.00  0.00    +0.144 HD
ATOM     14  C   UNL     1       4.695  -5.861  23.642  0.00  0.00    +0.147 A 
ATOM     15  C   UNL     1       5.471  -4.849  23.053  0.00  0.00    +0.147 A 
ATOM     16  N   UNL     1       5.443  -4.226  21.821  0.00  0.00    -0.231 NA
ATOM     17  C   UNL     1       6.410  -3.329  21.868  0.00  0.00    +0.203 A 
ATOM     18  N   UNL     1       7.045  -3.328  23.078  0.00  0.00    -0.286 N 
ATOM     19  C   UNL     1       6.486  -4.326  23.833  0.00  0.00    +0.167 A 
ATOM     20  N   UNL     1       6.825  -4.680  25.080  0.00  0.00    -0.216 NA
ATOM     21  C   UNL     1       6.027  -5.662  25.537  0.00  0.00    +0.225 A 
ATOM     22  N   UNL     1       5.001  -6.263  24.898  0.00  0.00    -0.219 NA
ENDBRANCH   1  18
BRANCH   2  23
ATOM     23  O   UNL     1       8.243  -0.524  25.062  0.00  0.00    -0.385 OA
ATOM     24  H   UNL     1       8.108  -1.172  25.782  0.00  0.00    +0.210 HD
ENDBRANCH   2  23
BRANCH   7  25
ATOM     25  O   UNL     1       9.730   2.169  21.449  0.00  0.00    -0.327 OA
ATOM     26  H   UNL     1       9.668   1.397  20.869  0.00  0.00    +0.219 HD
ENDBRANCH   7  25
TORSDOF 3
ENDMDL
MODEL 3
REMARK VINA RESULT:      -7.1      1.416      1.487
REMARK  Name = 
REMARK  3 active torsions:
REMARK  status: ('A' for Active; 'I' for Inactive)
REMARK    1  A    between atoms: N_10  and  C_11
REMARK    2  A    between atoms: P_18  and  O_19
REMARK    3  A    between atoms: C_24  and  O_26
REMARK                            x       y       z     vdW  Elec       q    Type
REMARK                         _______ _______ _______ _____ _____    ______ ____
ROOT
ATOM      1  C   UNL     1       8.654  -1.863  23.583  0.00  0.00    +0.253 C 
ATOM      2  C   UNL     1       7.537  -2.039  24.631  0.00  0.00    +0.196 C 
ATOM      3  C   UNL     1       8.231  -2.883  25.684  0.00  0.00    +0.191 C 
ATOM      4  C   UNL     1       9.103  -3.786  24.838  0.00  0.00    +0.179 C 
ATOM      5  C   UNL     1       8.370  -4.988  24.237  0.00  0.00    +0.204 C 
ATOM      6  O   UNL     1       7.330  -5.524  25.025  0.00  0.00    -0.308 OA
ATOM      7  P   UNL     1       7.038  -5.074  26.532  0.00  0.00    +0.306 P 
ATOM      8  S   UNL     1       5.338  -5.593  27.261  0.00  0.00    +0.022 S 
ATOM      9  O   UNL     1       7.328  -3.496  26.564  0.00  0.00    -0.302 OA
ATOM     10  O   UNL     1       9.621  -2.935  23.799  0.00  0.00    -0.346 OA
ENDROOT
BRANCH   1  18
ATOM     11  N   UNL     1      10.091   4.004  23.480  0.00  0.00    -0.341 N 
ATOM     12  H   UNL     1      11.056   3.796  23.707  0.00  0.00    +0.144 HD
ATOM     13  H   UNL     1       9.907   4.776  22.854  0.00  0.00    +0.144 HD
ATOM     14  C   UNL     1       9.346   2.882  23.140  0.00  0.00    +0.147 A 
ATOM     15  C   UNL     1       9.684   1.576  23.534  0.00  0.00    +0.147 A 
ATOM     16  N   UNL     1      10.723   1.044  24.272  0.00  0.00    -0.231 NA
ATOM     17  C   UNL     1      10.476  -0.251  24.328  0.00  0.00    +0.203 A 
ATOM     18  N   UNL     1       9.317  -0.577  23.681  0.00  0.00    -0.286 N 
ATOM     19  C   UNL     1       8.821   0.575  23.128  0.00  0.00    +0.167 A 
ATOM     20  N   UNL     1       7.707   0.702  22.394  0.00  0.00    -0.216 NA
ATOM     21  C   UNL     1       7.490   1.988  22.065  0.00  0.00    +0.225 A 
ATOM     22  N   UNL     1       8.235   3.066  22.389  0.00  0.00    -0.219 NA
ENDBRANCH   1  18
BRANCH   2  23
ATOM     23  O   UNL     1       6.429  -2.754  24.070  0.00  0.00    -0.385 OA
ATOM     24  H   UNL     1       6.785  -3.571  23.670  0.00  0.00    +0.210 HD
ENDBRANCH   2  23
BRANCH   7  25
ATOM     25  O   UNL     1       8.311  -5.665  27.311  0.00  0.00    -0.327 OA
ATOM     26  H   UNL     1       8.299  -5.662  28.279  0.00  0.00    +0.219 HD
ENDBRANCH   7  25
TORSDOF 3
ENDMDL
MODEL 4
REMARK VINA RESULT:      -7.0      1.705      2.404
REMARK  Name = 
REMARK  3 active torsions:
REMARK  status: ('A' for Active; 'I' for Inactive)
REMARK    1  A    between atoms: N_10  and  C_11
REMARK    2  A    between atoms: P_18  and  O_19
REMARK    3  A    between atoms: C_24  and  O_26
REMARK                            x       y       z     vdW  Elec       q    Type
REMARK                         _______ _______ _______ _____ _____    ______ ____
ROOT
ATOM      1  C   UNL     1       9.101  -3.171  23.913  0.00  0.00    +0.253 C 
ATOM      2  C   UNL     1       7.779  -3.940  23.717  0.00  0.00    +0.196 C 
ATOM      3  C   UNL     1       6.987  -3.509  24.937  0.00  0.00    +0.191 C 
ATOM      4  C   UNL     1       8.065  -3.419  25.996  0.00  0.00    +0.179 C 
ATOM      5  C   UNL     1       8.452  -4.762  26.618  0.00  0.00    +0.204 C 
ATOM      6  O   UNL     1       7.409  -5.705  26.732  0.00  0.00    -0.308 OA
ATOM      7  P   UNL     1       5.873  -5.366  26.438  0.00  0.00    +0.306 P 
ATOM      8  S   UNL     1       4.696  -6.869  26.226  0.00  0.00    +0.022 S 
ATOM      9  O   UNL     1       5.895  -4.352  25.196  0.00  0.00    -0.302 OA
ATOM     10  O   UNL     1       9.193  -2.824  25.327  0.00  0.00    -0.346 OA
ENDROOT
BRANCH   1  18
ATOM     11  N   UNL     1      10.277   2.321  21.689  0.00  0.00    -0.341 N 
ATOM     12  H   UNL     1       9.621   2.180  20.930  0.00  0.00    +0.144 HD
ATOM     13  H   UNL     1      10.360   3.250  22.078  0.00  0.00    +0.144 HD
ATOM     14  C   UNL     1      10.192   1.355  22.682  0.00  0.00    +0.147 A 
ATOM     15  C   UNL     1       9.660   0.071  22.475  0.00  0.00    +0.147 A 
ATOM     16  N   UNL     1       9.112  -0.566  21.380  0.00  0.00    -0.231 NA
ATOM     17  C   UNL     1       8.819  -1.782  21.800  0.00  0.00    +0.203 A 
ATOM     18  N   UNL     1       9.173  -1.968  23.107  0.00  0.00    -0.286 N 
ATOM     19  C   UNL     1       9.672  -0.776  23.568  0.00  0.00    +0.167 A 
ATOM     20  N   UNL     1      10.118  -0.514  24.804  0.00  0.00    -0.216 NA
ATOM     21  C   UNL     1      10.592   0.742  24.888  0.00  0.00    +0.225 A 
ATOM     22  N   UNL     1      10.650   1.676  23.915  0.00  0.00    -0.219 NA
ENDBRANCH   1  18
BRANCH   2  23
ATOM     23  O   UNL     1       8.012  -5.354  23.747  0.00  0.00    -0.385 OA
ATOM     24  H   UNL     1       8.664  -5.525  24.455  0.00  0.00    +0.210 HD
ENDBRANCH   2  23
BRANCH   7  25
ATOM     25  O   UNL     1       5.504  -4.393  27.661  0.00  0.00    -0.327 OA
ATOM     26  H   UNL     1       4.575  -4.315  27.922  0.00  0.00    +0.219 HD
ENDBRANCH   7  25
TORSDOF 3
ENDMDL
MODEL 5
REMARK VINA RESULT:      -6.7      5.119      6.951
REMARK  Name = 
REMARK  3 active torsions:
REMARK  status: ('A' for Active; 'I' for Inactive)
REMARK    1  A    between atoms: N_10  and  C_11
REMARK    2  A    between atoms: P_18  and  O_19
REMARK    3  A    between atoms: C_24  and  O_26
REMARK                            x       y       z     vdW  Elec       q    Type
REMARK                         _______ _______ _______ _____ _____    ______ ____
ROOT
ATOM      1  C   UNL     1       8.433   0.311  22.513  0.00  0.00    +0.253 C 
ATOM      2  C   UNL     1       9.628   1.256  22.753  0.00  0.00    +0.196 C 
ATOM      3  C   UNL     1       9.197   1.984  24.013  0.00  0.00    +0.191 C 
ATOM      4  C   UNL     1       7.705   2.123  23.801  0.00  0.00    +0.179 C 
ATOM      5  C   UNL     1       7.303   3.286  22.891  0.00  0.00    +0.204 C 
ATOM      6  O   UNL     1       8.130   4.427  22.957  0.00  0.00    -0.308 OA
ATOM      7  P   UNL     1       9.291   4.617  24.042  0.00  0.00    +0.306 P 
ATOM      8  S   UNL     1      10.563   6.013  23.691  0.00  0.00    +0.022 S 
ATOM      9  O   UNL     1       9.931   3.159  24.234  0.00  0.00    -0.302 OA
ATOM     10  O   UNL     1       7.292   0.867  23.232  0.00  0.00    -0.346 OA
ENDROOT
BRANCH   1  18
ATOM     11  N   UNL     1       8.171  -5.598  23.744  0.00  0.00    -0.341 N 
ATOM     12  H   UNL     1       8.998  -5.537  24.325  0.00  0.00    +0.144 HD
ATOM     13  H   UNL     1       7.442  -6.241  24.021  0.00  0.00    +0.144 HD
ATOM     14  C   UNL     1       7.653  -4.360  23.386  0.00  0.00    +0.147 A 
ATOM     15  C   UNL     1       8.408  -3.176  23.370  0.00  0.00    +0.147 A 
ATOM     16  N   UNL     1       9.724  -2.883  23.670  0.00  0.00    -0.231 NA
ATOM     17  C   UNL     1       9.852  -1.592  23.431  0.00  0.00    +0.203 A 
ATOM     18  N   UNL     1       8.689  -1.042  22.968  0.00  0.00    -0.286 N 
ATOM     19  C   UNL     1       7.742  -2.033  22.966  0.00  0.00    +0.167 A 
ATOM     20  N   UNL     1       6.458  -1.920  22.601  0.00  0.00    -0.216 NA
ATOM     21  C   UNL     1       5.831  -3.108  22.667  0.00  0.00    +0.225 A 
ATOM     22  N   UNL     1       6.347  -4.300  23.035  0.00  0.00    -0.219 NA
ENDBRANCH   1  18
BRANCH   2  23
ATOM     23  O   UNL     1       9.765   2.179  21.666  0.00  0.00    -0.385 OA
ATOM     24  H   UNL     1      10.017   1.661  20.877  0.00  0.00    +0.210 HD
ENDBRANCH   2  23
BRANCH   7  25
ATOM     25  O   UNL     1       8.455   4.798  25.400  0.00  0.00    -0.327 OA
ATOM     26  H   UNL     1       8.247   5.697  25.696  0.00  0.00    +0.219 HD
ENDBRANCH   7  25
TORSDOF 3
ENDMDL
MODEL 6
REMARK VINA RESULT:      -6.6      4.931      7.167
REMARK  Name = 
REMARK  3 active torsions:
REMARK  status: ('A' for Active; 'I' for Inactive)
REMARK    1  A    between atoms: N_10  and  C_11
REMARK    2  A    between atoms: P_18  and  O_19
REMARK    3  A    between atoms: C_24  and  O_26
REMARK                            x       y       z     vdW  Elec       q    Type
REMARK                         _______ _______ _______ _____ _____    ______ ____
ROOT
ATOM      1  C   UNL     1       9.152  -1.081  24.407  0.00  0.00    +0.253 C 
ATOM      2  C   UNL     1       9.137   0.298  25.098  0.00  0.00    +0.196 C 
ATOM      3  C   UNL     1       8.263   1.106  24.157  0.00  0.00    +0.191 C 
ATOM      4  C   UNL     1       8.662   0.553  22.805  0.00  0.00    +0.179 C 
ATOM      5  C   UNL     1       9.958   1.141  22.241  0.00  0.00    +0.204 C 
ATOM      6  O   UNL     1      10.210   2.489  22.570  0.00  0.00    -0.308 OA
ATOM      7  P   UNL     1       9.148   3.436  23.302  0.00  0.00    +0.306 P 
ATOM      8  S   UNL     1       9.833   5.070  24.042  0.00  0.00    +0.022 S 
ATOM      9  O   UNL     1       8.393   2.488  24.354  0.00  0.00    -0.302 OA
ATOM     10  O   UNL     1       8.794  -0.866  23.008  0.00  0.00    -0.346 OA
ENDROOT
BRANCH   1  18
ATOM     11  N   UNL     1       6.524  -5.887  26.954  0.00  0.00    -0.341 N 
ATOM     12  H   UNL     1       5.611  -5.452  26.888  0.00  0.00    +0.144 HD
ATOM     13  H   UNL     1       6.583  -6.888  26.826  0.00  0.00    +0.144 HD
ATOM     14  C   UNL     1       7.509  -5.221  26.236  0.00  0.00    +0.147 A 
ATOM     15  C   UNL     1       7.427  -3.865  25.879  0.00  0.00    +0.147 A 
ATOM     16  N   UNL     1       6.477  -2.883  26.080  0.00  0.00    -0.231 NA
ATOM     17  C   UNL     1       6.986  -1.795  25.534  0.00  0.00    +0.203 A 
ATOM     18  N   UNL     1       8.229  -2.021  25.011  0.00  0.00    -0.286 N 
ATOM     19  C   UNL     1       8.507  -3.352  25.183  0.00  0.00    +0.167 A 
ATOM     20  N   UNL     1       9.616  -3.999  24.799  0.00  0.00    -0.216 NA
ATOM     21  C   UNL     1       9.579  -5.288  25.182  0.00  0.00    +0.225 A 
ATOM     22  N   UNL     1       8.604  -5.925  25.865  0.00  0.00    -0.219 NA
ENDBRANCH   1  18
BRANCH   2  23
ATOM     23  O   UNL     1      10.459   0.849  25.148  0.00  0.00    -0.385 OA
ATOM     24  H   UNL     1      10.860   0.718  24.267  0.00  0.00    +0.210 HD
ENDBRANCH   2  23
BRANCH   7  25
ATOM     25  O   UNL     1       8.032   3.630  22.164  0.00  0.00    -0.327 OA
ATOM     26  H   UNL     1       7.311   2.986  22.112  0.00  0.00    +0.219 HD
ENDBRANCH   7  25
TORSDOF 3
ENDMDL
MODEL 7
REMARK VINA RESULT:      -6.6      2.624      3.049
REMARK  Name = 
REMARK  3 active torsions:
REMARK  status: ('A' for Active; 'I' for Inactive)
REMARK    1  A    between atoms: N_10  and  C_11
REMARK    2  A    between atoms: P_18  and  O_19
REMARK    3  A    between atoms: C_24  and  O_26
REMARK                            x       y       z     vdW  Elec       q    Type
REMARK                         _______ _______ _______ _____ _____    ______ ____
ROOT
ATOM      1  C   UNL     1       7.461  -3.405  22.928  0.00  0.00    +0.253 C 
ATOM      2  C   UNL     1       5.968  -3.040  23.043  0.00  0.00    +0.196 C 
ATOM      3  C   UNL     1       5.519  -3.929  24.187  0.00  0.00    +0.191 C 
ATOM      4  C   UNL     1       6.333  -5.182  23.949  0.00  0.00    +0.179 C 
ATOM      5  C   UNL     1       5.755  -6.118  22.885  0.00  0.00    +0.204 C 
ATOM      6  O   UNL     1       4.347  -6.147  22.799  0.00  0.00    -0.308 OA
ATOM      7  P   UNL     1       3.380  -5.431  23.854  0.00  0.00    +0.306 P 
ATOM      8  S   UNL     1       1.547  -5.221  23.321  0.00  0.00    +0.022 S 
ATOM      9  O   UNL     1       4.124  -4.066  24.248  0.00  0.00    -0.302 OA
ATOM     10  O   UNL     1       7.636  -4.710  23.557  0.00  0.00    -0.346 OA
ENDROOT
BRANCH   1  18
ATOM     11  N   UNL     1      10.840   1.409  24.307  0.00  0.00    -0.341 N 
ATOM     12  H   UNL     1      11.173   0.963  25.153  0.00  0.00    +0.144 HD
ATOM     13  H   UNL     1      11.481   2.004  23.801  0.00  0.00    +0.144 HD
ATOM     14  C   UNL     1      10.160   0.548  23.456  0.00  0.00    +0.147 A 
ATOM     15  C   UNL     1       9.546  -0.642  23.882  0.00  0.00    +0.147 A 
ATOM     16  N   UNL     1       9.438  -1.271  25.106  0.00  0.00    -0.231 NA
ATOM     17  C   UNL     1       8.712  -2.348  24.876  0.00  0.00    +0.203 A 
ATOM     18  N   UNL     1       8.327  -2.433  23.567  0.00  0.00    -0.286 N 
ATOM     19  C   UNL     1       8.891  -1.372  22.907  0.00  0.00    +0.167 A 
ATOM     20  N   UNL     1       8.782  -1.084  21.603  0.00  0.00    -0.216 NA
ATOM     21  C   UNL     1       9.415   0.066  21.308  0.00  0.00    +0.225 A 
ATOM     22  N   UNL     1      10.088   0.882  22.146  0.00  0.00    -0.219 NA
ENDBRANCH   1  18
BRANCH   2  23
ATOM     23  O   UNL     1       5.272  -3.387  21.839  0.00  0.00    -0.385 OA
ATOM     24  H   UNL     1       4.501  -2.790  21.768  0.00  0.00    +0.210 HD
ENDBRANCH   2  23
BRANCH   7  25
ATOM     25  O   UNL     1       3.598  -6.325  25.169  0.00  0.00    -0.327 OA
ATOM     26  H   UNL     1       4.066  -5.932  25.920  0.00  0.00    +0.219 HD
ENDBRANCH   7  25
TORSDOF 3
ENDMDL
MODEL 8
REMARK VINA RESULT:      -6.6      4.505      6.404
REMARK  Name = 
REMARK  3 active torsions:
REMARK  status: ('A' for Active; 'I' for Inactive)
REMARK    1  A    between atoms: N_10  and  C_11
REMARK    2  A    between atoms: P_18  and  O_19
REMARK    3  A    between atoms: C_24  and  O_26
REMARK                            x       y       z     vdW  Elec       q    Type
REMARK                         _______ _______ _______ _____ _____    ______ ____
ROOT
ATOM      1  C   UNL     1       8.595  -1.729  24.732  0.00  0.00    +0.253 C 
ATOM      2  C   UNL     1       7.679  -0.703  24.034  0.00  0.00    +0.196 C 
ATOM      3  C   UNL     1       8.587  -0.171  22.941  0.00  0.00    +0.191 C 
ATOM      4  C   UNL     1       9.935  -0.159  23.630  0.00  0.00    +0.179 C 
ATOM      5  C   UNL     1      10.170   1.055  24.532  0.00  0.00    +0.204 C 
ATOM      6  O   UNL     1       9.569   2.258  24.107  0.00  0.00    -0.308 OA
ATOM      7  P   UNL     1       8.858   2.437  22.685  0.00  0.00    +0.306 P 
ATOM      8  S   UNL     1       7.737   3.984  22.484  0.00  0.00    +0.022 S 
ATOM      9  O   UNL     1       8.127   1.038  22.399  0.00  0.00    -0.302 OA
ATOM     10  O   UNL     1       9.971  -1.377  24.397  0.00  0.00    -0.346 OA
ENDROOT
BRANCH   1  18
ATOM     11  N   UNL     1       6.386  -6.748  22.197  0.00  0.00    -0.341 N 
ATOM     12  H   UNL     1       6.978  -7.330  22.777  0.00  0.00    +0.144 HD
ATOM     13  H   UNL     1       5.462  -7.090  21.969  0.00  0.00    +0.144 HD
ATOM     14  C   UNL     1       6.356  -5.418  22.593  0.00  0.00    +0.147 A 
ATOM     15  C   UNL     1       7.370  -4.810  23.352  0.00  0.00    +0.147 A 
ATOM     16  N   UNL     1       8.557  -5.265  23.892  0.00  0.00    -0.231 NA
ATOM     17  C   UNL     1       9.095  -4.211  24.476  0.00  0.00    +0.203 A 
ATOM     18  N   UNL     1       8.324  -3.093  24.320  0.00  0.00    -0.286 N 
ATOM     19  C   UNL     1       7.193  -3.469  23.642  0.00  0.00    +0.167 A 
ATOM     20  N   UNL     1       6.164  -2.684  23.295  0.00  0.00    -0.216 NA
ATOM     21  C   UNL     1       5.252  -3.373  22.584  0.00  0.00    +0.225 A 
ATOM     22  N   UNL     1       5.288  -4.673  22.223  0.00  0.00    -0.219 NA
ENDBRANCH   1  18
BRANCH   2  23
ATOM     23  O   UNL     1       7.321   0.348  24.940  0.00  0.00    -0.385 OA
ATOM     24  H   UNL     1       8.114   0.904  25.065  0.00  0.00    +0.210 HD
ENDBRANCH   2  23
BRANCH   7  25
ATOM     25  O   UNL     1      10.105   2.377  21.676  0.00  0.00    -0.327 OA
ATOM     26  H   UNL     1      10.457   1.509  21.432  0.00  0.00    +0.219 HD
ENDBRANCH   7  25
TORSDOF 3
ENDMDL
MODEL 9
REMARK VINA RESULT:      -6.6      2.926      3.787
REMARK  Name = 
REMARK  3 active torsions:
REMARK  status: ('A' for Active; 'I' for Inactive)
REMARK    1  A    between atoms: N_10  and  C_11
REMARK    2  A    between atoms: P_18  and  O_19
REMARK    3  A    between atoms: C_24  and  O_26
REMARK                            x       y       z     vdW  Elec       q    Type
REMARK                         _______ _______ _______ _____ _____    ______ ____
ROOT
ATOM      1  C   UNL     1       9.200  -0.795  24.533  0.00  0.00    +0.253 C 
ATOM      2  C   UNL     1       8.385  -1.412  23.379  0.00  0.00    +0.196 C 
ATOM      3  C   UNL     1       7.436  -2.329  24.127  0.00  0.00    +0.191 C 
ATOM      4  C   UNL     1       8.310  -2.835  25.254  0.00  0.00    +0.179 C 
ATOM      5  C   UNL     1       9.244  -3.983  24.861  0.00  0.00    +0.204 C 
ATOM      6  O   UNL     1       8.743  -4.870  23.885  0.00  0.00    -0.308 OA
ATOM      7  P   UNL     1       7.235  -4.839  23.351  0.00  0.00    +0.306 P 
ATOM      8  S   UNL     1       6.884  -5.820  21.737  0.00  0.00    +0.022 S 
ATOM      9  O   UNL     1       6.841  -3.286  23.291  0.00  0.00    -0.302 OA
ATOM     10  O   UNL     1       9.067  -1.687  25.680  0.00  0.00    -0.346 OA
ENDROOT
BRANCH   1  18
ATOM     11  N   UNL     1       8.244   5.158  24.913  0.00  0.00    -0.341 N 
ATOM     12  H   UNL     1       7.684   5.039  25.749  0.00  0.00    +0.144 HD
ATOM     13  H   UNL     1       8.823   5.983  24.844  0.00  0.00    +0.144 HD
ATOM     14  C   UNL     1       8.937   4.013  24.541  0.00  0.00    +0.147 A 
ATOM     15  C   UNL     1       8.557   2.716  24.924  0.00  0.00    +0.147 A 
ATOM     16  N   UNL     1       7.527   2.215  25.695  0.00  0.00    -0.231 NA
ATOM     17  C   UNL     1       7.681   0.905  25.664  0.00  0.00    +0.203 A 
ATOM     18  N   UNL     1       8.747   0.535  24.891  0.00  0.00    -0.286 N 
ATOM     19  C   UNL     1       9.346   1.685  24.447  0.00  0.00    +0.167 A 
ATOM     20  N   UNL     1      10.436   1.778  23.673  0.00  0.00    -0.216 NA
ATOM     21  C   UNL     1      10.712   3.062  23.381  0.00  0.00    +0.225 A 
ATOM     22  N   UNL     1      10.037   4.165  23.767  0.00  0.00    -0.219 NA
ENDBRANCH   1  18
BRANCH   2  23
ATOM     23  O   UNL     1       9.236  -2.173  22.513  0.00  0.00    -0.385 OA
ATOM     24  H   UNL     1      10.123  -2.191  22.923  0.00  0.00    +0.210 HD
ENDBRANCH   2  23
BRANCH   7  25
ATOM     25  O   UNL     1       6.414  -5.345  24.635  0.00  0.00    -0.327 OA
ATOM     26  H   UNL     1       6.911  -5.657  25.405  0.00  0.00    +0.219 HD
ENDBRANCH   7  25
TORSDOF 3
ENDMDL
