MODEL 1
REMARK VINA RESULT:      -5.8      0.000      0.000
REMARK  Name = 
REMARK  7 active torsions:
REMARK  status: ('A' for Active; 'I' for Inactive)
REMARK    1  A    between atoms: C_2  and  C_18
REMARK    2  A    between atoms: CA_4  and  C_5
REMARK    3  A    between atoms: C_5  and  O_6
REMARK    4  A    between atoms: C_14  and  O_16
REMARK    5  A    between atoms: O_16  and  C_17
REMARK    6  A    between atoms: C_18  and  C_21
REMARK    7  A    between atoms: C_19  and  C_20
REMARK                            x       y       z     vdW  Elec       q    Type
REMARK                         _______ _______ _______ _____ _____    ______ ____
ROOT
ATOM      1  C   UNL     1       7.407  -1.996  24.563  0.00  0.00    +0.111 C 
ATOM      2  C   UNL     1       6.644  -3.088  23.744  0.00  0.00    +0.044 C 
ATOM      3  C   UNL     1       6.998  -3.223  22.261  0.00  0.00    +0.010 C 
ATOM      4  C   UNL     1       6.369  -4.482  21.659  0.00  0.00    +0.003 C 
ATOM      5  C   UNL     1       6.823  -5.724  22.432  0.00  0.00    +0.036 C 
ATOM      6  C   UNL     1       6.412  -5.663  23.916  0.00  0.00    +0.146 C 
ATOM      7  C   UNL     1       6.923  -4.382  24.506  0.00  0.00    -0.008 C 
ATOM      8  CA  UNL     1       7.645  -4.114  25.610  0.00  0.00    +0.115 C 
ATOM      9  N   UNL     1       8.010  -2.774  25.635  0.00  0.00    -0.331 N 
ATOM     10  H   UNL     1       8.204  -2.367  26.548  0.00  0.00    +0.147 HD
ENDROOT
BRANCH   1  11
ATOM     11  C   UNL     1       8.466  -1.194  23.848  0.00  0.00    +0.008 C 
ATOM     12  C   UNL     1       8.259  -0.068  23.135  0.00  0.00    -0.022 C 
ATOM     13  C   UNL     1       6.964   0.624  22.868  0.00  0.00    +0.035 C 
BRANCH  11  14
ATOM     14  C   UNL     1       9.882  -1.676  23.910  0.00  0.00    +0.256 C 
ATOM     15  O   UNL     1      10.223  -2.827  23.661  0.00  0.00    -0.296 OA
ENDBRANCH  11  14
ENDBRANCH   1  11
BRANCH   6  16
ATOM     16  O   UNL     1       4.994  -5.628  24.095  0.00  0.00    -0.375 OA
ATOM     17  C   UNL     1       4.467  -6.683  24.890  0.00  0.00    +0.194 C 
ENDBRANCH   6  16
BRANCH   8  18
ATOM     18  C   UNL     1       8.112  -5.028  26.697  0.00  0.00    +0.351 C 
ATOM     19  OXT UNL     1       7.397  -5.887  27.188  0.00  0.00    -0.244 OA
BRANCH  18  20
ATOM     20  O   UNL     1       9.411  -4.873  27.020  0.00  0.00    -0.476 OA
ATOM     21  H   UNL     1       9.755  -5.613  27.553  0.00  0.00    +0.295 HD
ENDBRANCH  18  20
ENDBRANCH   8  18
TORSDOF 5
ENDMDL
MODEL 2
REMARK VINA RESULT:      -5.6      1.668      2.375
REMARK  Name = 
REMARK  7 active torsions:
REMARK  status: ('A' for Active; 'I' for Inactive)
REMARK    1  A    between atoms: C_2  and  C_18
REMARK    2  A    between atoms: CA_4  and  C_5
REMARK    3  A    between atoms: C_5  and  O_6
REMARK    4  A    between atoms: C_14  and  O_16
REMARK    5  A    between atoms: O_16  and  C_17
REMARK    6  A    between atoms: C_18  and  C_21
REMARK    7  A    between atoms: C_19  and  C_20
REMARK                            x       y       z     vdW  Elec       q    Type
REMARK                         _______ _______ _______ _____ _____    ______ ____
ROOT
ATOM      1  C   UNL     1       7.280  -3.423  24.867  0.00  0.00    +0.111 C 
ATOM      2  C   UNL     1       6.478  -3.860  23.597  0.00  0.00    +0.044 C 
ATOM      3  C   UNL     1       7.283  -4.146  22.327  0.00  0.00    +0.010 C 
ATOM      4  C   UNL     1       6.406  -4.801  21.257  0.00  0.00    +0.003 C 
ATOM      5  C   UNL     1       5.783  -6.093  21.799  0.00  0.00    +0.036 C 
ATOM      6  C   UNL     1       4.898  -5.834  23.033  0.00  0.00    +0.146 C 
ATOM      7  C   UNL     1       5.703  -5.093  24.059  0.00  0.00    -0.008 C 
ATOM      8  CA  UNL     1       5.930  -5.310  25.367  0.00  0.00    +0.115 C 
ATOM      9  N   UNL     1       6.888  -4.426  25.845  0.00  0.00    -0.331 N 
ATOM     10  H   UNL     1       6.869  -4.223  26.843  0.00  0.00    +0.147 HD
ENDROOT
BRANCH   1  11
ATOM     11  C   UNL     1       8.784  -3.364  24.761  0.00  0.00    +0.008 C 
ATOM     12  C   UNL     1       9.506  -2.314  24.318  0.00  0.00    -0.022 C 
ATOM     13  C   UNL     1       9.003  -1.002  23.816  0.00  0.00    +0.035 C 
BRANCH  11  14
ATOM     14  C   UNL     1       9.570  -4.571  25.168  0.00  0.00    +0.256 C 
ATOM     15  O   UNL     1       9.430  -5.679  24.662  0.00  0.00    -0.296 OA
ENDBRANCH  11  14
ENDBRANCH   1  11
BRANCH   6  16
ATOM     16  O   UNL     1       3.779  -4.992  22.743  0.00  0.00    -0.375 OA
ATOM     17  C   UNL     1       2.575  -5.348  23.410  0.00  0.00    +0.194 C 
ENDBRANCH   6  16
BRANCH   8  18
ATOM     18  C   UNL     1       5.359  -6.347  26.280  0.00  0.00    +0.351 C 
ATOM     19  OXT UNL     1       4.356  -6.988  26.006  0.00  0.00    -0.244 OA
BRANCH  18  20
ATOM     20  O   UNL     1       6.096  -6.566  27.387  0.00  0.00    -0.476 OA
ATOM     21  H   UNL     1       7.035  -6.335  27.263  0.00  0.00    +0.295 HD
ENDBRANCH  18  20
ENDBRANCH   8  18
TORSDOF 5
ENDMDL
MODEL 3
REMARK VINA RESULT:      -5.6      2.131      4.986
REMARK  Name = 
REMARK  7 active torsions:
REMARK  status: ('A' for Active; 'I' for Inactive)
REMARK    1  A    between atoms: C_2  and  C_18
REMARK    2  A    between atoms: CA_4  and  C_5
REMARK    3  A    between atoms: C_5  and  O_6
REMARK    4  A    between atoms: C_14  and  O_16
REMARK    5  A    between atoms: O_16  and  C_17
REMARK    6  A    between atoms: C_18  and  C_21
REMARK    7  A    between atoms: C_19  and  C_20
REMARK                            x       y       z     vdW  Elec       q    Type
REMARK                         _______ _______ _______ _____ _____    ______ ____
ROOT
ATOM      1  C   UNL     1       5.907  -3.783  23.318  0.00  0.00    +0.111 C 
ATOM      2  C   UNL     1       6.509  -3.833  24.760  0.00  0.00    +0.044 C 
ATOM      3  C   UNL     1       6.559  -5.200  25.449  0.00  0.00    +0.010 C 
ATOM      4  C   UNL     1       7.394  -5.139  26.730  0.00  0.00    +0.003 C 
ATOM      5  C   UNL     1       8.810  -4.645  26.418  0.00  0.00    +0.036 C 
ATOM      6  C   UNL     1       8.807  -3.235  25.797  0.00  0.00    +0.146 C 
ATOM      7  C   UNL     1       7.906  -3.237  24.597  0.00  0.00    -0.008 C 
ATOM      8  CA  UNL     1       8.084  -2.834  23.326  0.00  0.00    +0.115 C 
ATOM      9  N   UNL     1       6.995  -3.202  22.545  0.00  0.00    -0.331 N 
ATOM     10  H   UNL     1       6.822  -2.649  21.708  0.00  0.00    +0.147 HD
ENDROOT
BRANCH   1  11
ATOM     11  C   UNL     1       5.468  -5.084  22.694  0.00  0.00    +0.008 C 
ATOM     12  C   UNL     1       4.285  -5.699  22.896  0.00  0.00    -0.022 C 
ATOM     13  C   UNL     1       3.164  -5.264  23.780  0.00  0.00    +0.035 C 
BRANCH  11  14
ATOM     14  C   UNL     1       6.418  -5.783  21.772  0.00  0.00    +0.256 C 
ATOM     15  O   UNL     1       7.523  -6.193  22.112  0.00  0.00    -0.296 OA
ENDBRANCH  11  14
ENDBRANCH   1  11
BRANCH   6  16
ATOM     16  O   UNL     1       8.270  -2.246  26.678  0.00  0.00    -0.375 OA
ATOM     17  C   UNL     1       8.761  -0.928  26.465  0.00  0.00    +0.194 C 
ENDBRANCH   6  16
BRANCH   8  18
ATOM     18  C   UNL     1       9.248  -2.143  22.693  0.00  0.00    +0.351 C 
ATOM     19  OXT UNL     1      10.407  -2.445  22.935  0.00  0.00    -0.244 OA
BRANCH  18  20
ATOM     20  O   UNL     1       8.901  -1.220  21.773  0.00  0.00    -0.476 OA
ATOM     21  H   UNL     1       8.223  -0.602  22.101  0.00  0.00    +0.295 HD
ENDBRANCH  18  20
ENDBRANCH   8  18
TORSDOF 5
ENDMDL
MODEL 4
REMARK VINA RESULT:      -5.5      2.276      5.432
REMARK  Name = 
REMARK  7 active torsions:
REMARK  status: ('A' for Active; 'I' for Inactive)
REMARK    1  A    between atoms: C_2  and  C_18
REMARK    2  A    between atoms: CA_4  and  C_5
REMARK    3  A    between atoms: C_5  and  O_6
REMARK    4  A    between atoms: C_14  and  O_16
REMARK    5  A    between atoms: O_16  and  C_17
REMARK    6  A    between atoms: C_18  and  C_21
REMARK    7  A    between atoms: C_19  and  C_20
REMARK                            x       y       z     vdW  Elec       q    Type
REMARK                         _______ _______ _______ _____ _____    ______ ____
ROOT
ATOM      1  C   UNL     1       6.502  -3.399  22.790  0.00  0.00    +0.111 C 
ATOM      2  C   UNL     1       6.131  -2.017  23.419  0.00  0.00    +0.044 C 
ATOM      3  C   UNL     1       5.683  -2.013  24.883  0.00  0.00    +0.010 C 
ATOM      4  C   UNL     1       5.602  -0.586  25.430  0.00  0.00    +0.003 C 
ATOM      5  C   UNL     1       6.956   0.117  25.283  0.00  0.00    +0.036 C 
ATOM      6  C   UNL     1       7.404   0.206  23.811  0.00  0.00    +0.146 C 
ATOM      7  C   UNL     1       7.387  -1.171  23.216  0.00  0.00    -0.008 C 
ATOM      8  CA  UNL     1       8.304  -1.876  22.531  0.00  0.00    +0.115 C 
ATOM      9  N   UNL     1       7.868  -3.181  22.338  0.00  0.00    -0.331 N 
ATOM     10  H   UNL     1       8.256  -3.683  21.542  0.00  0.00    +0.147 HD
ENDROOT
BRANCH   1  11
ATOM     11  C   UNL     1       6.439  -4.615  23.679  0.00  0.00    +0.008 C 
ATOM     12  C   UNL     1       5.370  -5.420  23.848  0.00  0.00    -0.022 C 
ATOM     13  C   UNL     1       4.018  -5.289  23.228  0.00  0.00    +0.035 C 
BRANCH  11  14
ATOM     14  C   UNL     1       7.659  -4.979  24.468  0.00  0.00    +0.256 C 
ATOM     15  O   UNL     1       8.708  -5.363  23.964  0.00  0.00    -0.296 OA
ENDBRANCH  11  14
ENDBRANCH   1  11
BRANCH   6  16
ATOM     16  O   UNL     1       6.510   0.981  23.009  0.00  0.00    -0.375 OA
ATOM     17  C   UNL     1       7.144   1.876  22.103  0.00  0.00    +0.194 C 
ENDBRANCH   6  16
BRANCH   8  18
ATOM     18  C   UNL     1       9.657  -1.469  22.039  0.00  0.00    +0.351 C 
ATOM     19  OXT UNL     1      10.692  -1.915  22.510  0.00  0.00    -0.244 OA
BRANCH  18  20
ATOM     20  O   UNL     1       9.625  -0.637  20.979  0.00  0.00    -0.476 OA
ATOM     21  H   UNL     1       8.883  -0.826  20.377  0.00  0.00    +0.295 HD
ENDBRANCH  18  20
ENDBRANCH   8  18
TORSDOF 5
ENDMDL
MODEL 5
REMARK VINA RESULT:      -5.3      2.268      3.684
REMARK  Name = 
REMARK  7 active torsions:
REMARK  status: ('A' for Active; 'I' for Inactive)
REMARK    1  A    between atoms: C_2  and  C_18
REMARK    2  A    between atoms: CA_4  and  C_5
REMARK    3  A    between atoms: C_5  and  O_6
REMARK    4  A    between atoms: C_14  and  O_16
REMARK    5  A    between atoms: O_16  and  C_17
REMARK    6  A    between atoms: C_18  and  C_21
REMARK    7  A    between atoms: C_19  and  C_20
REMARK                            x       y       z     vdW  Elec       q    Type
REMARK                         _______ _______ _______ _____ _____    ______ ____
ROOT
ATOM      1  C   UNL     1       7.274  -1.391  22.615  0.00  0.00    +0.111 C 
ATOM      2  C   UNL     1       8.135  -2.623  23.048  0.00  0.00    +0.044 C 
ATOM      3  C   UNL     1       9.204  -2.387  24.117  0.00  0.00    +0.010 C 
ATOM      4  C   UNL     1       9.783  -3.712  24.618  0.00  0.00    +0.003 C 
ATOM      5  C   UNL     1       8.666  -4.606  25.166  0.00  0.00    +0.036 C 
ATOM      6  C   UNL     1       7.609  -4.934  24.094  0.00  0.00    +0.146 C 
ATOM      7  C   UNL     1       7.102  -3.651  23.507  0.00  0.00    -0.008 C 
ATOM      8  CA  UNL     1       5.861  -3.166  23.314  0.00  0.00    +0.115 C 
ATOM      9  N   UNL     1       5.918  -1.848  22.882  0.00  0.00    -0.331 N 
ATOM     10  H   UNL     1       5.122  -1.504  22.348  0.00  0.00    +0.147 HD
ENDROOT
BRANCH   1  11
ATOM     11  C   UNL     1       7.525  -0.079  23.314  0.00  0.00    +0.008 C 
ATOM     12  C   UNL     1       8.435   0.849  22.955  0.00  0.00    -0.022 C 
ATOM     13  C   UNL     1       9.405   0.791  21.822  0.00  0.00    +0.035 C 
BRANCH  11  14
ATOM     14  C   UNL     1       6.710   0.244  24.528  0.00  0.00    +0.256 C 
ATOM     15  O   UNL     1       5.533   0.586  24.489  0.00  0.00    -0.296 OA
ENDBRANCH  11  14
ENDBRANCH   1  11
BRANCH   6  16
ATOM     16  O   UNL     1       8.150  -5.671  22.995  0.00  0.00    -0.375 OA
ATOM     17  C   UNL     1       7.187  -6.137  22.058  0.00  0.00    +0.194 C 
ENDBRANCH   6  16
BRANCH   8  18
ATOM     18  C   UNL     1       4.533  -3.811  23.548  0.00  0.00    +0.351 C 
ATOM     19  OXT UNL     1       3.824  -3.535  24.503  0.00  0.00    -0.244 OA
BRANCH  18  20
ATOM     20  O   UNL     1       4.156  -4.657  22.568  0.00  0.00    -0.476 OA
ATOM     21  H   UNL     1       4.448  -5.572  22.731  0.00  0.00    +0.295 HD
ENDBRANCH  18  20
ENDBRANCH   8  18
TORSDOF 5
ENDMDL
MODEL 6
REMARK VINA RESULT:      -5.2      2.300      5.617
REMARK  Name = 
REMARK  7 active torsions:
REMARK  status: ('A' for Active; 'I' for Inactive)
REMARK    1  A    between atoms: C_2  and  C_18
REMARK    2  A    between atoms: CA_4  and  C_5
REMARK    3  A    between atoms: C_5  and  O_6
REMARK    4  A    between atoms: C_14  and  O_16
REMARK    5  A    between atoms: O_16  and  C_17
REMARK    6  A    between atoms: C_18  and  C_21
REMARK    7  A    between atoms: C_19  and  C_20
REMARK                            x       y       z     vdW  Elec       q    Type
REMARK                         _______ _______ _______ _____ _____    ______ ____
ROOT
ATOM      1  C   UNL     1       4.773  -4.647  25.472  0.00  0.00    +0.111 C 
ATOM      2  C   UNL     1       6.293  -4.301  25.602  0.00  0.00    +0.044 C 
ATOM      3  C   UNL     1       7.085  -5.029  26.691  0.00  0.00    +0.010 C 
ATOM      4  C   UNL     1       8.588  -4.784  26.534  0.00  0.00    +0.003 C 
ATOM      5  C   UNL     1       9.055  -5.228  25.143  0.00  0.00    +0.036 C 
ATOM      6  C   UNL     1       8.337  -4.458  24.019  0.00  0.00    +0.146 C 
ATOM      7  C   UNL     1       6.856  -4.590  24.212  0.00  0.00    -0.008 C 
ATOM      8  CA  UNL     1       5.861  -4.961  23.386  0.00  0.00    +0.115 C 
ATOM      9  N   UNL     1       4.669  -5.084  24.088  0.00  0.00    -0.331 N 
ATOM     10  H   UNL     1       3.808  -4.976  23.556  0.00  0.00    +0.147 HD
ENDROOT
BRANCH   1  11
ATOM     11  C   UNL     1       4.214  -5.704  26.391  0.00  0.00    +0.008 C 
ATOM     12  C   UNL     1       3.608  -5.483  27.577  0.00  0.00    -0.022 C 
ATOM     13  C   UNL     1       3.374  -4.176  28.257  0.00  0.00    +0.035 C 
BRANCH  11  14
ATOM     14  C   UNL     1       4.338  -7.138  25.980  0.00  0.00    +0.256 C 
ATOM     15  O   UNL     1       3.813  -7.609  24.977  0.00  0.00    -0.296 OA
ENDBRANCH  11  14
ENDBRANCH   1  11
BRANCH   6  16
ATOM     16  O   UNL     1       8.605  -3.054  24.054  0.00  0.00    -0.375 OA
ATOM     17  C   UNL     1       8.506  -2.396  22.797  0.00  0.00    +0.194 C 
ENDBRANCH   6  16
BRANCH   8  18
ATOM     18  C   UNL     1       5.896  -5.287  21.927  0.00  0.00    +0.351 C 
ATOM     19  OXT UNL     1       5.824  -4.432  21.058  0.00  0.00    -0.244 OA
BRANCH  18  20
ATOM     20  O   UNL     1       6.100  -6.593  21.664  0.00  0.00    -0.476 OA
ATOM     21  H   UNL     1       7.037  -6.849  21.740  0.00  0.00    +0.295 HD
ENDBRANCH  18  20
ENDBRANCH   8  18
TORSDOF 5
ENDMDL
MODEL 7
REMARK VINA RESULT:      -5.2      2.425      3.105
REMARK  Name = 
REMARK  7 active torsions:
REMARK  status: ('A' for Active; 'I' for Inactive)
REMARK    1  A    between atoms: C_2  and  C_18
REMARK    2  A    between atoms: CA_4  and  C_5
REMARK    3  A    between atoms: C_5  and  O_6
REMARK    4  A    between atoms: C_14  and  O_16
REMARK    5  A    between atoms: O_16  and  C_17
REMARK    6  A    between atoms: C_18  and  C_21
REMARK    7  A    between atoms: C_19  and  C_20
REMARK                            x       y       z     vdW  Elec       q    Type
REMARK                         _______ _______ _______ _____ _____    ______ ____
ROOT
ATOM      1  C   UNL     1       9.613  -1.411  24.538  0.00  0.00    +0.111 C 
ATOM      2  C   UNL     1       8.163  -1.323  25.117  0.00  0.00    +0.044 C 
ATOM      3  C   UNL     1       7.161  -0.445  24.363  0.00  0.00    +0.010 C 
ATOM      4  C   UNL     1       5.740  -0.656  24.890  0.00  0.00    +0.003 C 
ATOM      5  C   UNL     1       5.347  -2.133  24.780  0.00  0.00    +0.036 C 
ATOM      6  C   UNL     1       6.286  -3.044  25.594  0.00  0.00    +0.146 C 
ATOM      7  C   UNL     1       7.701  -2.778  25.174  0.00  0.00    -0.008 C 
ATOM      8  CA  UNL     1       8.700  -3.589  24.781  0.00  0.00    +0.115 C 
ATOM      9  N   UNL     1       9.782  -2.842  24.333  0.00  0.00    -0.331 N 
ATOM     10  H   UNL     1      10.698  -3.285  24.379  0.00  0.00    +0.147 HD
ENDROOT
BRANCH   1  11
ATOM     11  C   UNL     1       9.904  -0.668  23.258  0.00  0.00    +0.008 C 
ATOM     12  C   UNL     1      10.286   0.622  23.160  0.00  0.00    -0.022 C 
ATOM     13  C   UNL     1      10.485   1.605  24.265  0.00  0.00    +0.035 C 
BRANCH  11  14
ATOM     14  C   UNL     1       9.750  -1.403  21.962  0.00  0.00    +0.256 C 
ATOM     15  O   UNL     1       8.737  -2.015  21.640  0.00  0.00    -0.296 OA
ENDBRANCH  11  14
ENDBRANCH   1  11
BRANCH   6  16
ATOM     16  O   UNL     1       6.244  -2.767  26.996  0.00  0.00    -0.375 OA
ATOM     17  C   UNL     1       5.038  -3.150  27.644  0.00  0.00    +0.194 C 
ENDBRANCH   6  16
BRANCH   8  18
ATOM     18  C   UNL     1       8.758  -5.082  24.722  0.00  0.00    +0.351 C 
ATOM     19  OXT UNL     1       8.633  -5.706  23.680  0.00  0.00    -0.244 OA
BRANCH  18  20
ATOM     20  O   UNL     1       9.043  -5.665  25.903  0.00  0.00    -0.476 OA
ATOM     21  H   UNL     1       9.531  -6.502  25.799  0.00  0.00    +0.295 HD
ENDBRANCH  18  20
ENDBRANCH   8  18
TORSDOF 5
ENDMDL
MODEL 8
REMARK VINA RESULT:      -5.2      2.968      6.136
REMARK  Name = 
REMARK  7 active torsions:
REMARK  status: ('A' for Active; 'I' for Inactive)
REMARK    1  A    between atoms: C_2  and  C_18
REMARK    2  A    between atoms: CA_4  and  C_5
REMARK    3  A    between atoms: C_5  and  O_6
REMARK    4  A    between atoms: C_14  and  O_16
REMARK    5  A    between atoms: O_16  and  C_17
REMARK    6  A    between atoms: C_18  and  C_21
REMARK    7  A    between atoms: C_19  and  C_20
REMARK                            x       y       z     vdW  Elec       q    Type
REMARK                         _______ _______ _______ _____ _____    ______ ____
ROOT
ATOM      1  C   UNL     1       8.006  -1.332  22.366  0.00  0.00    +0.111 C 
ATOM      2  C   UNL     1       6.969  -0.408  23.084  0.00  0.00    +0.044 C 
ATOM      3  C   UNL     1       6.318  -0.948  24.361  0.00  0.00    +0.010 C 
ATOM      4  C   UNL     1       5.532   0.149  25.082  0.00  0.00    +0.003 C 
ATOM      5  C   UNL     1       6.448   1.333  25.408  0.00  0.00    +0.036 C 
ATOM      6  C   UNL     1       7.059   1.957  24.138  0.00  0.00    +0.146 C 
ATOM      7  C   UNL     1       7.746   0.879  23.353  0.00  0.00    -0.008 C 
ATOM      8  CA  UNL     1       8.982   0.782  22.831  0.00  0.00    +0.115 C 
ATOM      9  N   UNL     1       9.197  -0.496  22.329  0.00  0.00    -0.331 N 
ATOM     10  H   UNL     1       9.895  -0.590  21.595  0.00  0.00    +0.147 HD
ENDROOT
BRANCH   1  11
ATOM     11  C   UNL     1       8.326  -2.659  23.007  0.00  0.00    +0.008 C 
ATOM     12  C   UNL     1       7.649  -3.811  22.823  0.00  0.00    -0.022 C 
ATOM     13  C   UNL     1       6.438  -4.038  21.982  0.00  0.00    +0.035 C 
BRANCH  11  14
ATOM     14  C   UNL     1       9.490  -2.729  23.947  0.00  0.00    +0.256 C 
ATOM     15  O   UNL     1       9.644  -1.973  24.900  0.00  0.00    -0.296 OA
ENDBRANCH  11  14
ENDBRANCH   1  11
BRANCH   6  16
ATOM     16  O   UNL     1       6.071   2.501  23.260  0.00  0.00    -0.375 OA
ATOM     17  C   UNL     1       6.560   3.462  22.334  0.00  0.00    +0.194 C 
ENDBRANCH   6  16
BRANCH   8  18
ATOM     18  C   UNL     1      10.085   1.790  22.782  0.00  0.00    +0.351 C 
ATOM     19  OXT UNL     1      10.782   2.053  23.749  0.00  0.00    -0.244 OA
BRANCH  18  20
ATOM     20  O   UNL     1      10.292   2.314  21.557  0.00  0.00    -0.476 OA
ATOM     21  H   UNL     1      11.073   2.897  21.527  0.00  0.00    +0.295 HD
ENDBRANCH  18  20
ENDBRANCH   8  18
TORSDOF 5
ENDMDL
MODEL 9
REMARK VINA RESULT:      -5.1      2.649      4.205
REMARK  Name = 
REMARK  7 active torsions:
REMARK  status: ('A' for Active; 'I' for Inactive)
REMARK    1  A    between atoms: C_2  and  C_18
REMARK    2  A    between atoms: CA_4  and  C_5
REMARK    3  A    between atoms: C_5  and  O_6
REMARK    4  A    between atoms: C_14  and  O_16
REMARK    5  A    between atoms: O_16  and  C_17
REMARK    6  A    between atoms: C_18  and  C_21
REMARK    7  A    between atoms: C_19  and  C_20
REMARK                            x       y       z     vdW  Elec       q    Type
REMARK                         _______ _______ _______ _____ _____    ______ ____
ROOT
ATOM      1  C   UNL     1       7.169   1.255  23.959  0.00  0.00    +0.111 C 
ATOM      2  C   UNL     1       7.739   0.185  22.972  0.00  0.00    +0.044 C 
ATOM      3  C   UNL     1       8.743   0.666  21.922  0.00  0.00    +0.010 C 
ATOM      4  C   UNL     1       9.399  -0.517  21.205  0.00  0.00    +0.003 C 
ATOM      5  C   UNL     1      10.085  -1.438  22.220  0.00  0.00    +0.036 C 
ATOM      6  C   UNL     1       9.089  -2.010  23.247  0.00  0.00    +0.146 C 
ATOM      7  C   UNL     1       8.351  -0.873  23.889  0.00  0.00    -0.008 C 
ATOM      8  CA  UNL     1       8.126  -0.545  25.175  0.00  0.00    +0.115 C 
ATOM      9  N   UNL     1       7.524   0.704  25.258  0.00  0.00    -0.331 N 
ATOM     10  H   UNL     1       6.969   0.893  26.090  0.00  0.00    +0.147 HD
ENDROOT
BRANCH   1  11
ATOM     11  C   UNL     1       7.685   2.667  23.837  0.00  0.00    +0.008 C 
ATOM     12  C   UNL     1       7.135   3.652  23.097  0.00  0.00    -0.022 C 
ATOM     13  C   UNL     1       5.927   3.575  22.224  0.00  0.00    +0.035 C 
BRANCH  11  14
ATOM     14  C   UNL     1       8.929   3.033  24.587  0.00  0.00    +0.256 C 
ATOM     15  O   UNL     1       9.987   2.422  24.495  0.00  0.00    -0.296 OA
ENDBRANCH  11  14
ENDBRANCH   1  11
BRANCH   6  16
ATOM     16  O   UNL     1       8.083  -2.827  22.644  0.00  0.00    -0.375 OA
ATOM     17  C   UNL     1       7.814  -4.045  23.328  0.00  0.00    +0.194 C 
ENDBRANCH   6  16
BRANCH   8  18
ATOM     18  C   UNL     1       8.472  -1.284  26.428  0.00  0.00    +0.351 C 
ATOM     19  OXT UNL     1       8.257  -2.477  26.571  0.00  0.00    -0.244 OA
BRANCH  18  20
ATOM     20  O   UNL     1       9.116  -0.533  27.344  0.00  0.00    -0.476 OA
ATOM     21  H   UNL     1       9.654  -1.069  27.955  0.00  0.00    +0.295 HD
ENDBRANCH  18  20
ENDBRANCH   8  18
TORSDOF 5
ENDMDL
