MODEL 1
REMARK VINA RESULT:      -6.1      0.000      0.000
REMARK  Name = 
REMARK  3 active torsions:
REMARK  status: ('A' for Active; 'I' for Inactive)
REMARK    1  A    between atoms: O_1  and  C_2
REMARK    2  A    between atoms: C_3  and  O_4
REMARK    3  A    between atoms: O_4  and  C_5
REMARK                            x       y       z     vdW  Elec       q    Type
REMARK                         _______ _______ _______ _____ _____    ______ ____
ROOT
ATOM      1  C   UNL     1      10.041  -0.886  22.545  0.00  0.00    +0.160 A 
ATOM      2  C   UNL     1       9.907   0.494  22.414  0.00  0.00    +0.069 A 
ATOM      3  C   UNL     1       9.741   1.271  23.558  0.00  0.00    +0.045 A 
ATOM      4 CL   UNL     1       9.516   2.970  23.415  0.00  0.00    -0.083 Cl
ATOM      5  C   UNL     1       9.750   0.681  24.824  0.00  0.00    +0.024 A 
ATOM      6  C   UNL     1       9.909  -0.701  24.949  0.00  0.00    +0.051 A 
ATOM      7  C   UNL     1       9.997  -1.494  23.802  0.00  0.00    +0.170 A 
ENDROOT
BRANCH   1   8
ATOM      8  O   UNL     1      10.200  -1.621  21.404  0.00  0.00    -0.503 OA
ATOM      9  H   UNL     1       9.714  -1.157  20.699  0.00  0.00    +0.292 HD
ENDBRANCH   1   8
BRANCH   7  10
ATOM     10  O   UNL     1      10.092  -2.868  23.845  0.00  0.00    -0.452 OA
BRANCH  10  11
ATOM     11  C   UNL     1       9.026  -3.603  24.320  0.00  0.00    +0.129 A 
ATOM     12  C   UNL     1       9.304  -4.454  25.392  0.00  0.00    +0.048 A 
ATOM     13  C   UNL     1       8.292  -5.241  25.950  0.00  0.00    +0.023 A 
ATOM     14  C   UNL     1       6.999  -5.171  25.434  0.00  0.00    +0.041 A 
ATOM     15 CL   UNL     1       5.744  -6.117  26.132  0.00  0.00    -0.084 Cl
ATOM     16  C   UNL     1       6.717  -4.343  24.350  0.00  0.00    +0.023 A 
ATOM     17  C   UNL     1       7.737  -3.580  23.775  0.00  0.00    +0.048 A 
ENDBRANCH  10  11
ENDBRANCH   7  10
TORSDOF 3
ENDMDL
MODEL 2
REMARK VINA RESULT:      -6.0      0.864      6.062
REMARK  Name = 
REMARK  3 active torsions:
REMARK  status: ('A' for Active; 'I' for Inactive)
REMARK    1  A    between atoms: O_1  and  C_2
REMARK    2  A    between atoms: C_3  and  O_4
REMARK    3  A    between atoms: O_4  and  C_5
REMARK                            x       y       z     vdW  Elec       q    Type
REMARK                         _______ _______ _______ _____ _____    ______ ____
ROOT
ATOM      1  C   UNL     1       9.267  -4.869  25.143  0.00  0.00    +0.160 A 
ATOM      2  C   UNL     1       8.255  -5.551  25.811  0.00  0.00    +0.069 A 
ATOM      3  C   UNL     1       6.937  -5.127  25.660  0.00  0.00    +0.045 A 
ATOM      4 CL   UNL     1       5.677  -5.920  26.522  0.00  0.00    -0.083 Cl
ATOM      5  C   UNL     1       6.627  -4.057  24.817  0.00  0.00    +0.024 A 
ATOM      6  C   UNL     1       7.646  -3.393  24.131  0.00  0.00    +0.051 A 
ATOM      7  C   UNL     1       8.977  -3.763  24.339  0.00  0.00    +0.170 A 
ENDROOT
BRANCH   1   8
ATOM      8  O   UNL     1      10.551  -5.308  25.312  0.00  0.00    -0.503 OA
ATOM      9  H   UNL     1      11.106  -4.798  24.695  0.00  0.00    +0.292 HD
ENDBRANCH   1   8
BRANCH   7  10
ATOM     10  O   UNL     1      10.038  -3.115  23.746  0.00  0.00    -0.452 OA
BRANCH  10  11
ATOM     11  C   UNL     1       9.976  -1.748  23.565  0.00  0.00    +0.129 A 
ATOM     12  C   UNL     1       9.955  -1.312  22.238  0.00  0.00    +0.048 A 
ATOM     13  C   UNL     1       9.890   0.054  21.945  0.00  0.00    +0.023 A 
ATOM     14  C   UNL     1       9.843   0.982  22.984  0.00  0.00    +0.041 A 
ATOM     15 CL   UNL     1       9.737   2.661  22.631  0.00  0.00    -0.084 Cl
ATOM     16  C   UNL     1       9.888   0.557  24.310  0.00  0.00    +0.023 A 
ATOM     17  C   UNL     1       9.983  -0.806  24.600  0.00  0.00    +0.048 A 
ENDBRANCH  10  11
ENDBRANCH   7  10
TORSDOF 3
ENDMDL
MODEL 3
REMARK VINA RESULT:      -6.0      1.300      5.999
REMARK  Name = 
REMARK  3 active torsions:
REMARK  status: ('A' for Active; 'I' for Inactive)
REMARK    1  A    between atoms: O_1  and  C_2
REMARK    2  A    between atoms: C_3  and  O_4
REMARK    3  A    between atoms: O_4  and  C_5
REMARK                            x       y       z     vdW  Elec       q    Type
REMARK                         _______ _______ _______ _____ _____    ______ ____
ROOT
ATOM      1  C   UNL     1       8.691  -3.622  24.052  0.00  0.00    +0.160 A 
ATOM      2  C   UNL     1       7.539  -4.223  24.552  0.00  0.00    +0.069 A 
ATOM      3  C   UNL     1       6.296  -3.777  24.111  0.00  0.00    +0.045 A 
ATOM      4 CL   UNL     1       4.859  -4.467  24.758  0.00  0.00    -0.083 Cl
ATOM      5  C   UNL     1       6.203  -2.768  23.150  0.00  0.00    +0.024 A 
ATOM      6  C   UNL     1       7.364  -2.186  22.636  0.00  0.00    +0.051 A 
ATOM      7  C   UNL     1       8.611  -2.574  23.131  0.00  0.00    +0.170 A 
ENDROOT
BRANCH   1   8
ATOM      8  O   UNL     1       9.897  -4.080  24.505  0.00  0.00    -0.503 OA
ATOM      9  H   UNL     1       9.772  -4.324  25.439  0.00  0.00    +0.292 HD
ENDBRANCH   1   8
BRANCH   7  10
ATOM     10  O   UNL     1       9.794  -2.002  22.717  0.00  0.00    -0.452 OA
BRANCH  10  11
ATOM     11  C   UNL     1       9.963  -0.639  22.844  0.00  0.00    +0.129 A 
ATOM     12  C   UNL     1      10.314  -0.186  24.118  0.00  0.00    +0.048 A 
ATOM     13  C   UNL     1      10.512   1.178  24.353  0.00  0.00    +0.023 A 
ATOM     14  C   UNL     1      10.361   2.088  23.308  0.00  0.00    +0.041 A 
ATOM     15 CL   UNL     1      10.628   3.764  23.585  0.00  0.00    -0.084 Cl
ATOM     16  C   UNL     1       9.986   1.649  22.041  0.00  0.00    +0.023 A 
ATOM     17  C   UNL     1       9.760   0.288  21.815  0.00  0.00    +0.048 A 
ENDBRANCH  10  11
ENDBRANCH   7  10
TORSDOF 3
ENDMDL
MODEL 4
REMARK VINA RESULT:      -5.9      1.248      6.110
REMARK  Name = 
REMARK  3 active torsions:
REMARK  status: ('A' for Active; 'I' for Inactive)
REMARK    1  A    between atoms: O_1  and  C_2
REMARK    2  A    between atoms: C_3  and  O_4
REMARK    3  A    between atoms: O_4  and  C_5
REMARK                            x       y       z     vdW  Elec       q    Type
REMARK                         _______ _______ _______ _____ _____    ______ ____
ROOT
ATOM      1  C   UNL     1       8.690  -3.598  24.013  0.00  0.00    +0.160 A 
ATOM      2  C   UNL     1       7.600  -4.230  24.604  0.00  0.00    +0.069 A 
ATOM      3  C   UNL     1       6.313  -3.855  24.227  0.00  0.00    +0.045 A 
ATOM      4 CL   UNL     1       4.951  -4.581  24.986  0.00  0.00    -0.083 Cl
ATOM      5  C   UNL     1       6.115  -2.887  23.239  0.00  0.00    +0.024 A 
ATOM      6  C   UNL     1       7.215  -2.275  22.634  0.00  0.00    +0.051 A 
ATOM      7  C   UNL     1       8.507  -2.590  23.063  0.00  0.00    +0.170 A 
ENDROOT
BRANCH   1   8
ATOM      8  O   UNL     1       9.941  -3.987  24.405  0.00  0.00    -0.503 OA
ATOM      9  H   UNL     1      10.019  -3.771  25.352  0.00  0.00    +0.292 HD
ENDBRANCH   1   8
BRANCH   7  10
ATOM     10  O   UNL     1       9.635  -1.983  22.556  0.00  0.00    -0.452 OA
BRANCH  10  11
ATOM     11  C   UNL     1       9.886  -0.663  22.867  0.00  0.00    +0.129 A 
ATOM     12  C   UNL     1       9.737   0.247  21.817  0.00  0.00    +0.048 A 
ATOM     13  C   UNL     1       9.965   1.610  22.026  0.00  0.00    +0.023 A 
ATOM     14  C   UNL     1      10.340   2.062  23.291  0.00  0.00    +0.041 A 
ATOM     15 CL   UNL     1      10.596   3.740  23.561  0.00  0.00    -0.084 Cl
ATOM     16  C   UNL     1      10.515   1.160  24.337  0.00  0.00    +0.023 A 
ATOM     17  C   UNL     1      10.315  -0.206  24.118  0.00  0.00    +0.048 A 
ENDBRANCH  10  11
ENDBRANCH   7  10
TORSDOF 3
ENDMDL
MODEL 5
REMARK VINA RESULT:      -5.7      1.373      2.226
REMARK  Name = 
REMARK  3 active torsions:
REMARK  status: ('A' for Active; 'I' for Inactive)
REMARK    1  A    between atoms: O_1  and  C_2
REMARK    2  A    between atoms: C_3  and  O_4
REMARK    3  A    between atoms: O_4  and  C_5
REMARK                            x       y       z     vdW  Elec       q    Type
REMARK                         _______ _______ _______ _____ _____    ______ ____
ROOT
ATOM      1  C   UNL     1       9.520   0.908  21.895  0.00  0.00    +0.160 A 
ATOM      2  C   UNL     1       9.375   2.244  22.257  0.00  0.00    +0.069 A 
ATOM      3  C   UNL     1       9.870   2.672  23.486  0.00  0.00    +0.045 A 
ATOM      4 CL   UNL     1       9.652   4.305  23.977  0.00  0.00    -0.083 Cl
ATOM      5  C   UNL     1      10.539   1.782  24.331  0.00  0.00    +0.024 A 
ATOM      6  C   UNL     1      10.701   0.448  23.950  0.00  0.00    +0.051 A 
ATOM      7  C   UNL     1      10.139  -0.004  22.754  0.00  0.00    +0.170 A 
ENDROOT
BRANCH   1   8
ATOM      8  O   UNL     1       9.022   0.518  20.683  0.00  0.00    -0.503 OA
ATOM      9  H   UNL     1       9.316   1.181  20.032  0.00  0.00    +0.292 HD
ENDBRANCH   1   8
BRANCH   7  10
ATOM     10  O   UNL     1      10.204  -1.318  22.344  0.00  0.00    -0.452 OA
BRANCH  10  11
ATOM     11  C   UNL     1       9.393  -2.254  22.951  0.00  0.00    +0.129 A 
ATOM     12  C   UNL     1       8.138  -2.440  22.367  0.00  0.00    +0.048 A 
ATOM     13  C   UNL     1       7.240  -3.368  22.904  0.00  0.00    +0.023 A 
ATOM     14  C   UNL     1       7.603  -4.112  24.026  0.00  0.00    +0.041 A 
ATOM     15 CL   UNL     1       6.514  -5.272  24.675  0.00  0.00    -0.084 Cl
ATOM     16  C   UNL     1       8.843  -3.915  24.629  0.00  0.00    +0.023 A 
ATOM     17  C   UNL     1       9.727  -2.966  24.109  0.00  0.00    +0.048 A 
ENDBRANCH  10  11
ENDBRANCH   7  10
TORSDOF 3
ENDMDL
MODEL 6
REMARK VINA RESULT:      -5.7      1.632      2.478
REMARK  Name = 
REMARK  3 active torsions:
REMARK  status: ('A' for Active; 'I' for Inactive)
REMARK    1  A    between atoms: O_1  and  C_2
REMARK    2  A    between atoms: C_3  and  O_4
REMARK    3  A    between atoms: O_4  and  C_5
REMARK                            x       y       z     vdW  Elec       q    Type
REMARK                         _______ _______ _______ _____ _____    ______ ____
ROOT
ATOM      1  C   UNL     1       9.787   0.721  24.522  0.00  0.00    +0.160 A 
ATOM      2  C   UNL     1       9.448   2.070  24.571  0.00  0.00    +0.069 A 
ATOM      3  C   UNL     1       9.356   2.790  23.383  0.00  0.00    +0.045 A 
ATOM      4 CL   UNL     1       8.995   4.471  23.425  0.00  0.00    -0.083 Cl
ATOM      5  C   UNL     1       9.562   2.161  22.153  0.00  0.00    +0.024 A 
ATOM      6  C   UNL     1       9.879   0.801  22.111  0.00  0.00    +0.051 A 
ATOM      7  C   UNL     1      10.049   0.092  23.302  0.00  0.00    +0.170 A 
ENDROOT
BRANCH   1   8
ATOM      8  O   UNL     1       9.871   0.042  25.705  0.00  0.00    -0.503 OA
ATOM      9  H   UNL     1      10.818  -0.102  25.881  0.00  0.00    +0.292 HD
ENDBRANCH   1   8
BRANCH   7  10
ATOM     10  O   UNL     1      10.421  -1.234  23.340  0.00  0.00    -0.452 OA
BRANCH  10  11
ATOM     11  C   UNL     1       9.446  -2.209  23.301  0.00  0.00    +0.129 A 
ATOM     12  C   UNL     1       9.536  -3.197  24.285  0.00  0.00    +0.048 A 
ATOM     13  C   UNL     1       8.594  -4.229  24.336  0.00  0.00    +0.023 A 
ATOM     14  C   UNL     1       7.560  -4.268  23.402  0.00  0.00    +0.041 A 
ATOM     15 CL   UNL     1       6.384  -5.521  23.476  0.00  0.00    -0.084 Cl
ATOM     16  C   UNL     1       7.476  -3.301  22.404  0.00  0.00    +0.023 A 
ATOM     17  C   UNL     1       8.435  -2.287  22.336  0.00  0.00    +0.048 A 
ENDBRANCH  10  11
ENDBRANCH   7  10
TORSDOF 3
ENDMDL
MODEL 7
REMARK VINA RESULT:      -5.5      1.047      1.797
REMARK  Name = 
REMARK  3 active torsions:
REMARK  status: ('A' for Active; 'I' for Inactive)
REMARK    1  A    between atoms: O_1  and  C_2
REMARK    2  A    between atoms: C_3  and  O_4
REMARK    3  A    between atoms: O_4  and  C_5
REMARK                            x       y       z     vdW  Elec       q    Type
REMARK                         _______ _______ _______ _____ _____    ______ ____
ROOT
ATOM      1  C   UNL     1       9.549  -0.874  24.462  0.00  0.00    +0.160 A 
ATOM      2  C   UNL     1       9.386   0.424  23.986  0.00  0.00    +0.069 A 
ATOM      3  C   UNL     1       9.505   0.665  22.619  0.00  0.00    +0.045 A 
ATOM      4 CL   UNL     1       9.365   2.269  22.016  0.00  0.00    -0.083 Cl
ATOM      5  C   UNL     1       9.744  -0.386  21.731  0.00  0.00    +0.024 A 
ATOM      6  C   UNL     1       9.883  -1.689  22.214  0.00  0.00    +0.051 A 
ATOM      7  C   UNL     1       9.842  -1.926  23.590  0.00  0.00    +0.170 A 
ENDROOT
BRANCH   1   8
ATOM      8  O   UNL     1       9.428  -1.078  25.808  0.00  0.00    -0.503 OA
ATOM      9  H   UNL     1       8.533  -1.432  25.960  0.00  0.00    +0.292 HD
ENDBRANCH   1   8
BRANCH   7  10
ATOM     10  O   UNL     1      10.032  -3.174  24.143  0.00  0.00    -0.452 OA
BRANCH  10  11
ATOM     11  C   UNL     1       8.934  -3.901  24.555  0.00  0.00    +0.129 A 
ATOM     12  C   UNL     1       9.044  -4.510  25.807  0.00  0.00    +0.048 A 
ATOM     13  C   UNL     1       7.987  -5.268  26.319  0.00  0.00    +0.023 A 
ATOM     14  C   UNL     1       6.817  -5.414  25.574  0.00  0.00    +0.041 A 
ATOM     15 CL   UNL     1       5.504  -6.324  26.209  0.00  0.00    -0.084 Cl
ATOM     16  C   UNL     1       6.708  -4.831  24.314  0.00  0.00    +0.023 A 
ATOM     17  C   UNL     1       7.778  -4.099  23.792  0.00  0.00    +0.048 A 
ENDBRANCH  10  11
ENDBRANCH   7  10
TORSDOF 3
ENDMDL
MODEL 8
REMARK VINA RESULT:      -5.5      1.949      6.130
REMARK  Name = 
REMARK  3 active torsions:
REMARK  status: ('A' for Active; 'I' for Inactive)
REMARK    1  A    between atoms: O_1  and  C_2
REMARK    2  A    between atoms: C_3  and  O_4
REMARK    3  A    between atoms: O_4  and  C_5
REMARK                            x       y       z     vdW  Elec       q    Type
REMARK                         _______ _______ _______ _____ _____    ______ ____
ROOT
ATOM      1  C   UNL     1       9.888  -2.169  23.846  0.00  0.00    +0.160 A 
ATOM      2  C   UNL     1       9.308  -3.304  24.407  0.00  0.00    +0.069 A 
ATOM      3  C   UNL     1       8.627  -3.190  25.616  0.00  0.00    +0.045 A 
ATOM      4 CL   UNL     1       7.953  -4.590  26.354  0.00  0.00    -0.083 Cl
ATOM      5  C   UNL     1       8.490  -1.949  26.240  0.00  0.00    +0.024 A 
ATOM      6  C   UNL     1       9.054  -0.810  25.659  0.00  0.00    +0.051 A 
ATOM      7  C   UNL     1       9.805  -0.930  24.488  0.00  0.00    +0.170 A 
ENDROOT
BRANCH   1   8
ATOM      8  O   UNL     1      10.552  -2.312  22.660  0.00  0.00    -0.503 OA
ATOM      9  H   UNL     1      10.150  -3.073  22.203  0.00  0.00    +0.292 HD
ENDBRANCH   1   8
BRANCH   7  10
ATOM     10  O   UNL     1      10.442   0.136  23.892  0.00  0.00    -0.452 OA
BRANCH  10  11
ATOM     11  C   UNL     1       9.704   1.245  23.532  0.00  0.00    +0.129 A 
ATOM     12  C   UNL     1       9.021   1.151  22.317  0.00  0.00    +0.048 A 
ATOM     13  C   UNL     1       8.241   2.219  21.861  0.00  0.00    +0.023 A 
ATOM     14  C   UNL     1       8.145   3.380  22.626  0.00  0.00    +0.041 A 
ATOM     15 CL   UNL     1       7.168   4.687  22.084  0.00  0.00    -0.084 Cl
ATOM     16  C   UNL     1       8.843   3.492  23.826  0.00  0.00    +0.023 A 
ATOM     17  C   UNL     1       9.645   2.435  24.265  0.00  0.00    +0.048 A 
ENDBRANCH  10  11
ENDBRANCH   7  10
TORSDOF 3
ENDMDL
MODEL 9
REMARK VINA RESULT:      -5.5      1.592      2.039
REMARK  Name = 
REMARK  3 active torsions:
REMARK  status: ('A' for Active; 'I' for Inactive)
REMARK    1  A    between atoms: O_1  and  C_2
REMARK    2  A    between atoms: C_3  and  O_4
REMARK    3  A    between atoms: O_4  and  C_5
REMARK                            x       y       z     vdW  Elec       q    Type
REMARK                         _______ _______ _______ _____ _____    ______ ____
ROOT
ATOM      1  C   UNL     1       9.434  -0.979  22.157  0.00  0.00    +0.160 A 
ATOM      2  C   UNL     1       9.420   0.401  21.976  0.00  0.00    +0.069 A 
ATOM      3  C   UNL     1       8.264   1.113  22.284  0.00  0.00    +0.045 A 
ATOM      4 CL   UNL     1       8.205   2.811  22.013  0.00  0.00    -0.083 Cl
ATOM      5  C   UNL     1       7.144   0.460  22.805  0.00  0.00    +0.024 A 
ATOM      6  C   UNL     1       7.175  -0.922  23.006  0.00  0.00    +0.051 A 
ATOM      7  C   UNL     1       8.304  -1.652  22.627  0.00  0.00    +0.170 A 
ENDROOT
BRANCH   1   8
ATOM      8  O   UNL     1      10.584  -1.651  21.845  0.00  0.00    -0.503 OA
ATOM      9  H   UNL     1      10.326  -2.566  21.635  0.00  0.00    +0.292 HD
ENDBRANCH   1   8
BRANCH   7  10
ATOM     10  O   UNL     1       8.382  -3.023  22.738  0.00  0.00    -0.452 OA
BRANCH  10  11
ATOM     11  C   UNL     1       8.120  -3.616  23.956  0.00  0.00    +0.129 A 
ATOM     12  C   UNL     1       7.036  -4.497  23.982  0.00  0.00    +0.048 A 
ATOM     13  C   UNL     1       6.687  -5.153  25.166  0.00  0.00    +0.023 A 
ATOM     14  C   UNL     1       7.428  -4.927  26.325  0.00  0.00    +0.041 A 
ATOM     15 CL   UNL     1       7.020  -5.750  27.778  0.00  0.00    -0.084 Cl
ATOM     16  C   UNL     1       8.495  -4.032  26.315  0.00  0.00    +0.023 A 
ATOM     17  C   UNL     1       8.824  -3.355  25.137  0.00  0.00    +0.048 A 
ENDBRANCH  10  11
ENDBRANCH   7  10
TORSDOF 3
ENDMDL
