MODEL 1
REMARK VINA RESULT:      -5.5      0.000      0.000
REMARK  Name = 
REMARK  7 active torsions:
REMARK  status: ('A' for Active; 'I' for Inactive)
REMARK    1  A    between atoms: C_2  and  O_3
REMARK    2  A    between atoms: C_6  and  C_7
REMARK    3  A    between atoms: C_6  and  C_15
REMARK    4  A    between atoms: C_7  and  C_8
REMARK    5  A    between atoms: C_8  and  C_10
REMARK    6  A    between atoms: C_10  and  O_11
REMARK    7  A    between atoms: C_15  and  O_16
REMARK                            x       y       z     vdW  Elec       q    Type
REMARK                         _______ _______ _______ _____ _____    ______ ____
ROOT
ATOM      1  C   UNL     1       5.434  -5.539  23.103  0.00  0.00    +0.160 C 
ATOM      2  C   UNL     1       5.240  -5.039  24.503  0.00  0.00    +0.005 C 
ATOM      3  C   UNL     1       6.240  -4.593  25.283  0.00  0.00    -0.006 C 
ATOM      4  C   UNL     1       7.703  -4.517  24.834  0.00  0.00    +0.111 C 
ATOM      5  C   UNL     1       7.894  -5.208  23.484  0.00  0.00    -0.006 C 
ATOM      6  C   UNL     1       6.880  -5.646  22.717  0.00  0.00    +0.005 C 
ENDROOT
BRANCH   1   7
ATOM      7  O   UNL     1       4.815  -4.627  22.215  0.00  0.00    -0.384 OA
ATOM      8  H   UNL     1       5.481  -3.956  21.988  0.00  0.00    +0.211 HD
ENDBRANCH   1   7
BRANCH   4   9
ATOM      9  C   UNL     1       8.532  -5.173  25.971  0.00  0.00    +0.319 C 
ATOM     10  O   UNL     1       8.141  -5.239  27.131  0.00  0.00    -0.250 OA
BRANCH   9  11
ATOM     11  O   UNL     1       9.689  -5.757  25.586  0.00  0.00    -0.480 OA
ATOM     12  H   UNL     1      10.461  -5.500  26.128  0.00  0.00    +0.295 HD
ENDBRANCH   9  11
ENDBRANCH   4   9
BRANCH   4  13
ATOM     13  C   UNL     1       8.084  -3.025  24.732  0.00  0.00    +0.113 C 
BRANCH  13  14
ATOM     14  C   UNL     1       9.231  -2.742  23.788  0.00  0.00    +0.241 C 
ATOM     15  O   UNL     1      10.381  -3.161  23.887  0.00  0.00    -0.285 OA
BRANCH  14  16
ATOM     16  C   UNL     1       8.902  -1.895  22.564  0.00  0.00    +0.373 C 
ATOM     17  O   UNL     1       7.806  -1.411  22.368  0.00  0.00    -0.242 OA
BRANCH  16  18
ATOM     18  O   UNL     1       9.966  -1.810  21.744  0.00  0.00    -0.475 OA
ATOM     19  H   UNL     1       9.793  -2.335  20.927  0.00  0.00    +0.295 HD
ENDBRANCH  16  18
ENDBRANCH  14  16
ENDBRANCH  13  14
ENDBRANCH   4  13
TORSDOF 7
ENDMDL
MODEL 2
REMARK VINA RESULT:      -5.4      1.470      3.903
REMARK  Name = 
REMARK  7 active torsions:
REMARK  status: ('A' for Active; 'I' for Inactive)
REMARK    1  A    between atoms: C_2  and  O_3
REMARK    2  A    between atoms: C_6  and  C_7
REMARK    3  A    between atoms: C_6  and  C_15
REMARK    4  A    between atoms: C_7  and  C_8
REMARK    5  A    between atoms: C_8  and  C_10
REMARK    6  A    between atoms: C_10  and  O_11
REMARK    7  A    between atoms: C_15  and  O_16
REMARK                            x       y       z     vdW  Elec       q    Type
REMARK                         _______ _______ _______ _____ _____    ______ ____
ROOT
ATOM      1  C   UNL     1       6.303  -5.329  21.504  0.00  0.00    +0.160 C 
ATOM      2  C   UNL     1       7.326  -5.872  22.457  0.00  0.00    +0.005 C 
ATOM      3  C   UNL     1       7.881  -5.152  23.448  0.00  0.00    -0.006 C 
ATOM      4  C   UNL     1       7.523  -3.692  23.745  0.00  0.00    +0.111 C 
ATOM      5  C   UNL     1       6.628  -3.117  22.647  0.00  0.00    -0.006 C 
ATOM      6  C   UNL     1       6.082  -3.855  21.664  0.00  0.00    +0.005 C 
ENDROOT
BRANCH   1   7
ATOM      7  O   UNL     1       5.072  -5.983  21.754  0.00  0.00    -0.384 OA
ATOM      8  H   UNL     1       5.176  -6.475  22.586  0.00  0.00    +0.211 HD
ENDBRANCH   1   7
BRANCH   4   9
ATOM      9  C   UNL     1       8.874  -2.941  23.879  0.00  0.00    +0.319 C 
ATOM     10  O   UNL     1       8.983  -1.729  23.731  0.00  0.00    -0.250 OA
BRANCH   9  11
ATOM     11  O   UNL     1       9.927  -3.699  24.262  0.00  0.00    -0.480 OA
ATOM     12  H   UNL     1      10.006  -3.806  25.230  0.00  0.00    +0.295 HD
ENDBRANCH   9  11
ENDBRANCH   4   9
BRANCH   4  13
ATOM     13  C   UNL     1       6.792  -3.657  25.105  0.00  0.00    +0.113 C 
BRANCH  13  14
ATOM     14  C   UNL     1       6.811  -4.972  25.852  0.00  0.00    +0.241 C 
ATOM     15  O   UNL     1       6.072  -5.933  25.661  0.00  0.00    -0.285 OA
BRANCH  14  16
ATOM     16  C   UNL     1       7.899  -5.128  26.909  0.00  0.00    +0.373 C 
ATOM     17  O   UNL     1       8.938  -4.502  26.889  0.00  0.00    -0.242 OA
BRANCH  16  18
ATOM     18  O   UNL     1       7.556  -6.070  27.807  0.00  0.00    -0.475 OA
ATOM     19  H   UNL     1       7.339  -5.639  28.668  0.00  0.00    +0.295 HD
ENDBRANCH  16  18
ENDBRANCH  14  16
ENDBRANCH  13  14
ENDBRANCH   4  13
TORSDOF 7
ENDMDL
MODEL 3
REMARK VINA RESULT:      -5.2      3.787      4.842
REMARK  Name = 
REMARK  7 active torsions:
REMARK  status: ('A' for Active; 'I' for Inactive)
REMARK    1  A    between atoms: C_2  and  O_3
REMARK    2  A    between atoms: C_6  and  C_7
REMARK    3  A    between atoms: C_6  and  C_15
REMARK    4  A    between atoms: C_7  and  C_8
REMARK    5  A    between atoms: C_8  and  C_10
REMARK    6  A    between atoms: C_10  and  O_11
REMARK    7  A    between atoms: C_15  and  O_16
REMARK                            x       y       z     vdW  Elec       q    Type
REMARK                         _______ _______ _______ _____ _____    ______ ____
ROOT
ATOM      1  C   UNL     1       9.213  -1.593  22.065  0.00  0.00    +0.160 C 
ATOM      2  C   UNL     1       7.879  -1.303  22.686  0.00  0.00    +0.005 C 
ATOM      3  C   UNL     1       7.725  -0.727  23.892  0.00  0.00    -0.006 C 
ATOM      4  C   UNL     1       8.891  -0.271  24.775  0.00  0.00    +0.111 C 
ATOM      5  C   UNL     1      10.226  -0.751  24.204  0.00  0.00    -0.006 C 
ATOM      6  C   UNL     1      10.359  -1.325  22.995  0.00  0.00    +0.005 C 
ENDROOT
BRANCH   1   7
ATOM      7  O   UNL     1       9.367  -0.757  20.933  0.00  0.00    -0.384 OA
ATOM      8  H   UNL     1       8.543  -0.819  20.422  0.00  0.00    +0.211 HD
ENDBRANCH   1   7
BRANCH   4   9
ATOM      9  C   UNL     1       8.601  -0.838  26.190  0.00  0.00    +0.319 C 
ATOM     10  O   UNL     1       8.599  -2.038  26.442  0.00  0.00    -0.250 OA
BRANCH   9  11
ATOM     11  O   UNL     1       8.433   0.085  27.164  0.00  0.00    -0.480 OA
ATOM     12  H   UNL     1       7.682  -0.101  27.761  0.00  0.00    +0.295 HD
ENDBRANCH   9  11
ENDBRANCH   4   9
BRANCH   4  13
ATOM     13  C   UNL     1       8.858   1.271  24.835  0.00  0.00    +0.113 C 
BRANCH  13  14
ATOM     14  C   UNL     1       9.739   1.950  23.811  0.00  0.00    +0.241 C 
ATOM     15  O   UNL     1      10.929   2.225  23.936  0.00  0.00    -0.285 OA
BRANCH  14  16
ATOM     16  C   UNL     1       9.088   2.270  22.470  0.00  0.00    +0.373 C 
ATOM     17  O   UNL     1       7.928   2.608  22.360  0.00  0.00    -0.242 OA
BRANCH  16  18
ATOM     18  O   UNL     1       9.959   2.081  21.461  0.00  0.00    -0.475 OA
ATOM     19  H   UNL     1      10.646   1.430  21.739  0.00  0.00    +0.295 HD
ENDBRANCH  16  18
ENDBRANCH  14  16
ENDBRANCH  13  14
ENDBRANCH   4  13
TORSDOF 7
ENDMDL
MODEL 4
REMARK VINA RESULT:      -5.2      3.989      6.347
REMARK  Name = 
REMARK  7 active torsions:
REMARK  status: ('A' for Active; 'I' for Inactive)
REMARK    1  A    between atoms: C_2  and  O_3
REMARK    2  A    between atoms: C_6  and  C_7
REMARK    3  A    between atoms: C_6  and  C_15
REMARK    4  A    between atoms: C_7  and  C_8
REMARK    5  A    between atoms: C_8  and  C_10
REMARK    6  A    between atoms: C_10  and  O_11
REMARK    7  A    between atoms: C_15  and  O_16
REMARK                            x       y       z     vdW  Elec       q    Type
REMARK                         _______ _______ _______ _____ _____    ______ ____
ROOT
ATOM      1  C   UNL     1      10.156   2.629  23.153  0.00  0.00    +0.160 C 
ATOM      2  C   UNL     1      10.088   1.809  21.899  0.00  0.00    +0.005 C 
ATOM      3  C   UNL     1       9.693   0.524  21.866  0.00  0.00    -0.006 C 
ATOM      4  C   UNL     1       9.240  -0.261  23.101  0.00  0.00    +0.111 C 
ATOM      5  C   UNL     1       9.502   0.537  24.379  0.00  0.00    -0.006 C 
ATOM      6  C   UNL     1       9.897   1.823  24.391  0.00  0.00    +0.005 C 
ENDROOT
BRANCH   1   7
ATOM      7  O   UNL     1       9.169   3.640  23.077  0.00  0.00    -0.384 OA
ATOM      8  H   UNL     1       8.963   3.903  23.990  0.00  0.00    +0.211 HD
ENDBRANCH   1   7
BRANCH   4   9
ATOM      9  C   UNL     1      10.013  -1.605  23.059  0.00  0.00    +0.319 C 
ATOM     10  O   UNL     1       9.967  -2.432  23.963  0.00  0.00    -0.250 OA
BRANCH   9  11
ATOM     11  O   UNL     1      10.682  -1.857  21.911  0.00  0.00    -0.480 OA
ATOM     12  H   UNL     1      10.443  -2.706  21.491  0.00  0.00    +0.295 HD
ENDBRANCH   9  11
ENDBRANCH   4   9
BRANCH   4  13
ATOM     13  C   UNL     1       7.730  -0.544  22.947  0.00  0.00    +0.113 C 
BRANCH  13  14
ATOM     14  C   UNL     1       6.841   0.627  23.297  0.00  0.00    +0.241 C 
ATOM     15  O   UNL     1       6.731   1.677  22.671  0.00  0.00    -0.285 OA
BRANCH  14  16
ATOM     16  C   UNL     1       5.954   0.454  24.526  0.00  0.00    +0.373 C 
ATOM     17  O   UNL     1       6.177  -0.362  25.396  0.00  0.00    -0.242 OA
BRANCH  16  18
ATOM     18  O   UNL     1       4.899   1.288  24.472  0.00  0.00    -0.475 OA
ATOM     19  H   UNL     1       4.078   0.768  24.306  0.00  0.00    +0.295 HD
ENDBRANCH  16  18
ENDBRANCH  14  16
ENDBRANCH  13  14
ENDBRANCH   4  13
TORSDOF 7
ENDMDL
MODEL 5
REMARK VINA RESULT:      -5.2      2.006      3.808
REMARK  Name = 
REMARK  7 active torsions:
REMARK  status: ('A' for Active; 'I' for Inactive)
REMARK    1  A    between atoms: C_2  and  O_3
REMARK    2  A    between atoms: C_6  and  C_7
REMARK    3  A    between atoms: C_6  and  C_15
REMARK    4  A    between atoms: C_7  and  C_8
REMARK    5  A    between atoms: C_8  and  C_10
REMARK    6  A    between atoms: C_10  and  O_11
REMARK    7  A    between atoms: C_15  and  O_16
REMARK                            x       y       z     vdW  Elec       q    Type
REMARK                         _______ _______ _______ _____ _____    ______ ____
ROOT
ATOM      1  C   UNL     1       8.565  -5.270  25.513  0.00  0.00    +0.160 C 
ATOM      2  C   UNL     1       8.152  -5.083  24.084  0.00  0.00    +0.005 C 
ATOM      3  C   UNL     1       8.121  -3.890  23.464  0.00  0.00    -0.006 C 
ATOM      4  C   UNL     1       8.525  -2.572  24.132  0.00  0.00    +0.111 C 
ATOM      5  C   UNL     1       8.754  -2.768  25.631  0.00  0.00    -0.006 C 
ATOM      6  C   UNL     1       8.782  -3.971  26.232  0.00  0.00    +0.005 C 
ENDROOT
BRANCH   1   7
ATOM      7  O   UNL     1       9.785  -5.987  25.534  0.00  0.00    -0.384 OA
ATOM      8  H   UNL     1       9.994  -6.162  26.467  0.00  0.00    +0.211 HD
ENDBRANCH   1   7
BRANCH   4   9
ATOM      9  C   UNL     1       7.382  -1.569  23.821  0.00  0.00    +0.319 C 
ATOM     10  O   UNL     1       6.762  -1.569  22.764  0.00  0.00    -0.250 OA
BRANCH   9  11
ATOM     11  O   UNL     1       7.044  -0.739  24.834  0.00  0.00    -0.480 OA
ATOM     12  H   UNL     1       7.810  -0.372  25.317  0.00  0.00    +0.295 HD
ENDBRANCH   9  11
ENDBRANCH   4   9
BRANCH   4  13
ATOM     13  C   UNL     1       9.822  -2.081  23.452  0.00  0.00    +0.113 C 
BRANCH  13  14
ATOM     14  C   UNL     1       9.963  -0.577  23.401  0.00  0.00    +0.241 C 
ATOM     15  O   UNL     1      10.179   0.171  24.350  0.00  0.00    -0.285 OA
BRANCH  14  16
ATOM     16  C   UNL     1       9.883   0.060  22.017  0.00  0.00    +0.373 C 
ATOM     17  O   UNL     1      10.114   1.233  21.812  0.00  0.00    -0.242 OA
BRANCH  16  18
ATOM     18  O   UNL     1       9.486  -0.843  21.101  0.00  0.00    -0.475 OA
ATOM     19  H   UNL     1       8.505  -0.804  21.007  0.00  0.00    +0.295 HD
ENDBRANCH  16  18
ENDBRANCH  14  16
ENDBRANCH  13  14
ENDBRANCH   4  13
TORSDOF 7
ENDMDL
MODEL 6
REMARK VINA RESULT:      -5.1      1.451      3.801
REMARK  Name = 
REMARK  7 active torsions:
REMARK  status: ('A' for Active; 'I' for Inactive)
REMARK    1  A    between atoms: C_2  and  O_3
REMARK    2  A    between atoms: C_6  and  C_7
REMARK    3  A    between atoms: C_6  and  C_15
REMARK    4  A    between atoms: C_7  and  C_8
REMARK    5  A    between atoms: C_8  and  C_10
REMARK    6  A    between atoms: C_10  and  O_11
REMARK    7  A    between atoms: C_15  and  O_16
REMARK                            x       y       z     vdW  Elec       q    Type
REMARK                         _______ _______ _______ _____ _____    ______ ____
ROOT
ATOM      1  C   UNL     1       8.228  -1.144  24.258  0.00  0.00    +0.160 C 
ATOM      2  C   UNL     1       9.459  -1.979  24.070  0.00  0.00    +0.005 C 
ATOM      3  C   UNL     1       9.507  -3.302  24.304  0.00  0.00    -0.006 C 
ATOM      4  C   UNL     1       8.306  -4.131  24.771  0.00  0.00    +0.111 C 
ATOM      5  C   UNL     1       7.129  -3.225  25.135  0.00  0.00    -0.006 C 
ATOM      6  C   UNL     1       7.099  -1.903  24.892  0.00  0.00    +0.005 C 
ENDROOT
BRANCH   1   7
ATOM      7  O   UNL     1       7.793  -0.700  22.987  0.00  0.00    -0.384 OA
ATOM      8  H   UNL     1       8.112  -1.348  22.336  0.00  0.00    +0.211 HD
ENDBRANCH   1   7
BRANCH   4   9
ATOM      9  C   UNL     1       8.812  -4.976  25.971  0.00  0.00    +0.319 C 
ATOM     10  O   UNL     1       8.316  -4.911  27.090  0.00  0.00    -0.250 OA
BRANCH   9  11
ATOM     11  O   UNL     1       9.788  -5.867  25.685  0.00  0.00    -0.480 OA
ATOM     12  H   UNL     1       9.677  -6.731  26.129  0.00  0.00    +0.295 HD
ENDBRANCH   9  11
ENDBRANCH   4   9
BRANCH   4  13
ATOM     13  C   UNL     1       7.916  -5.079  23.618  0.00  0.00    +0.113 C 
BRANCH  13  14
ATOM     14  C   UNL     1       6.978  -4.466  22.602  0.00  0.00    +0.241 C 
ATOM     15  O   UNL     1       7.226  -3.528  21.849  0.00  0.00    -0.285 OA
BRANCH  14  16
ATOM     16  C   UNL     1       5.608  -5.123  22.469  0.00  0.00    +0.373 C 
ATOM     17  O   UNL     1       4.566  -4.510  22.574  0.00  0.00    -0.242 OA
BRANCH  16  18
ATOM     18  O   UNL     1       5.734  -6.448  22.270  0.00  0.00    -0.475 OA
ATOM     19  H   UNL     1       5.804  -6.905  23.141  0.00  0.00    +0.295 HD
ENDBRANCH  16  18
ENDBRANCH  14  16
ENDBRANCH  13  14
ENDBRANCH   4  13
TORSDOF 7
ENDMDL
MODEL 7
REMARK VINA RESULT:      -5.1      1.452      3.965
REMARK  Name = 
REMARK  7 active torsions:
REMARK  status: ('A' for Active; 'I' for Inactive)
REMARK    1  A    between atoms: C_2  and  O_3
REMARK    2  A    between atoms: C_6  and  C_7
REMARK    3  A    between atoms: C_6  and  C_15
REMARK    4  A    between atoms: C_7  and  C_8
REMARK    5  A    between atoms: C_8  and  C_10
REMARK    6  A    between atoms: C_10  and  O_11
REMARK    7  A    between atoms: C_15  and  O_16
REMARK                            x       y       z     vdW  Elec       q    Type
REMARK                         _______ _______ _______ _____ _____    ______ ____
ROOT
ATOM      1  C   UNL     1       5.337  -5.628  22.327  0.00  0.00    +0.160 C 
ATOM      2  C   UNL     1       6.777  -5.337  22.025  0.00  0.00    +0.005 C 
ATOM      3  C   UNL     1       7.432  -4.255  22.480  0.00  0.00    -0.006 C 
ATOM      4  C   UNL     1       6.800  -3.192  23.384  0.00  0.00    +0.111 C 
ATOM      5  C   UNL     1       5.293  -3.415  23.514  0.00  0.00    -0.006 C 
ATOM      6  C   UNL     1       4.655  -4.506  23.052  0.00  0.00    +0.005 C 
ENDROOT
BRANCH   1   7
ATOM      7  O   UNL     1       5.279  -6.777  23.152  0.00  0.00    -0.384 OA
ATOM      8  H   UNL     1       5.527  -6.495  24.048  0.00  0.00    +0.211 HD
ENDBRANCH   1   7
BRANCH   4   9
ATOM      9  C   UNL     1       7.155  -1.823  22.745  0.00  0.00    +0.319 C 
ATOM     10  O   UNL     1       8.156  -1.645  22.060  0.00  0.00    -0.250 OA
BRANCH   9  11
ATOM     11  O   UNL     1       6.237  -0.845  22.917  0.00  0.00    -0.480 OA
ATOM     12  H   UNL     1       5.464  -1.116  23.448  0.00  0.00    +0.295 HD
ENDBRANCH   9  11
ENDBRANCH   4   9
BRANCH   4  13
ATOM     13  C   UNL     1       7.477  -3.292  24.768  0.00  0.00    +0.113 C 
BRANCH  13  14
ATOM     14  C   UNL     1       7.800  -4.705  25.199  0.00  0.00    +0.241 C 
ATOM     15  O   UNL     1       6.998  -5.564  25.550  0.00  0.00    -0.285 OA
BRANCH  14  16
ATOM     16  C   UNL     1       9.270  -5.108  25.134  0.00  0.00    +0.373 C 
ATOM     17  O   UNL     1      10.133  -4.396  24.667  0.00  0.00    -0.242 OA
BRANCH  16  18
ATOM     18  O   UNL     1       9.442  -6.352  25.618  0.00  0.00    -0.475 OA
ATOM     19  H   UNL     1      10.285  -6.727  25.268  0.00  0.00    +0.295 HD
ENDBRANCH  16  18
ENDBRANCH  14  16
ENDBRANCH  13  14
ENDBRANCH   4  13
TORSDOF 7
ENDMDL
MODEL 8
REMARK VINA RESULT:      -5.1      1.571      3.335
REMARK  Name = 
REMARK  7 active torsions:
REMARK  status: ('A' for Active; 'I' for Inactive)
REMARK    1  A    between atoms: C_2  and  O_3
REMARK    2  A    between atoms: C_6  and  C_7
REMARK    3  A    between atoms: C_6  and  C_15
REMARK    4  A    between atoms: C_7  and  C_8
REMARK    5  A    between atoms: C_8  and  C_10
REMARK    6  A    between atoms: C_10  and  O_11
REMARK    7  A    between atoms: C_15  and  O_16
REMARK                            x       y       z     vdW  Elec       q    Type
REMARK                         _______ _______ _______ _____ _____    ______ ____
ROOT
ATOM      1  C   UNL     1       7.099  -5.102  26.923  0.00  0.00    +0.160 C 
ATOM      2  C   UNL     1       6.275  -5.577  25.763  0.00  0.00    +0.005 C 
ATOM      3  C   UNL     1       6.129  -4.887  24.618  0.00  0.00    -0.006 C 
ATOM      4  C   UNL     1       6.804  -3.540  24.342  0.00  0.00    +0.111 C 
ATOM      5  C   UNL     1       7.474  -2.998  25.604  0.00  0.00    -0.006 C 
ATOM      6  C   UNL     1       7.611  -3.704  26.741  0.00  0.00    +0.005 C 
ENDROOT
BRANCH   1   7
ATOM      7  O   UNL     1       8.217  -5.960  27.055  0.00  0.00    -0.384 OA
ATOM      8  H   UNL     1       8.876  -5.486  27.588  0.00  0.00    +0.211 HD
ENDBRANCH   1   7
BRANCH   4   9
ATOM      9  C   UNL     1       5.687  -2.607  23.803  0.00  0.00    +0.319 C 
ATOM     10  O   UNL     1       4.895  -2.021  24.532  0.00  0.00    -0.250 OA
BRANCH   9  11
ATOM     11  O   UNL     1       5.692  -2.404  22.465  0.00  0.00    -0.480 OA
ATOM     12  H   UNL     1       6.587  -2.362  22.075  0.00  0.00    +0.295 HD
ENDBRANCH   9  11
ENDBRANCH   4   9
BRANCH   4  13
ATOM     13  C   UNL     1       7.853  -3.762  23.231  0.00  0.00    +0.113 C 
BRANCH  13  14
ATOM     14  C   UNL     1       9.085  -2.895  23.361  0.00  0.00    +0.241 C 
ATOM     15  O   UNL     1      10.084  -3.138  24.032  0.00  0.00    -0.285 OA
BRANCH  14  16
ATOM     16  C   UNL     1       9.100  -1.618  22.527  0.00  0.00    +0.373 C 
ATOM     17  O   UNL     1       8.287  -0.728  22.661  0.00  0.00    -0.242 OA
BRANCH  16  18
ATOM     18  O   UNL     1      10.094  -1.655  21.620  0.00  0.00    -0.475 OA
ATOM     19  H   UNL     1      10.468  -2.567  21.581  0.00  0.00    +0.295 HD
ENDBRANCH  16  18
ENDBRANCH  14  16
ENDBRANCH  13  14
ENDBRANCH   4  13
TORSDOF 7
ENDMDL
MODEL 9
REMARK VINA RESULT:      -5.1      2.941      6.007
REMARK  Name = 
REMARK  7 active torsions:
REMARK  status: ('A' for Active; 'I' for Inactive)
REMARK    1  A    between atoms: C_2  and  O_3
REMARK    2  A    between atoms: C_6  and  C_7
REMARK    3  A    between atoms: C_6  and  C_15
REMARK    4  A    between atoms: C_7  and  C_8
REMARK    5  A    between atoms: C_8  and  C_10
REMARK    6  A    between atoms: C_10  and  O_11
REMARK    7  A    between atoms: C_15  and  O_16
REMARK                            x       y       z     vdW  Elec       q    Type
REMARK                         _______ _______ _______ _____ _____    ______ ____
ROOT
ATOM      1  C   UNL     1      10.540   2.475  23.457  0.00  0.00    +0.160 C 
ATOM      2  C   UNL     1      10.060   2.022  22.111  0.00  0.00    +0.005 C 
ATOM      3  C   UNL     1       9.530   0.808  21.875  0.00  0.00    -0.006 C 
ATOM      4  C   UNL     1       9.327  -0.258  22.957  0.00  0.00    +0.111 C 
ATOM      5  C   UNL     1       9.997   0.160  24.266  0.00  0.00    -0.006 C 
ATOM      6  C   UNL     1      10.521   1.379  24.482  0.00  0.00    +0.005 C 
ENDROOT
BRANCH   1   7
ATOM      7  O   UNL     1       9.685   3.508  23.910  0.00  0.00    -0.384 OA
ATOM      8  H   UNL     1      10.224   4.313  23.975  0.00  0.00    +0.211 HD
ENDBRANCH   1   7
BRANCH   4   9
ATOM      9  C   UNL     1       9.909  -1.573  22.373  0.00  0.00    +0.319 C 
ATOM     10  O   UNL     1      10.515  -2.395  23.051  0.00  0.00    -0.250 OA
BRANCH   9  11
ATOM     11  O   UNL     1       9.629  -1.806  21.070  0.00  0.00    -0.480 OA
ATOM     12  H   UNL     1      10.403  -2.085  20.543  0.00  0.00    +0.295 HD
ENDBRANCH   9  11
ENDBRANCH   4   9
BRANCH   4  13
ATOM     13  C   UNL     1       7.807  -0.430  23.164  0.00  0.00    +0.113 C 
BRANCH  13  14
ATOM     14  C   UNL     1       7.412  -1.753  23.780  0.00  0.00    +0.241 C 
ATOM     15  O   UNL     1       7.514  -2.070  24.962  0.00  0.00    -0.285 OA
BRANCH  14  16
ATOM     16  C   UNL     1       6.771  -2.769  22.840  0.00  0.00    +0.373 C 
ATOM     17  O   UNL     1       5.619  -2.695  22.469  0.00  0.00    -0.242 OA
BRANCH  16  18
ATOM     18  O   UNL     1       7.642  -3.749  22.536  0.00  0.00    -0.475 OA
ATOM     19  H   UNL     1       8.081  -4.065  23.361  0.00  0.00    +0.295 HD
ENDBRANCH  16  18
ENDBRANCH  14  16
ENDBRANCH  13  14
ENDBRANCH   4  13
TORSDOF 7
ENDMDL
