MODEL 1
REMARK VINA RESULT:      -8.0      0.000      0.000
REMARK  Name = 
REMARK  23 active torsions:
REMARK  status: ('A' for Active; 'I' for Inactive)
REMARK    1  A    between atoms: C_1  and  C_2
REMARK    2  A    between atoms: C_5  and  O_7
REMARK    3  A    between atoms: O_7  and  C_8
REMARK    4  A    between atoms: C_10  and  C_12
REMARK    5  A    between atoms: C_12  and  O_13
REMARK    6  A    between atoms: C_15  and  O_17
REMARK    7  A    between atoms: O_17  and  C_18
REMARK    8  A    between atoms: C_18  and  C_19
REMARK    9  A    between atoms: C_22  and  O_24
REMARK   10  A    between atoms: C_25  and  O_27
REMARK   11  A    between atoms: C_28  and  O_30
REMARK   12  A    between atoms: C_31  and  O_33
REMARK   13  A    between atoms: C_34  and  O_36
REMARK   14  A    between atoms: C_37  and  O_39
REMARK   15  A    between atoms: C_40  and  O_42
REMARK   16  A    between atoms: C_43  and  O_45
REMARK   17  A    between atoms: C_46  and  N_48
REMARK   18  A    between atoms: N_48  and  C_49
REMARK   19  A    between atoms: C_52  and  C_53
REMARK   20  A    between atoms: C_53  and  O_54
REMARK   21  A    between atoms: C_55  and  O_57
REMARK   22  A    between atoms: C_58  and  O_60
REMARK   23  A    between atoms: C_61  and  O_63
REMARK                            x       y       z     vdW  Elec       q    Type
REMARK                         _______ _______ _______ _____ _____    ______ ____
ROOT
ATOM      1  O   UNL     1       8.317  -3.341  22.819  0.00  0.00    -0.340 OA
ENDROOT
BRANCH   1   7
ATOM      2  C   UNL     1       4.672  -3.885  24.841  0.00  0.00    +0.039 C 
ATOM      3  C   UNL     1       5.054  -4.043  23.377  0.00  0.00    +0.138 C 
ATOM      4  C   UNL     1       5.377  -5.488  22.812  0.00  0.00    +0.114 C 
ATOM      5  C   UNL     1       6.587  -5.536  21.850  0.00  0.00    +0.167 C 
ATOM      6  C   UNL     1       6.791  -4.172  21.157  0.00  0.00    +0.200 C 
ATOM      7  C   UNL     1       7.025  -3.088  22.230  0.00  0.00    +0.282 C 
ATOM      8  O   UNL     1       6.016  -2.998  23.204  0.00  0.00    -0.344 OA
BRANCH   6   9
ATOM      9  O   UNL     1       5.681  -3.863  20.305  0.00  0.00    -0.384 OA
ATOM     10  H   UNL     1       4.972  -3.489  20.860  0.00  0.00    +0.210 HD
ENDBRANCH   6   9
BRANCH   5  11
ATOM     11  O   UNL     1       7.768  -5.996  22.520  0.00  0.00    -0.387 OA
ATOM     12  H   UNL     1       7.507  -6.335  23.399  0.00  0.00    +0.210 HD
ENDBRANCH   5  11
BRANCH   4  13
ATOM     13  N   UNL     1       4.964  -6.740  23.493  0.00  0.00    -0.300 NA
ATOM     14  H   UNL     1       5.821  -7.200  23.815  0.00  0.00    +0.123 HD
BRANCH  13  15
ATOM     15  C   UNL     1       4.019  -6.885  24.612  0.00  0.00    +0.109 C 
ATOM     16  C   UNL     1       2.528  -7.330  24.398  0.00  0.00    +0.166 C 
ATOM     17  C   UNL     1       1.767  -7.705  25.708  0.00  0.00    +0.177 C 
ATOM     18  C   UNL     1       2.290  -6.964  26.964  0.00  0.00    +0.173 C 
ATOM     19  C   UNL     1       3.797  -6.981  27.068  0.00  0.00    -0.016 C 
ATOM     20  C   UNL     1       4.574  -7.124  25.977  0.00  0.00    -0.002 C 
BRANCH  18  21
ATOM     21  O   UNL     1       1.819  -5.621  26.963  0.00  0.00    -0.385 OA
ATOM     22  H   UNL     1       0.845  -5.652  26.876  0.00  0.00    +0.210 HD
ENDBRANCH  18  21
BRANCH  17  23
ATOM     23  O   UNL     1       1.797  -9.127  25.951  0.00  0.00    -0.386 OA
ATOM     24  H   UNL     1       1.388  -9.540  25.168  0.00  0.00    +0.210 HD
ENDBRANCH  17  23
BRANCH  16  25
ATOM     25  O   UNL     1       2.360  -8.324  23.387  0.00  0.00    -0.387 OA
ATOM     26  H   UNL     1       1.394  -8.371  23.212  0.00  0.00    +0.210 HD
ENDBRANCH  16  25
BRANCH  19  27
ATOM     27  C   UNL     1       4.417  -6.659  28.390  0.00  0.00    +0.189 C 
BRANCH  27  28
ATOM     28  O   UNL     1       5.467  -7.606  28.572  0.00  0.00    -0.391 OA
ATOM     29  H   UNL     1       5.063  -8.406  28.954  0.00  0.00    +0.210 HD
ENDBRANCH  27  28
ENDBRANCH  19  27
ENDBRANCH  13  15
ENDBRANCH   4  13
ENDBRANCH   1   7
BRANCH   1  30
ATOM     30  C   UNL     1       9.250  -2.238  22.911  0.00  0.00    +0.183 C 
ATOM     31  C   UNL     1       8.691  -1.081  22.042  0.00  0.00    +0.179 C 
ATOM     32  C   UNL     1       8.141   0.151  22.782  0.00  0.00    +0.201 C 
ATOM     33  C   UNL     1       8.812   0.489  24.139  0.00  0.00    +0.282 C 
ATOM     34  O   UNL     1       9.910  -0.379  24.416  0.00  0.00    -0.341 OA
ATOM     35  C   UNL     1       9.562  -1.785  24.355  0.00  0.00    +0.178 C 
BRANCH  32  36
ATOM     36  O   UNL     1       6.726  -0.041  22.991  0.00  0.00    -0.384 OA
ATOM     37  H   UNL     1       6.513   0.395  23.837  0.00  0.00    +0.210 HD
ENDBRANCH  32  36
BRANCH  31  38
ATOM     38  O   UNL     1       9.713  -0.637  21.131  0.00  0.00    -0.386 OA
ATOM     39  H   UNL     1       9.747   0.334  21.202  0.00  0.00    +0.210 HD
ENDBRANCH  31  38
BRANCH  33  40
ATOM     40  O   UNL     1       9.160   1.891  24.109  0.00  0.00    -0.346 OA
BRANCH  40  41
ATOM     41  C   UNL     1       9.912   2.357  22.983  0.00  0.00    +0.197 C 
BRANCH  41  42
ATOM     42  C   UNL     1      10.471   3.801  23.063  0.00  0.00    +0.178 C 
ATOM     43  C   UNL     1       9.802   4.637  24.182  0.00  0.00    +0.177 C 
ATOM     44  C   UNL     1      10.540   5.975  24.394  0.00  0.00    +0.179 C 
ATOM     45  C   UNL     1      12.042   5.794  24.458  0.00  0.00    +0.201 C 
ATOM     46  C   UNL     1      12.518   5.009  23.226  0.00  0.00    +0.279 C 
ATOM     47  O   UNL     1      11.899   3.735  23.168  0.00  0.00    -0.341 OA
BRANCH  46  48
ATOM     48  O   UNL     1      13.915   4.810  23.349  0.00  0.00    -0.365 OA
ATOM     49  H   UNL     1      14.146   4.947  24.285  0.00  0.00    +0.213 HD
ENDBRANCH  46  48
BRANCH  45  50
ATOM     50  O   UNL     1      12.628   7.105  24.573  0.00  0.00    -0.384 OA
ATOM     51  H   UNL     1      13.581   7.029  24.396  0.00  0.00    +0.210 HD
ENDBRANCH  45  50
BRANCH  44  52
ATOM     52  O   UNL     1      10.111   6.593  25.626  0.00  0.00    -0.386 OA
ATOM     53  H   UNL     1       9.937   7.534  25.410  0.00  0.00    +0.210 HD
ENDBRANCH  44  52
BRANCH  43  54
ATOM     54  O   UNL     1       8.454   4.935  23.778  0.00  0.00    -0.386 OA
ATOM     55  H   UNL     1       8.149   4.214  23.199  0.00  0.00    +0.210 HD
ENDBRANCH  43  54
ENDBRANCH  41  42
ENDBRANCH  40  41
ENDBRANCH  33  40
BRANCH  35  56
ATOM     56  C   UNL     1       8.493  -2.153  25.403  0.00  0.00    +0.190 C 
BRANCH  56  57
ATOM     57  O   UNL     1       8.396  -3.573  25.502  0.00  0.00    -0.392 OA
ATOM     58  H   UNL     1       9.123  -3.838  26.102  0.00  0.00    +0.210 HD
ENDBRANCH  56  57
ENDBRANCH  35  56
ENDBRANCH   1  30
TORSDOF 22
ENDMDL
MODEL 2
REMARK VINA RESULT:      -7.9      2.279      3.691
REMARK  Name = 
REMARK  23 active torsions:
REMARK  status: ('A' for Active; 'I' for Inactive)
REMARK    1  A    between atoms: C_1  and  C_2
REMARK    2  A    between atoms: C_5  and  O_7
REMARK    3  A    between atoms: O_7  and  C_8
REMARK    4  A    between atoms: C_10  and  C_12
REMARK    5  A    between atoms: C_12  and  O_13
REMARK    6  A    between atoms: C_15  and  O_17
REMARK    7  A    between atoms: O_17  and  C_18
REMARK    8  A    between atoms: C_18  and  C_19
REMARK    9  A    between atoms: C_22  and  O_24
REMARK   10  A    between atoms: C_25  and  O_27
REMARK   11  A    between atoms: C_28  and  O_30
REMARK   12  A    between atoms: C_31  and  O_33
REMARK   13  A    between atoms: C_34  and  O_36
REMARK   14  A    between atoms: C_37  and  O_39
REMARK   15  A    between atoms: C_40  and  O_42
REMARK   16  A    between atoms: C_43  and  O_45
REMARK   17  A    between atoms: C_46  and  N_48
REMARK   18  A    between atoms: N_48  and  C_49
REMARK   19  A    between atoms: C_52  and  C_53
REMARK   20  A    between atoms: C_53  and  O_54
REMARK   21  A    between atoms: C_55  and  O_57
REMARK   22  A    between atoms: C_58  and  O_60
REMARK   23  A    between atoms: C_61  and  O_63
REMARK                            x       y       z     vdW  Elec       q    Type
REMARK                         _______ _______ _______ _____ _____    ______ ____
ROOT
ATOM      1  O   UNL     1       7.669  -3.269  22.329  0.00  0.00    -0.340 OA
ENDROOT
BRANCH   1   7
ATOM      2  C   UNL     1       3.895  -3.899  24.071  0.00  0.00    +0.039 C 
ATOM      3  C   UNL     1       4.594  -4.564  22.895  0.00  0.00    +0.138 C 
ATOM      4  C   UNL     1       5.334  -5.949  23.115  0.00  0.00    +0.114 C 
ATOM      5  C   UNL     1       6.697  -6.061  22.391  0.00  0.00    +0.167 C 
ATOM      6  C   UNL     1       6.735  -5.144  21.151  0.00  0.00    +0.200 C 
ATOM      7  C   UNL     1       6.502  -3.684  21.591  0.00  0.00    +0.282 C 
ATOM      8  O   UNL     1       5.319  -3.472  22.321  0.00  0.00    -0.344 OA
BRANCH   6   9
ATOM      9  O   UNL     1       5.783  -5.575  20.169  0.00  0.00    -0.384 OA
ATOM     10  H   UNL     1       5.422  -6.434  20.460  0.00  0.00    +0.210 HD
ENDBRANCH   6   9
BRANCH   5  11
ATOM     11  O   UNL     1       7.786  -5.818  23.290  0.00  0.00    -0.387 OA
ATOM     12  H   UNL     1       7.528  -6.142  24.176  0.00  0.00    +0.210 HD
ENDBRANCH   5  11
BRANCH   4  13
ATOM     13  N   UNL     1       5.074  -6.836  24.276  0.00  0.00    -0.300 NA
ATOM     14  H   UNL     1       5.689  -7.648  24.173  0.00  0.00    +0.123 HD
BRANCH  13  15
ATOM     15  C   UNL     1       5.145  -6.492  25.704  0.00  0.00    +0.109 C 
ATOM     16  C   UNL     1       6.351  -5.693  26.316  0.00  0.00    +0.166 C 
ATOM     17  C   UNL     1       6.119  -5.175  27.770  0.00  0.00    +0.177 C 
ATOM     18  C   UNL     1       5.140  -6.051  28.591  0.00  0.00    +0.173 C 
ATOM     19  C   UNL     1       3.886  -6.404  27.826  0.00  0.00    -0.016 C 
ATOM     20  C   UNL     1       3.870  -6.428  26.479  0.00  0.00    -0.002 C 
BRANCH  18  21
ATOM     21  O   UNL     1       5.798  -7.239  29.018  0.00  0.00    -0.385 OA
ATOM     22  H   UNL     1       5.167  -7.978  28.912  0.00  0.00    +0.210 HD
ENDBRANCH  18  21
BRANCH  17  23
ATOM     23  O   UNL     1       5.653  -3.810  27.779  0.00  0.00    -0.386 OA
ATOM     24  H   UNL     1       6.185  -3.342  27.109  0.00  0.00    +0.210 HD
ENDBRANCH  17  23
BRANCH  16  25
ATOM     25  O   UNL     1       6.855  -4.664  25.464  0.00  0.00    -0.387 OA
ATOM     26  H   UNL     1       7.430  -4.101  26.029  0.00  0.00    +0.210 HD
ENDBRANCH  16  25
BRANCH  19  27
ATOM     27  C   UNL     1       2.704  -6.899  28.597  0.00  0.00    +0.189 C 
BRANCH  27  28
ATOM     28  O   UNL     1       3.165  -8.025  29.340  0.00  0.00    -0.391 OA
ATOM     29  H   UNL     1       3.017  -8.810  28.783  0.00  0.00    +0.210 HD
ENDBRANCH  27  28
ENDBRANCH  19  27
ENDBRANCH  13  15
ENDBRANCH   4  13
ENDBRANCH   1   7
BRANCH   1  30
ATOM     30  C   UNL     1       7.937  -1.850  22.435  0.00  0.00    +0.183 C 
ATOM     31  C   UNL     1       6.853  -1.239  23.361  0.00  0.00    +0.179 C 
ATOM     32  C   UNL     1       7.301  -0.782  24.761  0.00  0.00    +0.201 C 
ATOM     33  C   UNL     1       8.761  -0.273  24.878  0.00  0.00    +0.282 C 
ATOM     34  O   UNL     1       9.412  -0.237  23.608  0.00  0.00    -0.341 OA
ATOM     35  C   UNL     1       9.368  -1.503  22.902  0.00  0.00    +0.178 C 
BRANCH  32  36
ATOM     36  O   UNL     1       7.109  -1.880  25.678  0.00  0.00    -0.384 OA
ATOM     37  H   UNL     1       7.933  -1.951  26.194  0.00  0.00    +0.210 HD
ENDBRANCH  32  36
BRANCH  31  38
ATOM     38  O   UNL     1       6.241  -0.117  22.698  0.00  0.00    -0.386 OA
ATOM     39  H   UNL     1       5.965   0.503  23.398  0.00  0.00    +0.210 HD
ENDBRANCH  31  38
BRANCH  33  40
ATOM     40  O   UNL     1       8.719   1.002  25.557  0.00  0.00    -0.346 OA
BRANCH  40  41
ATOM     41  C   UNL     1       9.060   2.164  24.793  0.00  0.00    +0.197 C 
BRANCH  41  42
ATOM     42  C   UNL     1       7.902   3.130  24.434  0.00  0.00    +0.178 C 
ATOM     43  C   UNL     1       8.283   4.126  23.312  0.00  0.00    +0.177 C 
ATOM     44  C   UNL     1       7.047   4.903  22.814  0.00  0.00    +0.179 C 
ATOM     45  C   UNL     1       5.861   3.994  22.569  0.00  0.00    +0.201 C 
ATOM     46  C   UNL     1       5.599   3.145  23.822  0.00  0.00    +0.279 C 
ATOM     47  O   UNL     1       6.731   2.355  24.144  0.00  0.00    -0.341 OA
BRANCH  46  48
ATOM     48  O   UNL     1       4.523   2.268  23.538  0.00  0.00    -0.365 OA
ATOM     49  H   UNL     1       3.870   2.771  23.018  0.00  0.00    +0.213 HD
ENDBRANCH  46  48
BRANCH  45  50
ATOM     50  O   UNL     1       4.750   4.830  22.191  0.00  0.00    -0.384 OA
ATOM     51  H   UNL     1       4.568   4.684  21.247  0.00  0.00    +0.210 HD
ENDBRANCH  45  50
BRANCH  44  52
ATOM     52  O   UNL     1       7.350   5.585  21.578  0.00  0.00    -0.386 OA
ATOM     53  H   UNL     1       8.312   5.778  21.604  0.00  0.00    +0.210 HD
ENDBRANCH  44  52
BRANCH  43  54
ATOM     54  O   UNL     1       9.217   5.078  23.851  0.00  0.00    -0.386 OA
ATOM     55  H   UNL     1       9.202   4.995  24.821  0.00  0.00    +0.210 HD
ENDBRANCH  43  54
ENDBRANCH  41  42
ENDBRANCH  40  41
ENDBRANCH  33  40
BRANCH  35  56
ATOM     56  C   UNL     1      10.090  -2.616  23.685  0.00  0.00    +0.190 C 
BRANCH  56  57
ATOM     57  O   UNL     1       9.123  -3.492  24.263  0.00  0.00    -0.392 OA
ATOM     58  H   UNL     1       9.009  -3.178  25.183  0.00  0.00    +0.210 HD
ENDBRANCH  56  57
ENDBRANCH  35  56
ENDBRANCH   1  30
TORSDOF 22
ENDMDL
MODEL 3
REMARK VINA RESULT:      -7.8      2.263      3.278
REMARK  Name = 
REMARK  23 active torsions:
REMARK  status: ('A' for Active; 'I' for Inactive)
REMARK    1  A    between atoms: C_1  and  C_2
REMARK    2  A    between atoms: C_5  and  O_7
REMARK    3  A    between atoms: O_7  and  C_8
REMARK    4  A    between atoms: C_10  and  C_12
REMARK    5  A    between atoms: C_12  and  O_13
REMARK    6  A    between atoms: C_15  and  O_17
REMARK    7  A    between atoms: O_17  and  C_18
REMARK    8  A    between atoms: C_18  and  C_19
REMARK    9  A    between atoms: C_22  and  O_24
REMARK   10  A    between atoms: C_25  and  O_27
REMARK   11  A    between atoms: C_28  and  O_30
REMARK   12  A    between atoms: C_31  and  O_33
REMARK   13  A    between atoms: C_34  and  O_36
REMARK   14  A    between atoms: C_37  and  O_39
REMARK   15  A    between atoms: C_40  and  O_42
REMARK   16  A    between atoms: C_43  and  O_45
REMARK   17  A    between atoms: C_46  and  N_48
REMARK   18  A    between atoms: N_48  and  C_49
REMARK   19  A    between atoms: C_52  and  C_53
REMARK   20  A    between atoms: C_53  and  O_54
REMARK   21  A    between atoms: C_55  and  O_57
REMARK   22  A    between atoms: C_58  and  O_60
REMARK   23  A    between atoms: C_61  and  O_63
REMARK                            x       y       z     vdW  Elec       q    Type
REMARK                         _______ _______ _______ _____ _____    ______ ____
ROOT
ATOM      1  O   UNL     1       7.599  -3.110  22.482  0.00  0.00    -0.340 OA
ENDROOT
BRANCH   1   7
ATOM      2  C   UNL     1       3.878  -3.860  24.291  0.00  0.00    +0.039 C 
ATOM      3  C   UNL     1       4.580  -4.508  23.108  0.00  0.00    +0.138 C 
ATOM      4  C   UNL     1       5.372  -5.865  23.323  0.00  0.00    +0.114 C 
ATOM      5  C   UNL     1       6.725  -5.934  22.576  0.00  0.00    +0.167 C 
ATOM      6  C   UNL     1       6.711  -5.025  21.331  0.00  0.00    +0.200 C 
ATOM      7  C   UNL     1       6.435  -3.571  21.766  0.00  0.00    +0.282 C 
ATOM      8  O   UNL     1       5.258  -3.395  22.515  0.00  0.00    -0.344 OA
BRANCH   6   9
ATOM      9  O   UNL     1       5.758  -5.495  20.368  0.00  0.00    -0.384 OA
ATOM     10  H   UNL     1       5.208  -4.736  20.096  0.00  0.00    +0.210 HD
ENDBRANCH   6   9
BRANCH   5  11
ATOM     11  O   UNL     1       7.820  -5.648  23.455  0.00  0.00    -0.387 OA
ATOM     12  H   UNL     1       8.268  -6.491  23.670  0.00  0.00    +0.210 HD
ENDBRANCH   5  11
BRANCH   4  13
ATOM     13  N   UNL     1       5.161  -6.753  24.493  0.00  0.00    -0.300 NA
ATOM     14  H   UNL     1       5.743  -7.584  24.343  0.00  0.00    +0.123 HD
BRANCH  13  15
ATOM     15  C   UNL     1       5.339  -6.424  25.915  0.00  0.00    +0.109 C 
ATOM     16  C   UNL     1       6.483  -5.472  26.419  0.00  0.00    +0.166 C 
ATOM     17  C   UNL     1       6.341  -5.013  27.904  0.00  0.00    +0.177 C 
ATOM     18  C   UNL     1       5.588  -6.031  28.798  0.00  0.00    +0.173 C 
ATOM     19  C   UNL     1       4.320  -6.546  28.160  0.00  0.00    -0.016 C 
ATOM     20  C   UNL     1       4.161  -6.552  26.822  0.00  0.00    -0.002 C 
BRANCH  18  21
ATOM     21  O   UNL     1       6.447  -7.120  29.118  0.00  0.00    -0.385 OA
ATOM     22  H   UNL     1       7.355  -6.764  29.195  0.00  0.00    +0.210 HD
ENDBRANCH  18  21
BRANCH  17  23
ATOM     23  O   UNL     1       5.693  -3.728  28.004  0.00  0.00    -0.386 OA
ATOM     24  H   UNL     1       5.247  -3.721  28.872  0.00  0.00    +0.210 HD
ENDBRANCH  17  23
BRANCH  16  25
ATOM     25  O   UNL     1       6.742  -4.369  25.550  0.00  0.00    -0.387 OA
ATOM     26  H   UNL     1       7.017  -4.760  24.691  0.00  0.00    +0.210 HD
ENDBRANCH  16  25
BRANCH  19  27
ATOM     27  C   UNL     1       3.309  -7.215  29.036  0.00  0.00    +0.189 C 
BRANCH  27  28
ATOM     28  O   UNL     1       3.881  -7.243  30.342  0.00  0.00    -0.391 OA
ATOM     29  H   UNL     1       3.202  -6.907  30.955  0.00  0.00    +0.210 HD
ENDBRANCH  27  28
ENDBRANCH  19  27
ENDBRANCH  13  15
ENDBRANCH   4  13
ENDBRANCH   1   7
BRANCH   1  30
ATOM     30  C   UNL     1       7.965  -1.715  22.359  0.00  0.00    +0.183 C 
ATOM     31  C   UNL     1       7.033  -0.904  23.298  0.00  0.00    +0.179 C 
ATOM     32  C   UNL     1       7.665  -0.301  24.565  0.00  0.00    +0.201 C 
ATOM     33  C   UNL     1       9.158   0.104  24.457  0.00  0.00    +0.282 C 
ATOM     34  O   UNL     1       9.661  -0.080  23.134  0.00  0.00    -0.341 OA
ATOM     35  C   UNL     1       9.458  -1.421  22.622  0.00  0.00    +0.178 C 
BRANCH  32  36
ATOM     36  O   UNL     1       7.510  -1.249  25.642  0.00  0.00    -0.384 OA
ATOM     37  H   UNL     1       6.661  -1.037  26.072  0.00  0.00    +0.210 HD
ENDBRANCH  32  36
BRANCH  31  38
ATOM     38  O   UNL     1       6.421   0.164  22.550  0.00  0.00    -0.386 OA
ATOM     39  H   UNL     1       6.781   0.995  22.908  0.00  0.00    +0.210 HD
ENDBRANCH  31  38
BRANCH  33  40
ATOM     40  O   UNL     1       9.273   1.457  24.950  0.00  0.00    -0.346 OA
BRANCH  40  41
ATOM     41  C   UNL     1      10.101   2.359  24.207  0.00  0.00    +0.197 C 
BRANCH  41  42
ATOM     42  C   UNL     1       9.386   3.529  23.483  0.00  0.00    +0.178 C 
ATOM     43  C   UNL     1       8.124   3.071  22.713  0.00  0.00    +0.177 C 
ATOM     44  C   UNL     1       7.309   4.280  22.210  0.00  0.00    +0.179 C 
ATOM     45  C   UNL     1       7.130   5.334  23.282  0.00  0.00    +0.201 C 
ATOM     46  C   UNL     1       8.501   5.707  23.868  0.00  0.00    +0.279 C 
ATOM     47  O   UNL     1       9.135   4.573  24.433  0.00  0.00    -0.341 OA
BRANCH  46  48
ATOM     48  O   UNL     1       8.290   6.649  24.904  0.00  0.00    -0.365 OA
ATOM     49  H   UNL     1       9.056   7.251  24.908  0.00  0.00    +0.213 HD
ENDBRANCH  46  48
BRANCH  45  50
ATOM     50  O   UNL     1       6.434   6.443  22.682  0.00  0.00    -0.384 OA
ATOM     51  H   UNL     1       6.680   6.484  21.742  0.00  0.00    +0.210 HD
ENDBRANCH  45  50
BRANCH  44  52
ATOM     52  O   UNL     1       5.999   3.854  21.778  0.00  0.00    -0.386 OA
ATOM     53  H   UNL     1       5.535   4.666  21.479  0.00  0.00    +0.210 HD
ENDBRANCH  44  52
BRANCH  43  54
ATOM     54  O   UNL     1       8.545   2.313  21.565  0.00  0.00    -0.386 OA
ATOM     55  H   UNL     1       7.815   1.721  21.313  0.00  0.00    +0.210 HD
ENDBRANCH  43  54
ENDBRANCH  41  42
ENDBRANCH  40  41
ENDBRANCH  33  40
BRANCH  35  56
ATOM     56  C   UNL     1      10.194  -2.473  23.474  0.00  0.00    +0.190 C 
BRANCH  56  57
ATOM     57  O   UNL     1       9.242  -3.213  24.237  0.00  0.00    -0.392 OA
ATOM     58  H   UNL     1       9.667  -3.361  25.106  0.00  0.00    +0.210 HD
ENDBRANCH  56  57
ENDBRANCH  35  56
ENDBRANCH   1  30
TORSDOF 22
ENDMDL
MODEL 4
REMARK VINA RESULT:      -7.6      2.646      9.949
REMARK  Name = 
REMARK  23 active torsions:
REMARK  status: ('A' for Active; 'I' for Inactive)
REMARK    1  A    between atoms: C_1  and  C_2
REMARK    2  A    between atoms: C_5  and  O_7
REMARK    3  A    between atoms: O_7  and  C_8
REMARK    4  A    between atoms: C_10  and  C_12
REMARK    5  A    between atoms: C_12  and  O_13
REMARK    6  A    between atoms: C_15  and  O_17
REMARK    7  A    between atoms: O_17  and  C_18
REMARK    8  A    between atoms: C_18  and  C_19
REMARK    9  A    between atoms: C_22  and  O_24
REMARK   10  A    between atoms: C_25  and  O_27
REMARK   11  A    between atoms: C_28  and  O_30
REMARK   12  A    between atoms: C_31  and  O_33
REMARK   13  A    between atoms: C_34  and  O_36
REMARK   14  A    between atoms: C_37  and  O_39
REMARK   15  A    between atoms: C_40  and  O_42
REMARK   16  A    between atoms: C_43  and  O_45
REMARK   17  A    between atoms: C_46  and  N_48
REMARK   18  A    between atoms: N_48  and  C_49
REMARK   19  A    between atoms: C_52  and  C_53
REMARK   20  A    between atoms: C_53  and  O_54
REMARK   21  A    between atoms: C_55  and  O_57
REMARK   22  A    between atoms: C_58  and  O_60
REMARK   23  A    between atoms: C_61  and  O_63
REMARK                            x       y       z     vdW  Elec       q    Type
REMARK                         _______ _______ _______ _____ _____    ______ ____
ROOT
ATOM      1  O   UNL     1       7.142  -2.177  22.458  0.00  0.00    -0.340 OA
ENDROOT
BRANCH   1   7
ATOM      2  C   UNL     1       8.626  -1.294  26.292  0.00  0.00    +0.039 C 
ATOM      3  C   UNL     1       9.299  -1.341  24.929  0.00  0.00    +0.138 C 
ATOM      4  C   UNL     1       9.526   0.009  24.129  0.00  0.00    +0.114 C 
ATOM      5  C   UNL     1       9.239  -0.098  22.612  0.00  0.00    +0.167 C 
ATOM      6  C   UNL     1       9.436  -1.545  22.117  0.00  0.00    +0.200 C 
ATOM      7  C   UNL     1       8.484  -2.481  22.891  0.00  0.00    +0.282 C 
ATOM      8  O   UNL     1       8.608  -2.419  24.290  0.00  0.00    -0.344 OA
BRANCH   6   9
ATOM      9  O   UNL     1      10.808  -1.943  22.240  0.00  0.00    -0.384 OA
ATOM     10  H   UNL     1      11.315  -1.174  22.563  0.00  0.00    +0.210 HD
ENDBRANCH   6   9
BRANCH   5  11
ATOM     11  O   UNL     1       7.944   0.424  22.290  0.00  0.00    -0.387 OA
ATOM     12  H   UNL     1       8.053   1.348  21.988  0.00  0.00    +0.210 HD
ENDBRANCH   5  11
BRANCH   4  13
ATOM     13  N   UNL     1       9.487   1.349  24.765  0.00  0.00    -0.300 NA
ATOM     14  H   UNL     1      10.400   1.783  24.599  0.00  0.00    +0.123 HD
BRANCH  13  15
ATOM     15  C   UNL     1       8.513   2.426  24.533  0.00  0.00    +0.109 C 
ATOM     16  C   UNL     1       8.745   3.550  23.460  0.00  0.00    +0.166 C 
ATOM     17  C   UNL     1       7.491   4.428  23.156  0.00  0.00    +0.177 C 
ATOM     18  C   UNL     1       6.511   4.544  24.350  0.00  0.00    +0.173 C 
ATOM     19  C   UNL     1       6.221   3.213  25.001  0.00  0.00    -0.016 C 
ATOM     20  C   UNL     1       7.091   2.188  24.920  0.00  0.00    -0.002 C 
BRANCH  18  21
ATOM     21  O   UNL     1       7.031   5.453  25.314  0.00  0.00    -0.385 OA
ATOM     22  H   UNL     1       6.761   5.130  26.197  0.00  0.00    +0.210 HD
ENDBRANCH  18  21
BRANCH  17  23
ATOM     23  O   UNL     1       6.773   3.948  22.000  0.00  0.00    -0.386 OA
ATOM     24  H   UNL     1       7.317   3.228  21.629  0.00  0.00    +0.210 HD
ENDBRANCH  17  23
BRANCH  16  25
ATOM     25  O   UNL     1       9.366   3.085  22.261  0.00  0.00    -0.387 OA
ATOM     26  H   UNL     1      10.335   3.135  22.420  0.00  0.00    +0.210 HD
ENDBRANCH  16  25
BRANCH  19  27
ATOM     27  C   UNL     1       5.023   3.108  25.891  0.00  0.00    +0.189 C 
BRANCH  27  28
ATOM     28  O   UNL     1       5.433   3.610  27.161  0.00  0.00    -0.391 OA
ATOM     29  H   UNL     1       5.757   4.517  27.015  0.00  0.00    +0.210 HD
ENDBRANCH  27  28
ENDBRANCH  19  27
ENDBRANCH  13  15
ENDBRANCH   4  13
ENDBRANCH   1   7
BRANCH   1  30
ATOM     30  C   UNL     1       6.260  -3.284  22.154  0.00  0.00    +0.183 C 
ATOM     31  C   UNL     1       7.081  -4.591  22.308  0.00  0.00    +0.179 C 
ATOM     32  C   UNL     1       6.752  -5.488  23.515  0.00  0.00    +0.201 C 
ATOM     33  C   UNL     1       5.280  -5.465  24.002  0.00  0.00    +0.282 C 
ATOM     34  O   UNL     1       4.457  -4.660  23.160  0.00  0.00    -0.341 OA
ATOM     35  C   UNL     1       4.958  -3.310  22.985  0.00  0.00    +0.178 C 
BRANCH  32  36
ATOM     36  O   UNL     1       7.617  -5.112  24.607  0.00  0.00    -0.384 OA
ATOM     37  H   UNL     1       8.510  -5.018  24.228  0.00  0.00    +0.210 HD
ENDBRANCH  32  36
BRANCH  31  38
ATOM     38  O   UNL     1       6.944  -5.381  21.112  0.00  0.00    -0.386 OA
ATOM     39  H   UNL     1       6.059  -5.190  20.753  0.00  0.00    +0.210 HD
ENDBRANCH  31  38
BRANCH  33  40
ATOM     40  O   UNL     1       4.844  -6.838  24.117  0.00  0.00    -0.346 OA
BRANCH  40  41
ATOM     41  C   UNL     1       4.152  -7.210  25.314  0.00  0.00    +0.197 C 
BRANCH  41  42
ATOM     42  C   UNL     1       4.558  -6.470  26.614  0.00  0.00    +0.178 C 
ATOM     43  C   UNL     1       3.872  -7.057  27.872  0.00  0.00    +0.177 C 
ATOM     44  C   UNL     1       4.475  -6.464  29.163  0.00  0.00    +0.179 C 
ATOM     45  C   UNL     1       5.988  -6.452  29.133  0.00  0.00    +0.201 C 
ATOM     46  C   UNL     1       6.470  -5.762  27.847  0.00  0.00    +0.279 C 
ATOM     47  O   UNL     1       5.989  -6.440  26.699  0.00  0.00    -0.341 OA
BRANCH  46  48
ATOM     48  O   UNL     1       7.885  -5.821  27.825  0.00  0.00    -0.365 OA
ATOM     49  H   UNL     1       8.215  -4.920  27.999  0.00  0.00    +0.213 HD
ENDBRANCH  46  48
BRANCH  45  50
ATOM     50  O   UNL     1       6.437  -5.806  30.340  0.00  0.00    -0.384 OA
ATOM     51  H   UNL     1       7.200  -6.301  30.684  0.00  0.00    +0.210 HD
ENDBRANCH  45  50
BRANCH  44  52
ATOM     52  O   UNL     1       4.056  -7.235  30.310  0.00  0.00    -0.386 OA
ATOM     53  H   UNL     1       3.231  -7.694  30.041  0.00  0.00    +0.210 HD
ENDBRANCH  44  52
BRANCH  43  54
ATOM     54  O   UNL     1       2.477  -6.704  27.833  0.00  0.00    -0.386 OA
ATOM     55  H   UNL     1       2.392  -5.789  28.155  0.00  0.00    +0.210 HD
ENDBRANCH  43  54
ENDBRANCH  41  42
ENDBRANCH  40  41
ENDBRANCH  33  40
BRANCH  35  56
ATOM     56  C   UNL     1       5.019  -2.549  24.323  0.00  0.00    +0.190 C 
BRANCH  56  57
ATOM     57  O   UNL     1       3.761  -2.658  24.988  0.00  0.00    -0.392 OA
ATOM     58  H   UNL     1       3.978  -2.715  25.940  0.00  0.00    +0.210 HD
ENDBRANCH  56  57
ENDBRANCH  35  56
ENDBRANCH   1  30
TORSDOF 22
ENDMDL
MODEL 5
REMARK VINA RESULT:      -7.6      2.927     10.114
REMARK  Name = 
REMARK  23 active torsions:
REMARK  status: ('A' for Active; 'I' for Inactive)
REMARK    1  A    between atoms: C_1  and  C_2
REMARK    2  A    between atoms: C_5  and  O_7
REMARK    3  A    between atoms: O_7  and  C_8
REMARK    4  A    between atoms: C_10  and  C_12
REMARK    5  A    between atoms: C_12  and  O_13
REMARK    6  A    between atoms: C_15  and  O_17
REMARK    7  A    between atoms: O_17  and  C_18
REMARK    8  A    between atoms: C_18  and  C_19
REMARK    9  A    between atoms: C_22  and  O_24
REMARK   10  A    between atoms: C_25  and  O_27
REMARK   11  A    between atoms: C_28  and  O_30
REMARK   12  A    between atoms: C_31  and  O_33
REMARK   13  A    between atoms: C_34  and  O_36
REMARK   14  A    between atoms: C_37  and  O_39
REMARK   15  A    between atoms: C_40  and  O_42
REMARK   16  A    between atoms: C_43  and  O_45
REMARK   17  A    between atoms: C_46  and  N_48
REMARK   18  A    between atoms: N_48  and  C_49
REMARK   19  A    between atoms: C_52  and  C_53
REMARK   20  A    between atoms: C_53  and  O_54
REMARK   21  A    between atoms: C_55  and  O_57
REMARK   22  A    between atoms: C_58  and  O_60
REMARK   23  A    between atoms: C_61  and  O_63
REMARK                            x       y       z     vdW  Elec       q    Type
REMARK                         _______ _______ _______ _____ _____    ______ ____
ROOT
ATOM      1  O   UNL     1       7.312  -1.892  22.620  0.00  0.00    -0.340 OA
ENDROOT
BRANCH   1   7
ATOM      2  C   UNL     1       9.325  -0.680  26.107  0.00  0.00    +0.039 C 
ATOM      3  C   UNL     1       9.781  -0.800  24.661  0.00  0.00    +0.138 C 
ATOM      4  C   UNL     1       9.817   0.497  23.749  0.00  0.00    +0.114 C 
ATOM      5  C   UNL     1       9.306   0.270  22.307  0.00  0.00    +0.167 C 
ATOM      6  C   UNL     1       9.493  -1.201  21.883  0.00  0.00    +0.200 C 
ATOM      7  C   UNL     1       8.718  -2.113  22.855  0.00  0.00    +0.282 C 
ATOM      8  O   UNL     1       9.053  -1.946  24.211  0.00  0.00    -0.344 OA
BRANCH   6   9
ATOM      9  O   UNL     1      10.885  -1.537  21.814  0.00  0.00    -0.384 OA
ATOM     10  H   UNL     1      11.133  -1.596  20.873  0.00  0.00    +0.210 HD
ENDBRANCH   6   9
BRANCH   5  11
ATOM     11  O   UNL     1       7.953   0.719  22.158  0.00  0.00    -0.387 OA
ATOM     12  H   UNL     1       7.583   0.875  23.050  0.00  0.00    +0.210 HD
ENDBRANCH   5  11
BRANCH   4  13
ATOM     13  N   UNL     1       9.812   1.876  24.295  0.00  0.00    -0.300 NA
ATOM     14  H   UNL     1      10.606   2.366  23.870  0.00  0.00    +0.123 HD
BRANCH  13  15
ATOM     15  C   UNL     1       8.711   2.851  24.264  0.00  0.00    +0.109 C 
ATOM     16  C   UNL     1       7.407   2.671  25.120  0.00  0.00    +0.166 C 
ATOM     17  C   UNL     1       6.488   3.931  25.181  0.00  0.00    +0.177 C 
ATOM     18  C   UNL     1       6.599   4.840  23.931  0.00  0.00    +0.173 C 
ATOM     19  C   UNL     1       8.029   5.105  23.525  0.00  0.00    -0.016 C 
ATOM     20  C   UNL     1       9.020   4.251  23.847  0.00  0.00    -0.002 C 
BRANCH  18  21
ATOM     21  O   UNL     1       5.886   4.257  22.846  0.00  0.00    -0.385 OA
ATOM     22  H   UNL     1       4.964   4.119  23.141  0.00  0.00    +0.210 HD
ENDBRANCH  18  21
BRANCH  17  23
ATOM     23  O   UNL     1       6.745   4.719  26.362  0.00  0.00    -0.386 OA
ATOM     24  H   UNL     1       6.800   5.644  26.059  0.00  0.00    +0.210 HD
ENDBRANCH  17  23
BRANCH  16  25
ATOM     25  O   UNL     1       7.638   2.124  26.418  0.00  0.00    -0.387 OA
ATOM     26  H   UNL     1       7.637   1.147  26.306  0.00  0.00    +0.210 HD
ENDBRANCH  16  25
BRANCH  19  27
ATOM     27  C   UNL     1       8.300   6.251  22.602  0.00  0.00    +0.189 C 
BRANCH  27  28
ATOM     28  O   UNL     1       7.544   5.991  21.422  0.00  0.00    -0.391 OA
ATOM     29  H   UNL     1       7.419   6.846  20.972  0.00  0.00    +0.210 HD
ENDBRANCH  27  28
ENDBRANCH  19  27
ENDBRANCH  13  15
ENDBRANCH   4  13
ENDBRANCH   1   7
BRANCH   1  30
ATOM     30  C   UNL     1       6.444  -3.049  22.551  0.00  0.00    +0.183 C 
ATOM     31  C   UNL     1       7.332  -4.308  22.728  0.00  0.00    +0.179 C 
ATOM     32  C   UNL     1       7.200  -5.080  24.053  0.00  0.00    +0.201 C 
ATOM     33  C   UNL     1       5.804  -5.045  24.727  0.00  0.00    +0.282 C 
ATOM     34  O   UNL     1       4.846  -4.358  23.924  0.00  0.00    -0.341 OA
ATOM     35  C   UNL     1       5.264  -3.021  23.547  0.00  0.00    +0.178 C 
BRANCH  32  36
ATOM     36  O   UNL     1       8.183  -4.565  24.976  0.00  0.00    -0.384 OA
ATOM     37  H   UNL     1       8.921  -5.202  24.972  0.00  0.00    +0.210 HD
ENDBRANCH  32  36
BRANCH  31  38
ATOM     38  O   UNL     1       7.075  -5.225  21.648  0.00  0.00    -0.386 OA
ATOM     39  H   UNL     1       6.299  -5.753  21.910  0.00  0.00    +0.210 HD
ENDBRANCH  31  38
BRANCH  33  40
ATOM     40  O   UNL     1       5.444  -6.410  25.039  0.00  0.00    -0.346 OA
BRANCH  40  41
ATOM     41  C   UNL     1       4.153  -6.632  25.617  0.00  0.00    +0.197 C 
BRANCH  41  42
ATOM     42  C   UNL     1       3.940  -6.130  27.068  0.00  0.00    +0.178 C 
ATOM     43  C   UNL     1       5.178  -6.364  27.967  0.00  0.00    +0.177 C 
ATOM     44  C   UNL     1       5.026  -5.643  29.323  0.00  0.00    +0.179 C 
ATOM     45  C   UNL     1       4.539  -4.219  29.161  0.00  0.00    +0.201 C 
ATOM     46  C   UNL     1       3.264  -4.208  28.304  0.00  0.00    +0.279 C 
ATOM     47  O   UNL     1       3.510  -4.763  27.023  0.00  0.00    -0.341 OA
BRANCH  46  48
ATOM     48  O   UNL     1       2.871  -2.859  28.125  0.00  0.00    -0.365 OA
ATOM     49  H   UNL     1       3.579  -2.300  28.492  0.00  0.00    +0.213 HD
ENDBRANCH  46  48
BRANCH  45  50
ATOM     50  O   UNL     1       4.355  -3.675  30.482  0.00  0.00    -0.384 OA
ATOM     51  H   UNL     1       3.671  -2.986  30.434  0.00  0.00    +0.210 HD
ENDBRANCH  45  50
BRANCH  44  52
ATOM     52  O   UNL     1       6.294  -5.606  30.014  0.00  0.00    -0.386 OA
ATOM     53  H   UNL     1       6.470  -6.527  30.305  0.00  0.00    +0.210 HD
ENDBRANCH  44  52
BRANCH  43  54
ATOM     54  O   UNL     1       5.288  -7.775  28.227  0.00  0.00    -0.386 OA
ATOM     55  H   UNL     1       4.863  -8.248  27.490  0.00  0.00    +0.210 HD
ENDBRANCH  43  54
ENDBRANCH  41  42
ENDBRANCH  40  41
ENDBRANCH  33  40
BRANCH  35  56
ATOM     56  C   UNL     1       5.466  -2.120  24.780  0.00  0.00    +0.190 C 
BRANCH  56  57
ATOM     57  O   UNL     1       4.258  -2.077  25.538  0.00  0.00    -0.392 OA
ATOM     58  H   UNL     1       4.058  -1.125  25.649  0.00  0.00    +0.210 HD
ENDBRANCH  56  57
ENDBRANCH  35  56
ENDBRANCH   1  30
TORSDOF 22
ENDMDL
MODEL 6
REMARK VINA RESULT:      -7.5      2.567     10.671
REMARK  Name = 
REMARK  23 active torsions:
REMARK  status: ('A' for Active; 'I' for Inactive)
REMARK    1  A    between atoms: C_1  and  C_2
REMARK    2  A    between atoms: C_5  and  O_7
REMARK    3  A    between atoms: O_7  and  C_8
REMARK    4  A    between atoms: C_10  and  C_12
REMARK    5  A    between atoms: C_12  and  O_13
REMARK    6  A    between atoms: C_15  and  O_17
REMARK    7  A    between atoms: O_17  and  C_18
REMARK    8  A    between atoms: C_18  and  C_19
REMARK    9  A    between atoms: C_22  and  O_24
REMARK   10  A    between atoms: C_25  and  O_27
REMARK   11  A    between atoms: C_28  and  O_30
REMARK   12  A    between atoms: C_31  and  O_33
REMARK   13  A    between atoms: C_34  and  O_36
REMARK   14  A    between atoms: C_37  and  O_39
REMARK   15  A    between atoms: C_40  and  O_42
REMARK   16  A    between atoms: C_43  and  O_45
REMARK   17  A    between atoms: C_46  and  N_48
REMARK   18  A    between atoms: N_48  and  C_49
REMARK   19  A    between atoms: C_52  and  C_53
REMARK   20  A    between atoms: C_53  and  O_54
REMARK   21  A    between atoms: C_55  and  O_57
REMARK   22  A    between atoms: C_58  and  O_60
REMARK   23  A    between atoms: C_61  and  O_63
REMARK                            x       y       z     vdW  Elec       q    Type
REMARK                         _______ _______ _______ _____ _____    ______ ____
ROOT
ATOM      1  O   UNL     1       7.363  -1.293  23.277  0.00  0.00    -0.340 OA
ENDROOT
BRANCH   1   7
ATOM      2  C   UNL     1      10.471   0.825  25.155  0.00  0.00    +0.039 C 
ATOM      3  C   UNL     1      10.377   0.159  23.792  0.00  0.00    +0.138 C 
ATOM      4  C   UNL     1      10.050   1.043  22.517  0.00  0.00    +0.114 C 
ATOM      5  C   UNL     1       9.057   0.386  21.529  0.00  0.00    +0.167 C 
ATOM      6  C   UNL     1       9.113  -1.151  21.635  0.00  0.00    +0.200 C 
ATOM      7  C   UNL     1       8.764  -1.574  23.077  0.00  0.00    +0.282 C 
ATOM      8  O   UNL     1       9.562  -0.984  24.072  0.00  0.00    -0.344 OA
BRANCH   6   9
ATOM      9  O   UNL     1      10.394  -1.644  21.219  0.00  0.00    -0.384 OA
ATOM     10  H   UNL     1      10.246  -2.310  20.522  0.00  0.00    +0.210 HD
ENDBRANCH   6   9
BRANCH   5  11
ATOM     11  O   UNL     1       7.731   0.903  21.703  0.00  0.00    -0.387 OA
ATOM     12  H   UNL     1       7.176   0.573  20.969  0.00  0.00    +0.210 HD
ENDBRANCH   5  11
BRANCH   4  13
ATOM     13  N   UNL     1      10.210   2.518  22.486  0.00  0.00    -0.300 NA
ATOM     14  H   UNL     1      10.019   2.817  21.525  0.00  0.00    +0.123 HD
BRANCH  13  15
ATOM     15  C   UNL     1       9.531   3.513  23.329  0.00  0.00    +0.109 C 
ATOM     16  C   UNL     1      10.277   4.765  23.916  0.00  0.00    +0.166 C 
ATOM     17  C   UNL     1       9.341   5.849  24.537  0.00  0.00    +0.177 C 
ATOM     18  C   UNL     1       8.015   5.276  25.096  0.00  0.00    +0.173 C 
ATOM     19  C   UNL     1       7.343   4.316  24.143  0.00  0.00    -0.016 C 
ATOM     20  C   UNL     1       8.048   3.642  23.214  0.00  0.00    -0.002 C 
BRANCH  18  21
ATOM     21  O   UNL     1       8.255   4.634  26.343  0.00  0.00    -0.385 OA
ATOM     22  H   UNL     1       8.066   5.284  27.049  0.00  0.00    +0.210 HD
ENDBRANCH  18  21
BRANCH  17  23
ATOM     23  O   UNL     1       9.042   6.897  23.592  0.00  0.00    -0.386 OA
ATOM     24  H   UNL     1       8.088   7.078  23.687  0.00  0.00    +0.210 HD
ENDBRANCH  17  23
BRANCH  16  25
ATOM     25  O   UNL     1      11.230   5.341  23.023  0.00  0.00    -0.387 OA
ATOM     26  H   UNL     1      11.174   4.818  22.192  0.00  0.00    +0.210 HD
ENDBRANCH  16  25
BRANCH  19  27
ATOM     27  C   UNL     1       5.900   3.993  24.367  0.00  0.00    +0.189 C 
BRANCH  27  28
ATOM     28  O   UNL     1       5.855   3.202  25.552  0.00  0.00    -0.391 OA
ATOM     29  H   UNL     1       6.297   3.715  26.251  0.00  0.00    +0.210 HD
ENDBRANCH  27  28
ENDBRANCH  19  27
ENDBRANCH  13  15
ENDBRANCH   4  13
ENDBRANCH   1   7
BRANCH   1  30
ATOM     30  C   UNL     1       6.521  -2.360  23.777  0.00  0.00    +0.183 C 
ATOM     31  C   UNL     1       7.448  -3.420  24.426  0.00  0.00    +0.179 C 
ATOM     32  C   UNL     1       7.417  -3.535  25.961  0.00  0.00    +0.201 C 
ATOM     33  C   UNL     1       6.065  -3.202  26.643  0.00  0.00    +0.282 C 
ATOM     34  O   UNL     1       5.043  -2.930  25.686  0.00  0.00    -0.341 OA
ATOM     35  C   UNL     1       5.404  -1.894  24.737  0.00  0.00    +0.178 C 
BRANCH  32  36
ATOM     36  O   UNL     1       8.442  -2.674  26.499  0.00  0.00    -0.384 OA
ATOM     37  H   UNL     1       8.066  -2.274  27.305  0.00  0.00    +0.210 HD
ENDBRANCH  32  36
BRANCH  31  38
ATOM     38  O   UNL     1       7.147  -4.715  23.874  0.00  0.00    -0.386 OA
ATOM     39  H   UNL     1       6.387  -5.062  24.376  0.00  0.00    +0.210 HD
ENDBRANCH  31  38
BRANCH  33  40
ATOM     40  O   UNL     1       5.757  -4.292  27.542  0.00  0.00    -0.346 OA
BRANCH  40  41
ATOM     41  C   UNL     1       6.220  -5.596  27.176  0.00  0.00    +0.197 C 
BRANCH  41  42
ATOM     42  C   UNL     1       5.208  -6.521  26.454  0.00  0.00    +0.178 C 
ATOM     43  C   UNL     1       3.803  -6.489  27.104  0.00  0.00    +0.177 C 
ATOM     44  C   UNL     1       2.767  -7.223  26.228  0.00  0.00    +0.179 C 
ATOM     45  C   UNL     1       2.871  -6.830  24.770  0.00  0.00    +0.201 C 
ATOM     46  C   UNL     1       4.322  -7.003  24.295  0.00  0.00    +0.279 C 
ATOM     47  O   UNL     1       5.204  -6.196  25.057  0.00  0.00    -0.341 OA
BRANCH  46  48
ATOM     48  O   UNL     1       4.394  -6.572  22.947  0.00  0.00    -0.365 OA
ATOM     49  H   UNL     1       3.929  -7.235  22.406  0.00  0.00    +0.213 HD
ENDBRANCH  46  48
BRANCH  45  50
ATOM     50  O   UNL     1       1.922  -7.631  24.039  0.00  0.00    -0.384 OA
ATOM     51  H   UNL     1       2.417  -8.216  23.440  0.00  0.00    +0.210 HD
ENDBRANCH  45  50
BRANCH  44  52
ATOM     52  O   UNL     1       1.429  -6.921  26.678  0.00  0.00    -0.386 OA
ATOM     53  H   UNL     1       1.192  -6.062  26.266  0.00  0.00    +0.210 HD
ENDBRANCH  44  52
BRANCH  43  54
ATOM     54  O   UNL     1       3.876  -7.171  28.369  0.00  0.00    -0.386 OA
ATOM     55  H   UNL     1       3.014  -7.596  28.529  0.00  0.00    +0.210 HD
ENDBRANCH  43  54
ENDBRANCH  41  42
ENDBRANCH  40  41
ENDBRANCH  33  40
BRANCH  35  56
ATOM     56  C   UNL     1       5.660  -0.545  25.437  0.00  0.00    +0.190 C 
BRANCH  56  57
ATOM     57  O   UNL     1       5.327   0.520  24.547  0.00  0.00    -0.392 OA
ATOM     58  H   UNL     1       4.497   0.899  24.900  0.00  0.00    +0.210 HD
ENDBRANCH  56  57
ENDBRANCH  35  56
ENDBRANCH   1  30
TORSDOF 22
ENDMDL
MODEL 7
REMARK VINA RESULT:      -7.5      1.953      2.764
REMARK  Name = 
REMARK  23 active torsions:
REMARK  status: ('A' for Active; 'I' for Inactive)
REMARK    1  A    between atoms: C_1  and  C_2
REMARK    2  A    between atoms: C_5  and  O_7
REMARK    3  A    between atoms: O_7  and  C_8
REMARK    4  A    between atoms: C_10  and  C_12
REMARK    5  A    between atoms: C_12  and  O_13
REMARK    6  A    between atoms: C_15  and  O_17
REMARK    7  A    between atoms: O_17  and  C_18
REMARK    8  A    between atoms: C_18  and  C_19
REMARK    9  A    between atoms: C_22  and  O_24
REMARK   10  A    between atoms: C_25  and  O_27
REMARK   11  A    between atoms: C_28  and  O_30
REMARK   12  A    between atoms: C_31  and  O_33
REMARK   13  A    between atoms: C_34  and  O_36
REMARK   14  A    between atoms: C_37  and  O_39
REMARK   15  A    between atoms: C_40  and  O_42
REMARK   16  A    between atoms: C_43  and  O_45
REMARK   17  A    between atoms: C_46  and  N_48
REMARK   18  A    between atoms: N_48  and  C_49
REMARK   19  A    between atoms: C_52  and  C_53
REMARK   20  A    between atoms: C_53  and  O_54
REMARK   21  A    between atoms: C_55  and  O_57
REMARK   22  A    between atoms: C_58  and  O_60
REMARK   23  A    between atoms: C_61  and  O_63
REMARK                            x       y       z     vdW  Elec       q    Type
REMARK                         _______ _______ _______ _____ _____    ______ ____
ROOT
ATOM      1  O   UNL     1       6.619  -3.159  23.412  0.00  0.00    -0.340 OA
ENDROOT
BRANCH   1   7
ATOM      2  C   UNL     1       2.691  -4.586  23.873  0.00  0.00    +0.039 C 
ATOM      3  C   UNL     1       3.862  -5.088  23.042  0.00  0.00    +0.138 C 
ATOM      4  C   UNL     1       4.751  -6.279  23.595  0.00  0.00    +0.114 C 
ATOM      5  C   UNL     1       6.269  -6.096  23.363  0.00  0.00    +0.167 C 
ATOM      6  C   UNL     1       6.533  -5.196  22.138  0.00  0.00    +0.200 C 
ATOM      7  C   UNL     1       5.875  -3.820  22.367  0.00  0.00    +0.282 C 
ATOM      8  O   UNL     1       4.499  -3.866  22.655  0.00  0.00    -0.344 OA
BRANCH   6   9
ATOM      9  O   UNL     1       6.072  -5.826  20.936  0.00  0.00    -0.384 OA
ATOM     10  H   UNL     1       6.837  -5.930  20.339  0.00  0.00    +0.210 HD
ENDBRANCH   6   9
BRANCH   5  11
ATOM     11  O   UNL     1       6.922  -5.620  24.547  0.00  0.00    -0.387 OA
ATOM     12  H   UNL     1       6.322  -5.763  25.305  0.00  0.00    +0.210 HD
ENDBRANCH   5  11
BRANCH   4  13
ATOM     13  N   UNL     1       4.303  -7.198  24.670  0.00  0.00    -0.300 NA
ATOM     14  H   UNL     1       4.996  -7.950  24.725  0.00  0.00    +0.123 HD
BRANCH  13  15
ATOM     15  C   UNL     1       4.003  -6.864  26.071  0.00  0.00    +0.109 C 
ATOM     16  C   UNL     1       2.561  -7.007  26.677  0.00  0.00    +0.166 C 
ATOM     17  C   UNL     1       2.493  -6.886  28.232  0.00  0.00    +0.177 C 
ATOM     18  C   UNL     1       3.615  -6.003  28.834  0.00  0.00    +0.173 C 
ATOM     19  C   UNL     1       4.980  -6.326  28.273  0.00  0.00    -0.016 C 
ATOM     20  C   UNL     1       5.123  -6.890  27.058  0.00  0.00    -0.002 C 
BRANCH  18  21
ATOM     21  O   UNL     1       3.315  -4.629  28.620  0.00  0.00    -0.385 OA
ATOM     22  H   UNL     1       4.047  -4.105  29.003  0.00  0.00    +0.210 HD
ENDBRANCH  18  21
BRANCH  17  23
ATOM     23  O   UNL     1       2.518  -8.181  28.867  0.00  0.00    -0.386 OA
ATOM     24  H   UNL     1       2.254  -8.028  29.794  0.00  0.00    +0.210 HD
ENDBRANCH  17  23
BRANCH  16  25
ATOM     25  O   UNL     1       1.846  -8.149  26.206  0.00  0.00    -0.387 OA
ATOM     26  H   UNL     1       1.116  -7.801  25.647  0.00  0.00    +0.210 HD
ENDBRANCH  16  25
BRANCH  19  27
ATOM     27  C   UNL     1       6.183  -5.845  29.021  0.00  0.00    +0.189 C 
BRANCH  27  28
ATOM     28  O   UNL     1       7.307  -6.173  28.207  0.00  0.00    -0.391 OA
ATOM     29  H   UNL     1       7.155  -7.071  27.864  0.00  0.00    +0.210 HD
ENDBRANCH  27  28
ENDBRANCH  19  27
ENDBRANCH  13  15
ENDBRANCH   4  13
ENDBRANCH   1   7
BRANCH   1  30
ATOM     30  C   UNL     1       7.371  -1.972  23.064  0.00  0.00    +0.183 C 
ATOM     31  C   UNL     1       6.628  -0.754  23.672  0.00  0.00    +0.179 C 
ATOM     32  C   UNL     1       7.292  -0.052  24.869  0.00  0.00    +0.201 C 
ATOM     33  C   UNL     1       8.842  -0.078  24.902  0.00  0.00    +0.282 C 
ATOM     34  O   UNL     1       9.386  -0.689  23.733  0.00  0.00    -0.341 OA
ATOM     35  C   UNL     1       8.859  -2.016  23.478  0.00  0.00    +0.178 C 
BRANCH  32  36
ATOM     36  O   UNL     1       6.785  -0.648  26.081  0.00  0.00    -0.384 OA
ATOM     37  H   UNL     1       6.311  -1.456  25.810  0.00  0.00    +0.210 HD
ENDBRANCH  32  36
BRANCH  31  38
ATOM     38  O   UNL     1       6.408   0.228  22.642  0.00  0.00    -0.386 OA
ATOM     39  H   UNL     1       5.459   0.447  22.664  0.00  0.00    +0.210 HD
ENDBRANCH  31  38
BRANCH  33  40
ATOM     40  O   UNL     1       9.291   1.278  25.123  0.00  0.00    -0.346 OA
BRANCH  40  41
ATOM     41  C   UNL     1      10.054   1.895  24.081  0.00  0.00    +0.197 C 
BRANCH  41  42
ATOM     42  C   UNL     1       9.476   3.194  23.464  0.00  0.00    +0.178 C 
ATOM     43  C   UNL     1       8.189   2.942  22.641  0.00  0.00    +0.177 C 
ATOM     44  C   UNL     1       7.510   4.270  22.248  0.00  0.00    +0.179 C 
ATOM     45  C   UNL     1       7.416   5.231  23.414  0.00  0.00    +0.201 C 
ATOM     46  C   UNL     1       8.805   5.406  24.047  0.00  0.00    +0.279 C 
ATOM     47  O   UNL     1       9.311   4.164  24.508  0.00  0.00    -0.341 OA
BRANCH  46  48
ATOM     48  O   UNL     1       8.669   6.262  25.166  0.00  0.00    -0.365 OA
ATOM     49  H   UNL     1       8.778   5.715  25.965  0.00  0.00    +0.213 HD
ENDBRANCH  46  48
BRANCH  45  50
ATOM     50  O   UNL     1       6.846   6.457  22.916  0.00  0.00    -0.384 OA
ATOM     51  H   UNL     1       5.973   6.575  23.327  0.00  0.00    +0.210 HD
ENDBRANCH  45  50
BRANCH  44  52
ATOM     52  O   UNL     1       6.172   4.023  21.763  0.00  0.00    -0.386 OA
ATOM     53  H   UNL     1       5.645   3.756  22.547  0.00  0.00    +0.210 HD
ENDBRANCH  44  52
BRANCH  43  54
ATOM     54  O   UNL     1       8.555   2.257  21.430  0.00  0.00    -0.386 OA
ATOM     55  H   UNL     1       9.181   2.823  20.944  0.00  0.00    +0.210 HD
ENDBRANCH  43  54
ENDBRANCH  41  42
ENDBRANCH  40  41
ENDBRANCH  33  40
BRANCH  35  56
ATOM     56  C   UNL     1       9.192  -2.990  24.625  0.00  0.00    +0.190 C 
BRANCH  56  57
ATOM     57  O   UNL     1       9.314  -4.312  24.102  0.00  0.00    -0.392 OA
ATOM     58  H   UNL     1       8.663  -4.360  23.373  0.00  0.00    +0.210 HD
ENDBRANCH  56  57
ENDBRANCH  35  56
ENDBRANCH   1  30
TORSDOF 22
ENDMDL
MODEL 8
REMARK VINA RESULT:      -7.5      3.808      9.580
REMARK  Name = 
REMARK  23 active torsions:
REMARK  status: ('A' for Active; 'I' for Inactive)
REMARK    1  A    between atoms: C_1  and  C_2
REMARK    2  A    between atoms: C_5  and  O_7
REMARK    3  A    between atoms: O_7  and  C_8
REMARK    4  A    between atoms: C_10  and  C_12
REMARK    5  A    between atoms: C_12  and  O_13
REMARK    6  A    between atoms: C_15  and  O_17
REMARK    7  A    between atoms: O_17  and  C_18
REMARK    8  A    between atoms: C_18  and  C_19
REMARK    9  A    between atoms: C_22  and  O_24
REMARK   10  A    between atoms: C_25  and  O_27
REMARK   11  A    between atoms: C_28  and  O_30
REMARK   12  A    between atoms: C_31  and  O_33
REMARK   13  A    between atoms: C_34  and  O_36
REMARK   14  A    between atoms: C_37  and  O_39
REMARK   15  A    between atoms: C_40  and  O_42
REMARK   16  A    between atoms: C_43  and  O_45
REMARK   17  A    between atoms: C_46  and  N_48
REMARK   18  A    between atoms: N_48  and  C_49
REMARK   19  A    between atoms: C_52  and  C_53
REMARK   20  A    between atoms: C_53  and  O_54
REMARK   21  A    between atoms: C_55  and  O_57
REMARK   22  A    between atoms: C_58  and  O_60
REMARK   23  A    between atoms: C_61  and  O_63
REMARK                            x       y       z     vdW  Elec       q    Type
REMARK                         _______ _______ _______ _____ _____    ______ ____
ROOT
ATOM      1  O   UNL     1       4.752   1.112  28.047  0.00  0.00    -0.340 OA
ENDROOT
BRANCH   1   7
ATOM      2  C   UNL     1       4.895   3.743  24.771  0.00  0.00    +0.039 C 
ATOM      3  C   UNL     1       5.403   3.871  26.198  0.00  0.00    +0.138 C 
ATOM      4  C   UNL     1       6.932   3.587  26.506  0.00  0.00    +0.114 C 
ATOM      5  C   UNL     1       7.178   2.786  27.806  0.00  0.00    +0.167 C 
ATOM      6  C   UNL     1       6.027   3.002  28.809  0.00  0.00    +0.200 C 
ATOM      7  C   UNL     1       4.700   2.548  28.166  0.00  0.00    +0.282 C 
ATOM      8  O   UNL     1       4.403   3.164  26.937  0.00  0.00    -0.344 OA
BRANCH   6   9
ATOM      9  O   UNL     1       5.981   4.367  29.246  0.00  0.00    -0.384 OA
ATOM     10  H   UNL     1       5.478   4.398  30.081  0.00  0.00    +0.210 HD
ENDBRANCH   6   9
BRANCH   5  11
ATOM     11  O   UNL     1       7.413   1.400  27.527  0.00  0.00    -0.387 OA
ATOM     12  H   UNL     1       7.497   0.927  28.378  0.00  0.00    +0.210 HD
ENDBRANCH   5  11
BRANCH   4  13
ATOM     13  N   UNL     1       7.986   3.583  25.461  0.00  0.00    -0.300 NA
ATOM     14  H   UNL     1       8.883   3.695  25.943  0.00  0.00    +0.123 HD
BRANCH  13  15
ATOM     15  C   UNL     1       8.236   2.555  24.440  0.00  0.00    +0.109 C 
ATOM     16  C   UNL     1       7.880   2.771  22.925  0.00  0.00    +0.166 C 
ATOM     17  C   UNL     1       8.475   1.701  21.957  0.00  0.00    +0.177 C 
ATOM     18  C   UNL     1       8.689   0.317  22.619  0.00  0.00    +0.173 C 
ATOM     19  C   UNL     1       9.363   0.410  23.967  0.00  0.00    -0.016 C 
ATOM     20  C   UNL     1       9.284   1.528  24.715  0.00  0.00    -0.002 C 
BRANCH  18  21
ATOM     21  O   UNL     1       7.441  -0.355  22.746  0.00  0.00    -0.385 OA
ATOM     22  H   UNL     1       7.502  -0.942  23.526  0.00  0.00    +0.210 HD
ENDBRANCH  18  21
BRANCH  17  23
ATOM     23  O   UNL     1       9.718   2.144  21.375  0.00  0.00    -0.386 OA
ATOM     24  H   UNL     1       9.561   2.192  20.413  0.00  0.00    +0.210 HD
ENDBRANCH  17  23
BRANCH  16  25
ATOM     25  O   UNL     1       8.123   4.098  22.458  0.00  0.00    -0.387 OA
ATOM     26  H   UNL     1       8.714   4.006  21.678  0.00  0.00    +0.210 HD
ENDBRANCH  16  25
BRANCH  19  27
ATOM     27  C   UNL     1       9.977  -0.829  24.537  0.00  0.00    +0.189 C 
BRANCH  27  28
ATOM     28  O   UNL     1      10.249  -1.679  23.425  0.00  0.00    -0.391 OA
ATOM     29  H   UNL     1       9.919  -2.565  23.659  0.00  0.00    +0.210 HD
ENDBRANCH  27  28
ENDBRANCH  19  27
ENDBRANCH  13  15
ENDBRANCH   4  13
ENDBRANCH   1   7
BRANCH   1  30
ATOM     30  C   UNL     1       4.099   0.501  26.908  0.00  0.00    +0.183 C 
ATOM     31  C   UNL     1       5.197  -0.180  26.050  0.00  0.00    +0.179 C 
ATOM     32  C   UNL     1       5.235  -1.719  26.050  0.00  0.00    +0.201 C 
ATOM     33  C   UNL     1       3.872  -2.435  26.230  0.00  0.00    +0.282 C 
ATOM     34  O   UNL     1       2.788  -1.508  26.273  0.00  0.00    -0.341 OA
ATOM     35  C   UNL     1       2.956  -0.473  27.275  0.00  0.00    +0.178 C 
BRANCH  32  36
ATOM     36  O   UNL     1       6.135  -2.149  27.092  0.00  0.00    -0.384 OA
ATOM     37  H   UNL     1       5.575  -2.402  27.849  0.00  0.00    +0.210 HD
ENDBRANCH  32  36
BRANCH  31  38
ATOM     38  O   UNL     1       5.077   0.266  24.687  0.00  0.00    -0.386 OA
ATOM     39  H   UNL     1       5.984   0.377  24.350  0.00  0.00    +0.210 HD
ENDBRANCH  31  38
BRANCH  33  40
ATOM     40  O   UNL     1       3.763  -3.422  25.178  0.00  0.00    -0.346 OA
BRANCH  40  41
ATOM     41  C   UNL     1       4.247  -4.739  25.461  0.00  0.00    +0.197 C 
BRANCH  41  42
ATOM     42  C   UNL     1       5.701  -5.058  25.027  0.00  0.00    +0.178 C 
ATOM     43  C   UNL     1       6.177  -4.178  23.846  0.00  0.00    +0.177 C 
ATOM     44  C   UNL     1       7.690  -4.348  23.599  0.00  0.00    +0.179 C 
ATOM     45  C   UNL     1       8.489  -4.286  24.883  0.00  0.00    +0.201 C 
ATOM     46  C   UNL     1       7.907  -5.284  25.897  0.00  0.00    +0.279 C 
ATOM     47  O   UNL     1       6.551  -4.985  26.180  0.00  0.00    -0.341 OA
BRANCH  46  48
ATOM     48  O   UNL     1       8.641  -5.157  27.102  0.00  0.00    -0.365 OA
ATOM     49  H   UNL     1       9.027  -4.263  27.113  0.00  0.00    +0.213 HD
ENDBRANCH  46  48
BRANCH  45  50
ATOM     50  O   UNL     1       9.866  -4.539  24.545  0.00  0.00    -0.384 OA
ATOM     51  H   UNL     1       9.905  -4.807  23.611  0.00  0.00    +0.210 HD
ENDBRANCH  45  50
BRANCH  44  52
ATOM     52  O   UNL     1       8.173  -3.309  22.721  0.00  0.00    -0.386 OA
ATOM     53  H   UNL     1       8.011  -3.629  21.807  0.00  0.00    +0.210 HD
ENDBRANCH  44  52
BRANCH  43  54
ATOM     54  O   UNL     1       5.484  -4.603  22.658  0.00  0.00    -0.386 OA
ATOM     55  H   UNL     1       4.597  -4.202  22.671  0.00  0.00    +0.210 HD
ENDBRANCH  43  54
ENDBRANCH  41  42
ENDBRANCH  40  41
ENDBRANCH  33  40
BRANCH  35  56
ATOM     56  C   UNL     1       3.029  -1.064  28.696  0.00  0.00    +0.190 C 
BRANCH  56  57
ATOM     57  O   UNL     1       2.612  -0.078  29.640  0.00  0.00    -0.392 OA
ATOM     58  H   UNL     1       1.659  -0.249  29.786  0.00  0.00    +0.210 HD
ENDBRANCH  56  57
ENDBRANCH  35  56
ENDBRANCH   1  30
TORSDOF 22
ENDMDL
MODEL 9
REMARK VINA RESULT:      -7.5      3.074      5.978
REMARK  Name = 
REMARK  23 active torsions:
REMARK  status: ('A' for Active; 'I' for Inactive)
REMARK    1  A    between atoms: C_1  and  C_2
REMARK    2  A    between atoms: C_5  and  O_7
REMARK    3  A    between atoms: O_7  and  C_8
REMARK    4  A    between atoms: C_10  and  C_12
REMARK    5  A    between atoms: C_12  and  O_13
REMARK    6  A    between atoms: C_15  and  O_17
REMARK    7  A    between atoms: O_17  and  C_18
REMARK    8  A    between atoms: C_18  and  C_19
REMARK    9  A    between atoms: C_22  and  O_24
REMARK   10  A    between atoms: C_25  and  O_27
REMARK   11  A    between atoms: C_28  and  O_30
REMARK   12  A    between atoms: C_31  and  O_33
REMARK   13  A    between atoms: C_34  and  O_36
REMARK   14  A    between atoms: C_37  and  O_39
REMARK   15  A    between atoms: C_40  and  O_42
REMARK   16  A    between atoms: C_43  and  O_45
REMARK   17  A    between atoms: C_46  and  N_48
REMARK   18  A    between atoms: N_48  and  C_49
REMARK   19  A    between atoms: C_52  and  C_53
REMARK   20  A    between atoms: C_53  and  O_54
REMARK   21  A    between atoms: C_55  and  O_57
REMARK   22  A    between atoms: C_58  and  O_60
REMARK   23  A    between atoms: C_61  and  O_63
REMARK                            x       y       z     vdW  Elec       q    Type
REMARK                         _______ _______ _______ _____ _____    ______ ____
ROOT
ATOM      1  O   UNL     1       3.122  -1.381  26.605  0.00  0.00    -0.340 OA
ENDROOT
BRANCH   1   7
ATOM      2  C   UNL     1       4.952  -4.539  28.691  0.00  0.00    +0.039 C 
ATOM      3  C   UNL     1       3.680  -4.474  27.861  0.00  0.00    +0.138 C 
ATOM      4  C   UNL     1       3.711  -4.965  26.354  0.00  0.00    +0.114 C 
ATOM      5  C   UNL     1       2.917  -4.064  25.378  0.00  0.00    +0.167 C 
ATOM      6  C   UNL     1       1.786  -3.319  26.116  0.00  0.00    +0.200 C 
ATOM      7  C   UNL     1       2.395  -2.454  27.238  0.00  0.00    +0.282 C 
ATOM      8  O   UNL     1       3.198  -3.158  28.153  0.00  0.00    -0.344 OA
BRANCH   6   9
ATOM      9  O   UNL     1       0.807  -4.242  26.611  0.00  0.00    -0.384 OA
ATOM     10  H   UNL     1       1.192  -4.704  27.379  0.00  0.00    +0.210 HD
ENDBRANCH   6   9
BRANCH   5  11
ATOM     11  O   UNL     1       3.787  -3.177  24.664  0.00  0.00    -0.387 OA
ATOM     12  H   UNL     1       3.246  -2.657  24.037  0.00  0.00    +0.210 HD
ENDBRANCH   5  11
BRANCH   4  13
ATOM     13  N   UNL     1       4.776  -5.839  25.804  0.00  0.00    -0.300 NA
ATOM     14  H   UNL     1       4.307  -6.597  25.299  0.00  0.00    +0.123 HD
BRANCH  13  15
ATOM     15  C   UNL     1       5.899  -5.451  24.937  0.00  0.00    +0.109 C 
ATOM     16  C   UNL     1       7.300  -5.037  25.514  0.00  0.00    +0.166 C 
ATOM     17  C   UNL     1       8.439  -4.940  24.452  0.00  0.00    +0.177 C 
ATOM     18  C   UNL     1       7.933  -4.579  23.032  0.00  0.00    +0.173 C 
ATOM     19  C   UNL     1       6.732  -5.394  22.614  0.00  0.00    -0.016 C 
ATOM     20  C   UNL     1       5.901  -5.937  23.525  0.00  0.00    -0.002 C 
BRANCH  18  21
ATOM     21  O   UNL     1       7.626  -3.192  22.967  0.00  0.00    -0.385 OA
ATOM     22  H   UNL     1       6.662  -3.098  23.102  0.00  0.00    +0.210 HD
ENDBRANCH  18  21
BRANCH  17  23
ATOM     23  O   UNL     1       9.209  -6.158  24.384  0.00  0.00    -0.386 OA
ATOM     24  H   UNL     1       9.987  -5.952  23.833  0.00  0.00    +0.210 HD
ENDBRANCH  17  23
BRANCH  16  25
ATOM     25  O   UNL     1       7.705  -5.798  26.652  0.00  0.00    -0.387 OA
ATOM     26  H   UNL     1       7.013  -6.484  26.780  0.00  0.00    +0.210 HD
ENDBRANCH  16  25
BRANCH  19  27
ATOM     27  C   UNL     1       6.380  -5.439  21.161  0.00  0.00    +0.189 C 
BRANCH  27  28
ATOM     28  O   UNL     1       5.728  -4.203  20.877  0.00  0.00    -0.391 OA
ATOM     29  H   UNL     1       4.837  -4.421  20.552  0.00  0.00    +0.210 HD
ENDBRANCH  27  28
ENDBRANCH  19  27
ENDBRANCH  13  15
ENDBRANCH   4  13
ENDBRANCH   1   7
BRANCH   1  30
ATOM     30  C   UNL     1       4.338  -0.917  27.238  0.00  0.00    +0.183 C 
ATOM     31  C   UNL     1       5.515  -1.240  26.281  0.00  0.00    +0.179 C 
ATOM     32  C   UNL     1       6.187  -0.053  25.568  0.00  0.00    +0.201 C 
ATOM     33  C   UNL     1       6.195   1.292  26.341  0.00  0.00    +0.282 C 
ATOM     34  O   UNL     1       5.642   1.153  27.649  0.00  0.00    -0.341 OA
ATOM     35  C   UNL     1       4.314   0.571  27.653  0.00  0.00    +0.178 C 
BRANCH  32  36
ATOM     36  O   UNL     1       5.533   0.139  24.296  0.00  0.00    -0.384 OA
ATOM     37  H   UNL     1       4.629  -0.211  24.398  0.00  0.00    +0.210 HD
ENDBRANCH  32  36
BRANCH  31  38
ATOM     38  O   UNL     1       6.530  -1.960  27.005  0.00  0.00    -0.386 OA
ATOM     39  H   UNL     1       6.126  -2.800  27.288  0.00  0.00    +0.210 HD
ENDBRANCH  31  38
BRANCH  33  40
ATOM     40  O   UNL     1       7.553   1.789  26.323  0.00  0.00    -0.346 OA
BRANCH  40  41
ATOM     41  C   UNL     1       7.973   2.509  25.160  0.00  0.00    +0.197 C 
BRANCH  41  42
ATOM     42  C   UNL     1       8.934   1.773  24.191  0.00  0.00    +0.178 C 
ATOM     43  C   UNL     1       9.271   0.337  24.663  0.00  0.00    +0.177 C 
ATOM     44  C   UNL     1      10.026  -0.446  23.568  0.00  0.00    +0.179 C 
ATOM     45  C   UNL     1       9.381  -0.290  22.207  0.00  0.00    +0.201 C 
ATOM     46  C   UNL     1       9.201   1.203  21.893  0.00  0.00    +0.279 C 
ATOM     47  O   UNL     1       8.386   1.831  22.867  0.00  0.00    -0.341 OA
BRANCH  46  48
ATOM     48  O   UNL     1       8.544   1.309  20.642  0.00  0.00    -0.365 OA
ATOM     49  H   UNL     1       8.682   0.468  20.170  0.00  0.00    +0.213 HD
ENDBRANCH  46  48
BRANCH  45  50
ATOM     50  O   UNL     1      10.208  -0.988  21.257  0.00  0.00    -0.384 OA
ATOM     51  H   UNL     1       9.757  -1.813  21.009  0.00  0.00    +0.210 HD
ENDBRANCH  45  50
BRANCH  44  52
ATOM     52  O   UNL     1      10.056  -1.853  23.891  0.00  0.00    -0.386 OA
ATOM     53  H   UNL     1       9.258  -2.244  23.472  0.00  0.00    +0.210 HD
ENDBRANCH  44  52
BRANCH  43  54
ATOM     54  O   UNL     1      10.132   0.430  25.812  0.00  0.00    -0.386 OA
ATOM     55  H   UNL     1       9.634   0.872  26.523  0.00  0.00    +0.210 HD
ENDBRANCH  43  54
ENDBRANCH  41  42
ENDBRANCH  40  41
ENDBRANCH  33  40
BRANCH  35  56
ATOM     56  C   UNL     1       3.305   1.449  26.887  0.00  0.00    +0.190 C 
BRANCH  56  57
ATOM     57  O   UNL     1       1.991   1.208  27.390  0.00  0.00    -0.392 OA
ATOM     58  H   UNL     1       1.735   2.036  27.844  0.00  0.00    +0.210 HD
ENDBRANCH  56  57
ENDBRANCH  35  56
ENDBRANCH   1  30
TORSDOF 22
ENDMDL
