MODEL 1
REMARK VINA RESULT:      -4.4      0.000      0.000
REMARK  Name = 
REMARK  12 active torsions:
REMARK  status: ('A' for Active; 'I' for Inactive)
REMARK    1  A    between atoms: O_1  and  C_2
REMARK    2  A    between atoms: C_2  and  C_3
REMARK    3  A    between atoms: C_3  and  O_5
REMARK    4  A    between atoms: C_3  and  C_6
REMARK    5  A    between atoms: C_6  and  O_8
REMARK    6  A    between atoms: C_6  and  C_9
REMARK    7  A    between atoms: C_9  and  O_11
REMARK    8  A    between atoms: C_9  and  C_12
REMARK    9  A    between atoms: C_12  and  O_13
REMARK   10  A    between atoms: O_13  and  P_14
REMARK   11  A    between atoms: P_14  and  O_15
REMARK   12  A    between atoms: P_14  and  O_16
REMARK                            x       y       z     vdW  Elec       q    Type
REMARK                         _______ _______ _______ _____ _____    ______ ____
ROOT
ATOM      1  C   UNL     1       9.168   1.656  21.879  0.00  0.00    +0.172 C 
ENDROOT
BRANCH   1   2
ATOM      2  O   UNL     1      10.336   2.394  21.517  0.00  0.00    -0.387 OA
ATOM      3  H   UNL     1      10.080   3.276  21.209  0.00  0.00    +0.210 HD
ENDBRANCH   1   2
BRANCH   1   4
ATOM      4  C   UNL     1       8.644   2.005  23.291  0.00  0.00    +0.176 C 
BRANCH   4   5
ATOM      5  O   UNL     1       9.712   1.798  24.235  0.00  0.00    -0.387 OA
ATOM      6  H   UNL     1       9.702   0.864  24.507  0.00  0.00    +0.210 HD
ENDBRANCH   4   5
BRANCH   4   7
ATOM      7  C   UNL     1       8.144   3.453  23.459  0.00  0.00    +0.171 C 
BRANCH   7   8
ATOM      8  O   UNL     1       8.003   4.045  22.150  0.00  0.00    -0.387 OA
ATOM      9  H   UNL     1       7.902   3.285  21.544  0.00  0.00    +0.210 HD
ENDBRANCH   7   8
BRANCH   7  10
ATOM     10  C   UNL     1       9.096   4.355  24.248  0.00  0.00    +0.189 C 
BRANCH  10  11
ATOM     11  O   UNL     1      10.229   4.641  23.424  0.00  0.00    -0.392 OA
ATOM     12  H   UNL     1      10.887   5.084  23.987  0.00  0.00    +0.210 HD
ENDBRANCH  10  11
ENDBRANCH   7  10
ENDBRANCH   4   7
ENDBRANCH   1   4
BRANCH   1  13
ATOM     13  C   UNL     1       9.508   0.156  21.826  0.00  0.00    +0.206 C 
BRANCH  13  14
ATOM     14  O   UNL     1       8.657  -0.599  22.694  0.00  0.00    -0.284 OA
BRANCH  14  15
ATOM     15  P   UNL     1       9.483  -1.985  23.319  0.00  0.00    +0.472 P 
ATOM     16  O   UNL     1      10.221  -3.225  23.879  0.00  0.00    -0.228 OA
BRANCH  15  17
ATOM     17  O   UNL     1      10.247  -0.925  24.304  0.00  0.00    -0.303 OA
ATOM     18  H   UNL     1       9.543  -0.460  24.794  0.00  0.00    +0.222 HD
ENDBRANCH  15  17
BRANCH  15  19
ATOM     19  O   UNL     1      10.528  -1.745  22.080  0.00  0.00    -0.303 OA
ATOM     20  H   UNL     1      10.657  -0.799  21.898  0.00  0.00    +0.222 HD
ENDBRANCH  15  19
ENDBRANCH  14  15
ENDBRANCH  13  14
ENDBRANCH   1  13
TORSDOF 12
ENDMDL
MODEL 2
REMARK VINA RESULT:      -4.3      2.336      3.849
REMARK  Name = 
REMARK  12 active torsions:
REMARK  status: ('A' for Active; 'I' for Inactive)
REMARK    1  A    between atoms: O_1  and  C_2
REMARK    2  A    between atoms: C_2  and  C_3
REMARK    3  A    between atoms: C_3  and  O_5
REMARK    4  A    between atoms: C_3  and  C_6
REMARK    5  A    between atoms: C_6  and  O_8
REMARK    6  A    between atoms: C_6  and  C_9
REMARK    7  A    between atoms: C_9  and  O_11
REMARK    8  A    between atoms: C_9  and  C_12
REMARK    9  A    between atoms: C_12  and  O_13
REMARK   10  A    between atoms: O_13  and  P_14
REMARK   11  A    between atoms: P_14  and  O_15
REMARK   12  A    between atoms: P_14  and  O_16
REMARK                            x       y       z     vdW  Elec       q    Type
REMARK                         _______ _______ _______ _____ _____    ______ ____
ROOT
ATOM      1  C   UNL     1       8.678  -1.706  23.243  0.00  0.00    +0.172 C 
ENDROOT
BRANCH   1   2
ATOM      2  O   UNL     1       8.284  -2.800  22.415  0.00  0.00    -0.387 OA
ATOM      3  H   UNL     1       8.028  -3.551  22.970  0.00  0.00    +0.210 HD
ENDBRANCH   1   2
BRANCH   1   4
ATOM      4  C   UNL     1       9.629  -0.716  22.529  0.00  0.00    +0.176 C 
BRANCH   4   5
ATOM      5  O   UNL     1       9.957  -1.256  21.235  0.00  0.00    -0.387 OA
ATOM      6  H   UNL     1       9.728  -0.593  20.561  0.00  0.00    +0.210 HD
ENDBRANCH   4   5
BRANCH   4   7
ATOM      7  C   UNL     1       9.053   0.697  22.315  0.00  0.00    +0.171 C 
BRANCH   7   8
ATOM      8  O   UNL     1       8.873   0.910  20.899  0.00  0.00    -0.387 OA
ATOM      9  H   UNL     1       9.620   1.485  20.637  0.00  0.00    +0.210 HD
ENDBRANCH   7   8
BRANCH   7  10
ATOM     10  C   UNL     1       9.960   1.823  22.817  0.00  0.00    +0.189 C 
BRANCH  10  11
ATOM     11  O   UNL     1      10.508   2.498  21.680  0.00  0.00    -0.392 OA
ATOM     12  H   UNL     1       9.929   2.298  20.924  0.00  0.00    +0.210 HD
ENDBRANCH  10  11
ENDBRANCH   7  10
ENDBRANCH   4   7
ENDBRANCH   1   4
BRANCH   1  13
ATOM     13  C   UNL     1       9.386  -2.272  24.487  0.00  0.00    +0.206 C 
BRANCH  13  14
ATOM     14  O   UNL     1       9.850  -3.606  24.257  0.00  0.00    -0.284 OA
BRANCH  14  15
ATOM     15  P   UNL     1       9.007  -4.736  25.260  0.00  0.00    +0.472 P 
ATOM     16  O   UNL     1       8.252  -5.747  26.158  0.00  0.00    -0.228 OA
BRANCH  15  17
ATOM     17  O   UNL     1      10.432  -5.536  25.336  0.00  0.00    -0.303 OA
ATOM     18  H   UNL     1      10.282  -6.393  24.895  0.00  0.00    +0.222 HD
ENDBRANCH  15  17
BRANCH  15  19
ATOM     19  O   UNL     1       8.566  -5.444  23.849  0.00  0.00    -0.303 OA
ATOM     20  H   UNL     1       7.610  -5.367  23.693  0.00  0.00    +0.222 HD
ENDBRANCH  15  19
ENDBRANCH  14  15
ENDBRANCH  13  14
ENDBRANCH   1  13
TORSDOF 12
ENDMDL
MODEL 3
REMARK VINA RESULT:      -4.3      1.399      2.102
REMARK  Name = 
REMARK  12 active torsions:
REMARK  status: ('A' for Active; 'I' for Inactive)
REMARK    1  A    between atoms: O_1  and  C_2
REMARK    2  A    between atoms: C_2  and  C_3
REMARK    3  A    between atoms: C_3  and  O_5
REMARK    4  A    between atoms: C_3  and  C_6
REMARK    5  A    between atoms: C_6  and  O_8
REMARK    6  A    between atoms: C_6  and  C_9
REMARK    7  A    between atoms: C_9  and  O_11
REMARK    8  A    between atoms: C_9  and  C_12
REMARK    9  A    between atoms: C_12  and  O_13
REMARK   10  A    between atoms: O_13  and  P_14
REMARK   11  A    between atoms: P_14  and  O_15
REMARK   12  A    between atoms: P_14  and  O_16
REMARK                            x       y       z     vdW  Elec       q    Type
REMARK                         _______ _______ _______ _____ _____    ______ ____
ROOT
ATOM      1  C   UNL     1       8.944   1.568  21.671  0.00  0.00    +0.172 C 
ENDROOT
BRANCH   1   2
ATOM      2  O   UNL     1      10.203   2.234  21.570  0.00  0.00    -0.387 OA
ATOM      3  H   UNL     1      10.746   1.800  20.895  0.00  0.00    +0.210 HD
ENDBRANCH   1   2
BRANCH   1   4
ATOM      4  C   UNL     1       8.142   1.974  22.928  0.00  0.00    +0.176 C 
BRANCH   4   5
ATOM      5  O   UNL     1       7.614   0.780  23.536  0.00  0.00    -0.387 OA
ATOM      6  H   UNL     1       7.872   0.776  24.474  0.00  0.00    +0.210 HD
ENDBRANCH   4   5
BRANCH   4   7
ATOM      7  C   UNL     1       8.953   2.726  24.001  0.00  0.00    +0.171 C 
BRANCH   7   8
ATOM      8  O   UNL     1       9.982   1.846  24.501  0.00  0.00    -0.387 OA
ATOM      9  H   UNL     1       9.595   1.444  25.305  0.00  0.00    +0.210 HD
ENDBRANCH   7   8
BRANCH   7  10
ATOM     10  C   UNL     1       8.128   3.169  25.212  0.00  0.00    +0.189 C 
BRANCH  10  11
ATOM     11  O   UNL     1       8.002   2.055  26.100  0.00  0.00    -0.392 OA
ATOM     12  H   UNL     1       7.797   1.277  25.554  0.00  0.00    +0.210 HD
ENDBRANCH  10  11
ENDBRANCH   7  10
ENDBRANCH   4   7
ENDBRANCH   1   4
BRANCH   1  13
ATOM     13  C   UNL     1       9.202   0.051  21.708  0.00  0.00    +0.206 C 
BRANCH  13  14
ATOM     14  O   UNL     1      10.305  -0.267  22.563  0.00  0.00    -0.284 OA
BRANCH  14  15
ATOM     15  P   UNL     1      10.104  -1.829  23.279  0.00  0.00    +0.472 P 
ATOM     16  O   UNL     1       9.926  -3.227  23.920  0.00  0.00    -0.228 OA
BRANCH  15  17
ATOM     17  O   UNL     1       8.613  -1.805  22.606  0.00  0.00    -0.303 OA
ATOM     18  H   UNL     1       8.381  -2.737  22.436  0.00  0.00    +0.222 HD
ENDBRANCH  15  17
BRANCH  15  19
ATOM     19  O   UNL     1       9.630  -1.001  24.611  0.00  0.00    -0.303 OA
ATOM     20  H   UNL     1      10.107  -1.296  25.405  0.00  0.00    +0.222 HD
ENDBRANCH  15  19
ENDBRANCH  14  15
ENDBRANCH  13  14
ENDBRANCH   1  13
TORSDOF 12
ENDMDL
MODEL 4
REMARK VINA RESULT:      -4.1      2.365      3.809
REMARK  Name = 
REMARK  12 active torsions:
REMARK  status: ('A' for Active; 'I' for Inactive)
REMARK    1  A    between atoms: O_1  and  C_2
REMARK    2  A    between atoms: C_2  and  C_3
REMARK    3  A    between atoms: C_3  and  O_5
REMARK    4  A    between atoms: C_3  and  C_6
REMARK    5  A    between atoms: C_6  and  O_8
REMARK    6  A    between atoms: C_6  and  C_9
REMARK    7  A    between atoms: C_9  and  O_11
REMARK    8  A    between atoms: C_9  and  C_12
REMARK    9  A    between atoms: C_12  and  O_13
REMARK   10  A    between atoms: O_13  and  P_14
REMARK   11  A    between atoms: P_14  and  O_15
REMARK   12  A    between atoms: P_14  and  O_16
REMARK                            x       y       z     vdW  Elec       q    Type
REMARK                         _______ _______ _______ _____ _____    ______ ____
ROOT
ATOM      1  C   UNL     1       9.341  -1.770  22.822  0.00  0.00    +0.172 C 
ENDROOT
BRANCH   1   2
ATOM      2  O   UNL     1      10.668  -2.185  22.498  0.00  0.00    -0.387 OA
ATOM      3  H   UNL     1      10.640  -3.054  22.070  0.00  0.00    +0.210 HD
ENDBRANCH   1   2
BRANCH   1   4
ATOM      4  C   UNL     1       9.302  -0.521  23.734  0.00  0.00    +0.176 C 
BRANCH   4   5
ATOM      5  O   UNL     1       9.507  -0.946  25.094  0.00  0.00    -0.387 OA
ATOM      6  H   UNL     1      10.352  -0.575  25.404  0.00  0.00    +0.210 HD
ENDBRANCH   4   5
BRANCH   4   7
ATOM      7  C   UNL     1      10.361   0.551  23.412  0.00  0.00    +0.171 C 
BRANCH   7   8
ATOM      8  O   UNL     1      11.139   0.800  24.601  0.00  0.00    -0.387 OA
ATOM      9  H   UNL     1      11.858   0.139  24.571  0.00  0.00    +0.210 HD
ENDBRANCH   7   8
BRANCH   7  10
ATOM     10  C   UNL     1       9.775   1.898  22.980  0.00  0.00    +0.189 C 
BRANCH  10  11
ATOM     11  O   UNL     1      10.208   2.168  21.644  0.00  0.00    -0.392 OA
ATOM     12  H   UNL     1      11.157   1.958  21.604  0.00  0.00    +0.210 HD
ENDBRANCH  10  11
ENDBRANCH   7  10
ENDBRANCH   4   7
ENDBRANCH   1   4
BRANCH   1  13
ATOM     13  C   UNL     1       8.631  -2.934  23.535  0.00  0.00    +0.206 C 
BRANCH  13  14
ATOM     14  O   UNL     1       9.572  -3.798  24.181  0.00  0.00    -0.284 OA
BRANCH  14  15
ATOM     15  P   UNL     1       8.774  -4.876  25.275  0.00  0.00    +0.472 P 
ATOM     16  O   UNL     1       8.061  -5.841  26.252  0.00  0.00    -0.228 OA
BRANCH  15  17
ATOM     17  O   UNL     1       9.005  -3.705  26.394  0.00  0.00    -0.303 OA
ATOM     18  H   UNL     1       9.481  -2.987  25.937  0.00  0.00    +0.222 HD
ENDBRANCH  15  17
BRANCH  15  19
ATOM     19  O   UNL     1      10.263  -5.525  25.497  0.00  0.00    -0.303 OA
ATOM     20  H   UNL     1      10.961  -4.951  25.138  0.00  0.00    +0.222 HD
ENDBRANCH  15  19
ENDBRANCH  14  15
ENDBRANCH  13  14
ENDBRANCH   1  13
TORSDOF 12
ENDMDL
MODEL 5
REMARK VINA RESULT:      -4.1      1.292      2.044
REMARK  Name = 
REMARK  12 active torsions:
REMARK  status: ('A' for Active; 'I' for Inactive)
REMARK    1  A    between atoms: O_1  and  C_2
REMARK    2  A    between atoms: C_2  and  C_3
REMARK    3  A    between atoms: C_3  and  O_5
REMARK    4  A    between atoms: C_3  and  C_6
REMARK    5  A    between atoms: C_6  and  O_8
REMARK    6  A    between atoms: C_6  and  C_9
REMARK    7  A    between atoms: C_9  and  O_11
REMARK    8  A    between atoms: C_9  and  C_12
REMARK    9  A    between atoms: C_12  and  O_13
REMARK   10  A    between atoms: O_13  and  P_14
REMARK   11  A    between atoms: P_14  and  O_15
REMARK   12  A    between atoms: P_14  and  O_16
REMARK                            x       y       z     vdW  Elec       q    Type
REMARK                         _______ _______ _______ _____ _____    ______ ____
ROOT
ATOM      1  C   UNL     1       9.745   1.102  23.847  0.00  0.00    +0.172 C 
ENDROOT
BRANCH   1   2
ATOM      2  O   UNL     1       9.491   1.326  25.234  0.00  0.00    -0.387 OA
ATOM      3  H   UNL     1       9.739   2.232  25.466  0.00  0.00    +0.210 HD
ENDBRANCH   1   2
BRANCH   1   4
ATOM      4  C   UNL     1      10.359   2.330  23.136  0.00  0.00    +0.176 C 
BRANCH   4   5
ATOM      5  O   UNL     1      10.063   2.236  21.730  0.00  0.00    -0.387 OA
ATOM      6  H   UNL     1      10.903   2.254  21.240  0.00  0.00    +0.210 HD
ENDBRANCH   4   5
BRANCH   4   7
ATOM      7  C   UNL     1       9.840   3.694  23.634  0.00  0.00    +0.171 C 
BRANCH   7   8
ATOM      8  O   UNL     1       8.798   4.143  22.743  0.00  0.00    -0.387 OA
ATOM      9  H   UNL     1       7.964   3.916  23.201  0.00  0.00    +0.210 HD
ENDBRANCH   7   8
BRANCH   7  10
ATOM     10  C   UNL     1      10.903   4.795  23.657  0.00  0.00    +0.189 C 
BRANCH  10  11
ATOM     11  O   UNL     1      11.911   4.465  22.697  0.00  0.00    -0.392 OA
ATOM     12  H   UNL     1      12.767   4.719  23.083  0.00  0.00    +0.210 HD
ENDBRANCH  10  11
ENDBRANCH   7  10
ENDBRANCH   4   7
ENDBRANCH   1   4
BRANCH   1  13
ATOM     13  C   UNL     1       8.414   0.740  23.164  0.00  0.00    +0.206 C 
BRANCH  13  14
ATOM     14  O   UNL     1       8.582  -0.341  22.240  0.00  0.00    -0.284 OA
BRANCH  14  15
ATOM     15  P   UNL     1       9.456  -1.646  22.966  0.00  0.00    +0.472 P 
ATOM     16  O   UNL     1      10.237  -2.814  23.617  0.00  0.00    -0.228 OA
BRANCH  15  17
ATOM     17  O   UNL     1      10.378  -1.611  21.615  0.00  0.00    -0.303 OA
ATOM     18  H   UNL     1      10.513  -2.542  21.359  0.00  0.00    +0.222 HD
ENDBRANCH  15  17
BRANCH  15  19
ATOM     19  O   UNL     1       8.312  -2.603  22.286  0.00  0.00    -0.303 OA
ATOM     20  H   UNL     1       7.671  -2.083  21.772  0.00  0.00    +0.222 HD
ENDBRANCH  15  19
ENDBRANCH  14  15
ENDBRANCH  13  14
ENDBRANCH   1  13
TORSDOF 12
ENDMDL
MODEL 6
REMARK VINA RESULT:      -4.1      4.359      6.425
REMARK  Name = 
REMARK  12 active torsions:
REMARK  status: ('A' for Active; 'I' for Inactive)
REMARK    1  A    between atoms: O_1  and  C_2
REMARK    2  A    between atoms: C_2  and  C_3
REMARK    3  A    between atoms: C_3  and  O_5
REMARK    4  A    between atoms: C_3  and  C_6
REMARK    5  A    between atoms: C_6  and  O_8
REMARK    6  A    between atoms: C_6  and  C_9
REMARK    7  A    between atoms: C_9  and  O_11
REMARK    8  A    between atoms: C_9  and  C_12
REMARK    9  A    between atoms: C_12  and  O_13
REMARK   10  A    between atoms: O_13  and  P_14
REMARK   11  A    between atoms: P_14  and  O_15
REMARK   12  A    between atoms: P_14  and  O_16
REMARK                            x       y       z     vdW  Elec       q    Type
REMARK                         _______ _______ _______ _____ _____    ______ ____
ROOT
ATOM      1  C   UNL     1       7.754  -4.936  23.573  0.00  0.00    +0.172 C 
ENDROOT
BRANCH   1   2
ATOM      2  O   UNL     1       9.018  -5.288  24.138  0.00  0.00    -0.387 OA
ATOM      3  H   UNL     1       8.913  -5.459  25.085  0.00  0.00    +0.210 HD
ENDBRANCH   1   2
BRANCH   1   4
ATOM      4  C   UNL     1       7.735  -3.513  22.969  0.00  0.00    +0.176 C 
BRANCH   4   5
ATOM      5  O   UNL     1       6.587  -2.815  23.485  0.00  0.00    -0.387 OA
ATOM      6  H   UNL     1       6.799  -2.501  24.382  0.00  0.00    +0.210 HD
ENDBRANCH   4   5
BRANCH   4   7
ATOM      7  C   UNL     1       8.981  -2.660  23.278  0.00  0.00    +0.171 C 
BRANCH   7   8
ATOM      8  O   UNL     1       8.916  -2.235  24.656  0.00  0.00    -0.387 OA
ATOM      9  H   UNL     1       8.107  -2.656  25.008  0.00  0.00    +0.210 HD
ENDBRANCH   7   8
BRANCH   7  10
ATOM     10  C   UNL     1       9.093  -1.389  22.432  0.00  0.00    +0.189 C 
BRANCH  10  11
ATOM     11  O   UNL     1      10.151  -1.571  21.487  0.00  0.00    -0.392 OA
ATOM     12  H   UNL     1      10.257  -0.729  21.011  0.00  0.00    +0.210 HD
ENDBRANCH  10  11
ENDBRANCH   7  10
ENDBRANCH   4   7
ENDBRANCH   1   4
BRANCH   1  13
ATOM     13  C   UNL     1       6.689  -5.025  24.681  0.00  0.00    +0.206 C 
BRANCH  13  14
ATOM     14  O   UNL     1       7.088  -4.293  25.844  0.00  0.00    -0.284 OA
BRANCH  14  15
ATOM     15  P   UNL     1       6.962  -5.272  27.265  0.00  0.00    +0.472 P 
ATOM     16  O   UNL     1       6.848  -6.147  28.537  0.00  0.00    -0.228 OA
BRANCH  15  17
ATOM     17  O   UNL     1       8.409  -5.887  26.814  0.00  0.00    -0.303 OA
ATOM     18  H   UNL     1       8.209  -6.674  26.273  0.00  0.00    +0.222 HD
ENDBRANCH  15  17
BRANCH  15  19
ATOM     19  O   UNL     1       6.112  -6.298  26.311  0.00  0.00    -0.303 OA
ATOM     20  H   UNL     1       5.744  -7.039  26.821  0.00  0.00    +0.222 HD
ENDBRANCH  15  19
ENDBRANCH  14  15
ENDBRANCH  13  14
ENDBRANCH   1  13
TORSDOF 12
ENDMDL
MODEL 7
REMARK VINA RESULT:      -4.1      2.702      4.173
REMARK  Name = 
REMARK  12 active torsions:
REMARK  status: ('A' for Active; 'I' for Inactive)
REMARK    1  A    between atoms: O_1  and  C_2
REMARK    2  A    between atoms: C_2  and  C_3
REMARK    3  A    between atoms: C_3  and  O_5
REMARK    4  A    between atoms: C_3  and  C_6
REMARK    5  A    between atoms: C_6  and  O_8
REMARK    6  A    between atoms: C_6  and  C_9
REMARK    7  A    between atoms: C_9  and  O_11
REMARK    8  A    between atoms: C_9  and  C_12
REMARK    9  A    between atoms: C_12  and  O_13
REMARK   10  A    between atoms: O_13  and  P_14
REMARK   11  A    between atoms: P_14  and  O_15
REMARK   12  A    between atoms: P_14  and  O_16
REMARK                            x       y       z     vdW  Elec       q    Type
REMARK                         _______ _______ _______ _____ _____    ______ ____
ROOT
ATOM      1  C   UNL     1       9.761  -2.050  23.976  0.00  0.00    +0.172 C 
ENDROOT
BRANCH   1   2
ATOM      2  O   UNL     1       9.441  -1.376  25.194  0.00  0.00    -0.387 OA
ATOM      3  H   UNL     1       8.480  -1.349  25.306  0.00  0.00    +0.210 HD
ENDBRANCH   1   2
BRANCH   1   4
ATOM      4  C   UNL     1       9.893  -1.091  22.769  0.00  0.00    +0.176 C 
BRANCH   4   5
ATOM      5  O   UNL     1       9.083  -1.601  21.694  0.00  0.00    -0.387 OA
ATOM      6  H   UNL     1       8.530  -0.874  21.358  0.00  0.00    +0.210 HD
ENDBRANCH   4   5
BRANCH   4   7
ATOM      7  C   UNL     1       9.452   0.360  23.042  0.00  0.00    +0.171 C 
BRANCH   7   8
ATOM      8  O   UNL     1       8.012   0.391  23.147  0.00  0.00    -0.387 OA
ATOM      9  H   UNL     1       7.834   0.887  23.970  0.00  0.00    +0.210 HD
ENDBRANCH   7   8
BRANCH   7  10
ATOM     10  C   UNL     1       9.832   1.347  21.935  0.00  0.00    +0.189 C 
BRANCH  10  11
ATOM     11  O   UNL     1       8.811   1.314  20.934  0.00  0.00    -0.392 OA
ATOM     12  H   UNL     1       8.818   2.180  20.491  0.00  0.00    +0.210 HD
ENDBRANCH  10  11
ENDBRANCH   7  10
ENDBRANCH   4   7
ENDBRANCH   1   4
BRANCH   1  13
ATOM     13  C   UNL     1       8.650  -3.074  23.683  0.00  0.00    +0.206 C 
BRANCH  13  14
ATOM     14  O   UNL     1       7.377  -2.599  24.132  0.00  0.00    -0.284 OA
BRANCH  14  15
ATOM     15  P   UNL     1       6.101  -3.213  23.137  0.00  0.00    +0.472 P 
ATOM     16  O   UNL     1       4.959  -3.762  22.248  0.00  0.00    -0.228 OA
BRANCH  15  17
ATOM     17  O   UNL     1       7.297  -3.784  22.178  0.00  0.00    -0.303 OA
ATOM     18  H   UNL     1       6.886  -4.464  21.613  0.00  0.00    +0.222 HD
ENDBRANCH  15  17
BRANCH  15  19
ATOM     19  O   UNL     1       6.116  -1.727  22.447  0.00  0.00    -0.303 OA
ATOM     20  H   UNL     1       6.893  -1.212  22.722  0.00  0.00    +0.222 HD
ENDBRANCH  15  19
ENDBRANCH  14  15
ENDBRANCH  13  14
ENDBRANCH   1  13
TORSDOF 12
ENDMDL
MODEL 8
REMARK VINA RESULT:      -4.1      3.645      6.430
REMARK  Name = 
REMARK  12 active torsions:
REMARK  status: ('A' for Active; 'I' for Inactive)
REMARK    1  A    between atoms: O_1  and  C_2
REMARK    2  A    between atoms: C_2  and  C_3
REMARK    3  A    between atoms: C_3  and  O_5
REMARK    4  A    between atoms: C_3  and  C_6
REMARK    5  A    between atoms: C_6  and  O_8
REMARK    6  A    between atoms: C_6  and  C_9
REMARK    7  A    between atoms: C_9  and  O_11
REMARK    8  A    between atoms: C_9  and  C_12
REMARK    9  A    between atoms: C_12  and  O_13
REMARK   10  A    between atoms: O_13  and  P_14
REMARK   11  A    between atoms: P_14  and  O_15
REMARK   12  A    between atoms: P_14  and  O_16
REMARK                            x       y       z     vdW  Elec       q    Type
REMARK                         _______ _______ _______ _____ _____    ______ ____
ROOT
ATOM      1  C   UNL     1       8.256  -2.207  25.053  0.00  0.00    +0.172 C 
ENDROOT
BRANCH   1   2
ATOM      2  O   UNL     1       9.179  -1.309  25.671  0.00  0.00    -0.387 OA
ATOM      3  H   UNL     1       9.202  -0.477  25.176  0.00  0.00    +0.210 HD
ENDBRANCH   1   2
BRANCH   1   4
ATOM      4  C   UNL     1       8.911  -3.533  24.602  0.00  0.00    +0.176 C 
BRANCH   4   5
ATOM      5  O   UNL     1      10.199  -3.234  24.034  0.00  0.00    -0.387 OA
ATOM      6  H   UNL     1      10.090  -2.506  23.398  0.00  0.00    +0.210 HD
ENDBRANCH   4   5
BRANCH   4   7
ATOM      7  C   UNL     1       9.122  -4.568  25.725  0.00  0.00    +0.171 C 
BRANCH   7   8
ATOM      8  O   UNL     1      10.075  -5.551  25.270  0.00  0.00    -0.387 OA
ATOM      9  H   UNL     1      10.826  -5.028  24.926  0.00  0.00    +0.210 HD
ENDBRANCH   7   8
BRANCH   7  10
ATOM     10  C   UNL     1       7.855  -5.333  26.115  0.00  0.00    +0.189 C 
BRANCH  10  11
ATOM     11  O   UNL     1       8.020  -5.825  27.448  0.00  0.00    -0.392 OA
ATOM     12  H   UNL     1       7.666  -6.731  27.463  0.00  0.00    +0.210 HD
ENDBRANCH  10  11
ENDBRANCH   7  10
ENDBRANCH   4   7
ENDBRANCH   1   4
BRANCH   1  13
ATOM     13  C   UNL     1       7.647  -1.505  23.827  0.00  0.00    +0.206 C 
BRANCH  13  14
ATOM     14  O   UNL     1       8.495  -1.633  22.681  0.00  0.00    -0.284 OA
BRANCH  14  15
ATOM     15  P   UNL     1       9.100  -0.090  22.184  0.00  0.00    +0.472 P 
ATOM     16  O   UNL     1       9.641   1.291  21.739  0.00  0.00    -0.228 OA
BRANCH  15  17
ATOM     17  O   UNL     1       9.639  -0.875  20.853  0.00  0.00    -0.303 OA
ATOM     18  H   UNL     1       8.853  -1.036  20.300  0.00  0.00    +0.222 HD
ENDBRANCH  15  17
BRANCH  15  19
ATOM     19  O   UNL     1      10.420  -0.479  23.074  0.00  0.00    -0.303 OA
ATOM     20  H   UNL     1      10.301  -1.324  23.541  0.00  0.00    +0.222 HD
ENDBRANCH  15  19
ENDBRANCH  14  15
ENDBRANCH  13  14
ENDBRANCH   1  13
TORSDOF 12
ENDMDL
MODEL 9
REMARK VINA RESULT:      -4.1      4.309      6.766
REMARK  Name = 
REMARK  12 active torsions:
REMARK  status: ('A' for Active; 'I' for Inactive)
REMARK    1  A    between atoms: O_1  and  C_2
REMARK    2  A    between atoms: C_2  and  C_3
REMARK    3  A    between atoms: C_3  and  O_5
REMARK    4  A    between atoms: C_3  and  C_6
REMARK    5  A    between atoms: C_6  and  O_8
REMARK    6  A    between atoms: C_6  and  C_9
REMARK    7  A    between atoms: C_9  and  O_11
REMARK    8  A    between atoms: C_9  and  C_12
REMARK    9  A    between atoms: C_12  and  O_13
REMARK   10  A    between atoms: O_13  and  P_14
REMARK   11  A    between atoms: P_14  and  O_15
REMARK   12  A    between atoms: P_14  and  O_16
REMARK                            x       y       z     vdW  Elec       q    Type
REMARK                         _______ _______ _______ _____ _____    ______ ____
ROOT
ATOM      1  C   UNL     1       8.587  -4.836  25.035  0.00  0.00    +0.172 C 
ENDROOT
BRANCH   1   2
ATOM      2  O   UNL     1       9.446  -5.718  24.312  0.00  0.00    -0.387 OA
ATOM      3  H   UNL     1      10.086  -6.118  24.920  0.00  0.00    +0.210 HD
ENDBRANCH   1   2
BRANCH   1   4
ATOM      4  C   UNL     1       7.146  -4.797  24.475  0.00  0.00    +0.176 C 
BRANCH   4   5
ATOM      5  O   UNL     1       6.711  -3.425  24.436  0.00  0.00    -0.387 OA
ATOM      6  H   UNL     1       5.912  -3.374  23.883  0.00  0.00    +0.210 HD
ENDBRANCH   4   5
BRANCH   4   7
ATOM      7  C   UNL     1       6.986  -5.380  23.057  0.00  0.00    +0.171 C 
BRANCH   7   8
ATOM      8  O   UNL     1       7.534  -4.440  22.109  0.00  0.00    -0.387 OA
ATOM      9  H   UNL     1       8.489  -4.408  22.314  0.00  0.00    +0.210 HD
ENDBRANCH   7   8
BRANCH   7  10
ATOM     10  C   UNL     1       5.532  -5.623  22.643  0.00  0.00    +0.189 C 
BRANCH  10  11
ATOM     11  O   UNL     1       4.974  -4.379  22.213  0.00  0.00    -0.392 OA
ATOM     12  H   UNL     1       5.314  -4.208  21.317  0.00  0.00    +0.210 HD
ENDBRANCH  10  11
ENDBRANCH   7  10
ENDBRANCH   4   7
ENDBRANCH   1   4
BRANCH   1  13
ATOM     13  C   UNL     1       9.188  -3.420  24.974  0.00  0.00    +0.206 C 
BRANCH  13  14
ATOM     14  O   UNL     1       9.706  -3.132  23.672  0.00  0.00    -0.284 OA
BRANCH  14  15
ATOM     15  P   UNL     1       9.706  -1.429  23.367  0.00  0.00    +0.472 P 
ATOM     16  O   UNL     1       9.708   0.095  23.095  0.00  0.00    -0.228 OA
BRANCH  15  17
ATOM     17  O   UNL     1       8.225  -1.675  22.717  0.00  0.00    -0.303 OA
ATOM     18  H   UNL     1       8.377  -1.892  21.778  0.00  0.00    +0.222 HD
ENDBRANCH  15  17
BRANCH  15  19
ATOM     19  O   UNL     1      10.493  -1.820  21.983  0.00  0.00    -0.303 OA
ATOM     20  H   UNL     1      10.077  -1.409  21.207  0.00  0.00    +0.222 HD
ENDBRANCH  15  19
ENDBRANCH  14  15
ENDBRANCH  13  14
ENDBRANCH   1  13
TORSDOF 12
ENDMDL
