MODEL 1
REMARK VINA RESULT:      -4.0      0.000      0.000
REMARK  Name = 
REMARK  8 active torsions:
REMARK  status: ('A' for Active; 'I' for Inactive)
REMARK    1  A    between atoms: C_1  and  C_2
REMARK    2  A    between atoms: C_2  and  O_4
REMARK    3  A    between atoms: C_2  and  C_5
REMARK    4  A    between atoms: C_5  and  C_6
REMARK    5  A    between atoms: C_6  and  C_7
REMARK    6  A    between atoms: C_6  and  O_8
REMARK    7  A    between atoms: C_6  and  C_9
REMARK    8  A    between atoms: C_9  and  O_10
REMARK                            x       y       z     vdW  Elec       q    Type
REMARK                         _______ _______ _______ _____ _____    ______ ____
ROOT
ATOM      1  C   UNL     1       9.283  -1.345  22.555  0.00  0.00    +0.089 C 
ATOM      2  C   UNL     1       8.047  -2.214  22.272  0.00  0.00    +0.044 C 
ENDROOT
BRANCH   1   3
ATOM      3  O   UNL     1      10.265  -1.611  21.534  0.00  0.00    -0.386 OA
ATOM      4  H   UNL     1      11.128  -1.306  21.875  0.00  0.00    +0.210 HD
ENDBRANCH   1   3
BRANCH   1   5
ATOM      5  C   UNL     1       8.888   0.152  22.502  0.00  0.00    +0.067 C 
BRANCH   5   7
ATOM      6  C   UNL     1      10.206   1.931  23.718  0.00  0.00    +0.037 C 
ATOM      7  C   UNL     1      10.044   1.155  22.416  0.00  0.00    +0.114 C 
BRANCH   7   8
ATOM      8  O   UNL     1       9.798   2.104  21.381  0.00  0.00    -0.392 OA
ATOM      9  H   UNL     1      10.009   1.656  20.539  0.00  0.00    +0.210 HD
ENDBRANCH   7   8
ENDBRANCH   5   7
ENDBRANCH   1   5
BRANCH   1  10
ATOM     10  C   UNL     1       9.888  -1.778  23.907  0.00  0.00    +0.190 C 
BRANCH  10  11
ATOM     11  O   UNL     1      10.181  -3.170  23.928  0.00  0.00    -0.392 OA
ATOM     12  H   UNL     1      11.156  -3.229  23.970  0.00  0.00    +0.210 HD
ENDBRANCH  10  11
ENDBRANCH   1  10
TORSDOF 6
ENDMDL
MODEL 2
REMARK VINA RESULT:      -3.9      1.392      3.953
REMARK  Name = 
REMARK  8 active torsions:
REMARK  status: ('A' for Active; 'I' for Inactive)
REMARK    1  A    between atoms: C_1  and  C_2
REMARK    2  A    between atoms: C_2  and  O_4
REMARK    3  A    between atoms: C_2  and  C_5
REMARK    4  A    between atoms: C_5  and  C_6
REMARK    5  A    between atoms: C_6  and  C_7
REMARK    6  A    between atoms: C_6  and  O_8
REMARK    7  A    between atoms: C_6  and  C_9
REMARK    8  A    between atoms: C_9  and  O_10
REMARK                            x       y       z     vdW  Elec       q    Type
REMARK                         _______ _______ _______ _____ _____    ______ ____
ROOT
ATOM      1  C   UNL     1       9.704   1.554  22.775  0.00  0.00    +0.089 C 
ATOM      2  C   UNL     1       9.658   2.426  24.040  0.00  0.00    +0.044 C 
ENDROOT
BRANCH   1   3
ATOM      3  O   UNL     1      10.446   2.265  21.765  0.00  0.00    -0.386 OA
ATOM      4  H   UNL     1      10.371   1.754  20.935  0.00  0.00    +0.210 HD
ENDBRANCH   1   3
BRANCH   1   5
ATOM      5  C   UNL     1      10.425   0.220  23.090  0.00  0.00    +0.067 C 
BRANCH   5   7
ATOM      6  C   UNL     1       9.914  -2.186  23.666  0.00  0.00    +0.037 C 
ATOM      7  C   UNL     1       9.700  -1.061  22.660  0.00  0.00    +0.114 C 
BRANCH   7   8
ATOM      8  O   UNL     1      10.198  -1.512  21.402  0.00  0.00    -0.392 OA
ATOM      9  H   UNL     1      10.709  -2.324  21.583  0.00  0.00    +0.210 HD
ENDBRANCH   7   8
ENDBRANCH   5   7
ENDBRANCH   1   5
BRANCH   1  10
ATOM     10  C   UNL     1       8.263   1.371  22.253  0.00  0.00    +0.190 C 
BRANCH  10  11
ATOM     11  O   UNL     1       8.179   1.608  20.852  0.00  0.00    -0.392 OA
ATOM     12  H   UNL     1       9.082   1.458  20.510  0.00  0.00    +0.210 HD
ENDBRANCH  10  11
ENDBRANCH   1  10
TORSDOF 6
ENDMDL
MODEL 3
REMARK VINA RESULT:      -3.7      2.717      3.557
REMARK  Name = 
REMARK  8 active torsions:
REMARK  status: ('A' for Active; 'I' for Inactive)
REMARK    1  A    between atoms: C_1  and  C_2
REMARK    2  A    between atoms: C_2  and  O_4
REMARK    3  A    between atoms: C_2  and  C_5
REMARK    4  A    between atoms: C_5  and  C_6
REMARK    5  A    between atoms: C_6  and  C_7
REMARK    6  A    between atoms: C_6  and  O_8
REMARK    7  A    between atoms: C_6  and  C_9
REMARK    8  A    between atoms: C_9  and  O_10
REMARK                            x       y       z     vdW  Elec       q    Type
REMARK                         _______ _______ _______ _____ _____    ______ ____
ROOT
ATOM      1  C   UNL     1       9.271   1.358  22.059  0.00  0.00    +0.089 C 
ATOM      2  C   UNL     1       9.474  -0.016  21.398  0.00  0.00    +0.044 C 
ENDROOT
BRANCH   1   3
ATOM      3  O   UNL     1      10.268   2.259  21.538  0.00  0.00    -0.386 OA
ATOM      4  H   UNL     1      10.805   2.566  22.293  0.00  0.00    +0.210 HD
ENDBRANCH   1   3
BRANCH   1   5
ATOM      5  C   UNL     1       7.863   1.899  21.708  0.00  0.00    +0.067 C 
BRANCH   5   7
ATOM      6  C   UNL     1       5.877   3.328  22.336  0.00  0.00    +0.037 C 
ATOM      7  C   UNL     1       7.370   3.092  22.536  0.00  0.00    +0.114 C 
BRANCH   7   8
ATOM      8  O   UNL     1       8.047   4.282  22.140  0.00  0.00    -0.392 OA
ATOM      9  H   UNL     1       8.848   4.342  22.697  0.00  0.00    +0.210 HD
ENDBRANCH   7   8
ENDBRANCH   5   7
ENDBRANCH   1   5
BRANCH   1  10
ATOM     10  C   UNL     1       9.520   1.214  23.575  0.00  0.00    +0.190 C 
BRANCH  10  11
ATOM     11  O   UNL     1      10.543   2.095  24.024  0.00  0.00    -0.392 OA
ATOM     12  H   UNL     1      10.347   2.955  23.603  0.00  0.00    +0.210 HD
ENDBRANCH  10  11
ENDBRANCH   1  10
TORSDOF 6
ENDMDL
MODEL 4
REMARK VINA RESULT:      -3.7      1.570      2.316
REMARK  Name = 
REMARK  8 active torsions:
REMARK  status: ('A' for Active; 'I' for Inactive)
REMARK    1  A    between atoms: C_1  and  C_2
REMARK    2  A    between atoms: C_2  and  O_4
REMARK    3  A    between atoms: C_2  and  C_5
REMARK    4  A    between atoms: C_5  and  C_6
REMARK    5  A    between atoms: C_6  and  C_7
REMARK    6  A    between atoms: C_6  and  O_8
REMARK    7  A    between atoms: C_6  and  C_9
REMARK    8  A    between atoms: C_9  and  O_10
REMARK                            x       y       z     vdW  Elec       q    Type
REMARK                         _______ _______ _______ _____ _____    ______ ____
ROOT
ATOM      1  C   UNL     1       9.328  -0.518  23.455  0.00  0.00    +0.089 C 
ATOM      2  C   UNL     1      10.143   0.297  24.473  0.00  0.00    +0.044 C 
ENDROOT
BRANCH   1   3
ATOM      3  O   UNL     1       8.297  -1.228  24.169  0.00  0.00    -0.386 OA
ATOM      4  H   UNL     1       8.330  -0.930  25.100  0.00  0.00    +0.210 HD
ENDBRANCH   1   3
BRANCH   1   5
ATOM      5  C   UNL     1       8.669   0.439  22.432  0.00  0.00    +0.067 C 
BRANCH   5   7
ATOM      6  C   UNL     1       7.955   2.853  22.224  0.00  0.00    +0.037 C 
ATOM      7  C   UNL     1       9.118   1.905  22.487  0.00  0.00    +0.114 C 
BRANCH   7   8
ATOM      8  O   UNL     1      10.108   2.155  21.493  0.00  0.00    -0.392 OA
ATOM      9  H   UNL     1      10.418   1.281  21.185  0.00  0.00    +0.210 HD
ENDBRANCH   7   8
ENDBRANCH   5   7
ENDBRANCH   1   5
BRANCH   1  10
ATOM     10  C   UNL     1      10.257  -1.569  22.812  0.00  0.00    +0.190 C 
BRANCH  10  11
ATOM     11  O   UNL     1      10.165  -1.550  21.392  0.00  0.00    -0.392 OA
ATOM     12  H   UNL     1       9.288  -1.166  21.195  0.00  0.00    +0.210 HD
ENDBRANCH  10  11
ENDBRANCH   1  10
TORSDOF 6
ENDMDL
MODEL 5
REMARK VINA RESULT:      -3.7      1.899      2.127
REMARK  Name = 
REMARK  8 active torsions:
REMARK  status: ('A' for Active; 'I' for Inactive)
REMARK    1  A    between atoms: C_1  and  C_2
REMARK    2  A    between atoms: C_2  and  O_4
REMARK    3  A    between atoms: C_2  and  C_5
REMARK    4  A    between atoms: C_5  and  C_6
REMARK    5  A    between atoms: C_6  and  C_7
REMARK    6  A    between atoms: C_6  and  O_8
REMARK    7  A    between atoms: C_6  and  C_9
REMARK    8  A    between atoms: C_9  and  O_10
REMARK                            x       y       z     vdW  Elec       q    Type
REMARK                         _______ _______ _______ _____ _____    ______ ____
ROOT
ATOM      1  C   UNL     1       9.789  -0.630  23.485  0.00  0.00    +0.089 C 
ATOM      2  C   UNL     1       8.376  -0.855  24.047  0.00  0.00    +0.044 C 
ENDROOT
BRANCH   1   3
ATOM      3  O   UNL     1      10.396  -1.919  23.266  0.00  0.00    -0.386 OA
ATOM      4  H   UNL     1      10.969  -1.840  22.478  0.00  0.00    +0.210 HD
ENDBRANCH   1   3
BRANCH   1   5
ATOM      5  C   UNL     1       9.697   0.124  22.135  0.00  0.00    +0.067 C 
BRANCH   5   7
ATOM      6  C   UNL     1       8.010   1.905  21.535  0.00  0.00    +0.037 C 
ATOM      7  C   UNL     1       9.344   1.614  22.214  0.00  0.00    +0.114 C 
BRANCH   7   8
ATOM      8  O   UNL     1      10.338   2.392  21.554  0.00  0.00    -0.392 OA
ATOM      9  H   UNL     1      10.781   2.919  22.247  0.00  0.00    +0.210 HD
ENDBRANCH   7   8
ENDBRANCH   5   7
ENDBRANCH   1   5
BRANCH   1  10
ATOM     10  C   UNL     1      10.629   0.106  24.550  0.00  0.00    +0.190 C 
BRANCH  10  11
ATOM     11  O   UNL     1       9.943   0.188  25.794  0.00  0.00    -0.392 OA
ATOM     12  H   UNL     1       9.200   0.803  25.639  0.00  0.00    +0.210 HD
ENDBRANCH  10  11
ENDBRANCH   1  10
TORSDOF 6
ENDMDL
MODEL 6
REMARK VINA RESULT:      -3.7      2.763      4.002
REMARK  Name = 
REMARK  8 active torsions:
REMARK  status: ('A' for Active; 'I' for Inactive)
REMARK    1  A    between atoms: C_1  and  C_2
REMARK    2  A    between atoms: C_2  and  O_4
REMARK    3  A    between atoms: C_2  and  C_5
REMARK    4  A    between atoms: C_5  and  C_6
REMARK    5  A    between atoms: C_6  and  C_7
REMARK    6  A    between atoms: C_6  and  O_8
REMARK    7  A    between atoms: C_6  and  C_9
REMARK    8  A    between atoms: C_9  and  O_10
REMARK                            x       y       z     vdW  Elec       q    Type
REMARK                         _______ _______ _______ _____ _____    ______ ____
ROOT
ATOM      1  C   UNL     1       9.253  -4.274  24.901  0.00  0.00    +0.089 C 
ATOM      2  C   UNL     1       8.167  -4.951  24.048  0.00  0.00    +0.044 C 
ENDROOT
BRANCH   1   3
ATOM      3  O   UNL     1      10.365  -5.183  25.018  0.00  0.00    -0.386 OA
ATOM      4  H   UNL     1      10.733  -5.308  24.122  0.00  0.00    +0.210 HD
ENDBRANCH   1   3
BRANCH   1   5
ATOM      5  C   UNL     1       9.728  -2.977  24.201  0.00  0.00    +0.067 C 
BRANCH   5   7
ATOM      6  C   UNL     1       9.468  -1.581  22.112  0.00  0.00    +0.037 C 
ATOM      7  C   UNL     1       8.741  -2.335  23.220  0.00  0.00    +0.114 C 
BRANCH   7   8
ATOM      8  O   UNL     1       7.909  -1.398  23.899  0.00  0.00    -0.392 OA
ATOM      9  H   UNL     1       7.616  -0.751  23.228  0.00  0.00    +0.210 HD
ENDBRANCH   7   8
ENDBRANCH   5   7
ENDBRANCH   1   5
BRANCH   1  10
ATOM     10  C   UNL     1       8.689  -4.042  26.318  0.00  0.00    +0.190 C 
BRANCH  10  11
ATOM     11  O   UNL     1       8.621  -5.255  27.060  0.00  0.00    -0.392 OA
ATOM     12  H   UNL     1       7.683  -5.526  27.027  0.00  0.00    +0.210 HD
ENDBRANCH  10  11
ENDBRANCH   1  10
TORSDOF 6
ENDMDL
MODEL 7
REMARK VINA RESULT:      -3.6      2.100      4.846
REMARK  Name = 
REMARK  8 active torsions:
REMARK  status: ('A' for Active; 'I' for Inactive)
REMARK    1  A    between atoms: C_1  and  C_2
REMARK    2  A    between atoms: C_2  and  O_4
REMARK    3  A    between atoms: C_2  and  C_5
REMARK    4  A    between atoms: C_5  and  C_6
REMARK    5  A    between atoms: C_6  and  C_7
REMARK    6  A    between atoms: C_6  and  O_8
REMARK    7  A    between atoms: C_6  and  C_9
REMARK    8  A    between atoms: C_9  and  O_10
REMARK                            x       y       z     vdW  Elec       q    Type
REMARK                         _______ _______ _______ _____ _____    ______ ____
ROOT
ATOM      1  C   UNL     1       9.156  -2.258  23.661  0.00  0.00    +0.089 C 
ATOM      2  C   UNL     1       9.299  -0.981  24.506  0.00  0.00    +0.044 C 
ENDROOT
BRANCH   1   3
ATOM      3  O   UNL     1      10.396  -2.988  23.734  0.00  0.00    -0.386 OA
ATOM      4  H   UNL     1      11.098  -2.404  23.386  0.00  0.00    +0.210 HD
ENDBRANCH   1   3
BRANCH   1   5
ATOM      5  C   UNL     1       8.016  -3.135  24.236  0.00  0.00    +0.067 C 
BRANCH   5   7
ATOM      6  C   UNL     1       6.576  -5.201  24.044  0.00  0.00    +0.037 C 
ATOM      7  C   UNL     1       7.908  -4.559  23.677  0.00  0.00    +0.114 C 
BRANCH   7   8
ATOM      8  O   UNL     1       8.942  -5.380  24.214  0.00  0.00    -0.392 OA
ATOM      9  H   UNL     1       9.084  -5.079  25.133  0.00  0.00    +0.210 HD
ENDBRANCH   7   8
ENDBRANCH   5   7
ENDBRANCH   1   5
BRANCH   1  10
ATOM     10  C   UNL     1       8.941  -1.850  22.189  0.00  0.00    +0.190 C 
BRANCH  10  11
ATOM     11  O   UNL     1      10.175  -1.585  21.533  0.00  0.00    -0.392 OA
ATOM     12  H   UNL     1       9.935  -1.122  20.707  0.00  0.00    +0.210 HD
ENDBRANCH  10  11
ENDBRANCH   1  10
TORSDOF 6
ENDMDL
MODEL 8
REMARK VINA RESULT:      -3.6      1.296      3.986
REMARK  Name = 
REMARK  8 active torsions:
REMARK  status: ('A' for Active; 'I' for Inactive)
REMARK    1  A    between atoms: C_1  and  C_2
REMARK    2  A    between atoms: C_2  and  O_4
REMARK    3  A    between atoms: C_2  and  C_5
REMARK    4  A    between atoms: C_5  and  C_6
REMARK    5  A    between atoms: C_6  and  C_7
REMARK    6  A    between atoms: C_6  and  O_8
REMARK    7  A    between atoms: C_6  and  C_9
REMARK    8  A    between atoms: C_9  and  O_10
REMARK                            x       y       z     vdW  Elec       q    Type
REMARK                         _______ _______ _______ _____ _____    ______ ____
ROOT
ATOM      1  C   UNL     1       9.613  -0.505  22.480  0.00  0.00    +0.089 C 
ATOM      2  C   UNL     1      10.340  -0.494  23.834  0.00  0.00    +0.044 C 
ENDROOT
BRANCH   1   3
ATOM      3  O   UNL     1      10.231  -1.503  21.644  0.00  0.00    -0.386 OA
ATOM      4  H   UNL     1      10.371  -2.298  22.196  0.00  0.00    +0.210 HD
ENDBRANCH   1   3
BRANCH   1   5
ATOM      5  C   UNL     1       8.124  -0.874  22.693  0.00  0.00    +0.067 C 
BRANCH   5   7
ATOM      6  C   UNL     1       6.228  -2.536  22.528  0.00  0.00    +0.037 C 
ATOM      7  C   UNL     1       7.726  -2.315  22.349  0.00  0.00    +0.114 C 
BRANCH   7   8
ATOM      8  O   UNL     1       8.399  -3.231  23.209  0.00  0.00    -0.392 OA
ATOM      9  H   UNL     1       7.838  -4.030  23.254  0.00  0.00    +0.210 HD
ENDBRANCH   7   8
ENDBRANCH   5   7
ENDBRANCH   1   5
BRANCH   1  10
ATOM     10  C   UNL     1       9.820   0.865  21.801  0.00  0.00    +0.190 C 
BRANCH  10  11
ATOM     11  O   UNL     1       8.757   1.173  20.906  0.00  0.00    -0.392 OA
ATOM     12  H   UNL     1       9.186   1.559  20.118  0.00  0.00    +0.210 HD
ENDBRANCH  10  11
ENDBRANCH   1  10
TORSDOF 6
ENDMDL
MODEL 9
REMARK VINA RESULT:      -3.6      1.843      3.502
REMARK  Name = 
REMARK  8 active torsions:
REMARK  status: ('A' for Active; 'I' for Inactive)
REMARK    1  A    between atoms: C_1  and  C_2
REMARK    2  A    between atoms: C_2  and  O_4
REMARK    3  A    between atoms: C_2  and  C_5
REMARK    4  A    between atoms: C_5  and  C_6
REMARK    5  A    between atoms: C_6  and  C_7
REMARK    6  A    between atoms: C_6  and  O_8
REMARK    7  A    between atoms: C_6  and  C_9
REMARK    8  A    between atoms: C_9  and  O_10
REMARK                            x       y       z     vdW  Elec       q    Type
REMARK                         _______ _______ _______ _____ _____    ______ ____
ROOT
ATOM      1  C   UNL     1       9.669  -0.816  22.589  0.00  0.00    +0.089 C 
ATOM      2  C   UNL     1       9.953  -0.849  24.100  0.00  0.00    +0.044 C 
ENDROOT
BRANCH   1   3
ATOM      3  O   UNL     1      10.618  -1.681  21.933  0.00  0.00    -0.386 OA
ATOM      4  H   UNL     1      10.908  -2.344  22.590  0.00  0.00    +0.210 HD
ENDBRANCH   1   3
BRANCH   1   5
ATOM      5  C   UNL     1       8.236  -1.338  22.318  0.00  0.00    +0.067 C 
BRANCH   5   7
ATOM      6  C   UNL     1       6.131  -2.002  23.546  0.00  0.00    +0.037 C 
ATOM      7  C   UNL     1       7.155  -0.898  23.313  0.00  0.00    +0.114 C 
BRANCH   7   8
ATOM      8  O   UNL     1       6.454   0.236  22.810  0.00  0.00    -0.392 OA
ATOM      9  H   UNL     1       5.554  -0.072  22.586  0.00  0.00    +0.210 HD
ENDBRANCH   7   8
ENDBRANCH   5   7
ENDBRANCH   1   5
BRANCH   1  10
ATOM     10  C   UNL     1       9.913   0.619  22.076  0.00  0.00    +0.190 C 
BRANCH  10  11
ATOM     11  O   UNL     1       8.984   0.977  21.060  0.00  0.00    -0.392 OA
ATOM     12  H   UNL     1       9.422   0.749  20.217  0.00  0.00    +0.210 HD
ENDBRANCH  10  11
ENDBRANCH   1  10
TORSDOF 6
ENDMDL
