MODEL 1
REMARK VINA RESULT:      -3.4      0.000      0.000
REMARK  Name = 
REMARK  6 active torsions:
REMARK  status: ('A' for Active; 'I' for Inactive)
REMARK    1  A    between atoms: CG2_1  and  CB_2
REMARK    2  A    between atoms: CB_2  and  OG1_4
REMARK    3  A    between atoms: CB_2  and  CA_5
REMARK    4  A    between atoms: CA_5  and  N_7
REMARK    5  A    between atoms: CA_5  and  C_8
REMARK    6  A    between atoms: C_8  and  O_9
REMARK                            x       y       z     vdW  Elec       q    Type
REMARK                         _______ _______ _______ _____ _____    ______ ____
ROOT
ATOM      1  CA  THR A   1      10.019   0.809  22.173  0.00  0.00    +0.105 C 
ENDROOT
BRANCH   1   2
ATOM      2  N   THR A   1       9.638   2.091  21.532  0.00  0.00    -0.323 NA
ATOM      3  H1  THR A   1      10.233   2.181  20.702  0.00  0.00    +0.119 HD
ATOM      4  H2  THR A   1       8.691   1.995  21.164  0.00  0.00    +0.119 HD
ENDBRANCH   1   2
BRANCH   1   6
ATOM      5  CG2 THR A   1      10.840   0.632  24.624  0.00  0.00    +0.039 C 
ATOM      6  CB  THR A   1       9.650   0.782  23.679  0.00  0.00    +0.130 C 
BRANCH   6   7
ATOM      7  OG1 THR A   1       8.748  -0.312  23.905  0.00  0.00    -0.390 OA
ATOM      8  HG1 THR A   1       7.947  -0.140  23.380  0.00  0.00    +0.210 HD
ENDBRANCH   6   7
ENDBRANCH   1   6
BRANCH   1   9
ATOM      9  C   THR A   1       9.411  -0.375  21.405  0.00  0.00    +0.176 C 
BRANCH   9  10
ATOM     10  O   THR A   1      10.207  -1.545  21.585  0.00  0.00    -0.393 OA
ATOM     11  H   THR A   1      11.114  -1.273  21.356  0.00  0.00    +0.209 HD
ENDBRANCH   9  10
ENDBRANCH   1   9
TORSDOF 5
ENDMDL
MODEL 2
REMARK VINA RESULT:      -3.4      5.930      6.411
REMARK  Name = 
REMARK  6 active torsions:
REMARK  status: ('A' for Active; 'I' for Inactive)
REMARK    1  A    between atoms: CG2_1  and  CB_2
REMARK    2  A    between atoms: CB_2  and  OG1_4
REMARK    3  A    between atoms: CB_2  and  CA_5
REMARK    4  A    between atoms: CA_5  and  N_7
REMARK    5  A    between atoms: CA_5  and  C_8
REMARK    6  A    between atoms: C_8  and  O_9
REMARK                            x       y       z     vdW  Elec       q    Type
REMARK                         _______ _______ _______ _____ _____    ______ ____
ROOT
ATOM      1  CA  THR A   1       9.156  -4.613  25.746  0.00  0.00    +0.105 C 
ENDROOT
BRANCH   1   2
ATOM      2  N   THR A   1      10.215  -5.586  25.384  0.00  0.00    -0.323 NA
ATOM      3  H1  THR A   1       9.728  -6.422  25.041  0.00  0.00    +0.119 HD
ATOM      4  H2  THR A   1      10.716  -5.226  24.572  0.00  0.00    +0.119 HD
ENDBRANCH   1   2
BRANCH   1   6
ATOM      5  CG2 THR A   1       7.943  -4.048  23.528  0.00  0.00    +0.039 C 
ATOM      6  CB  THR A   1       8.906  -3.581  24.616  0.00  0.00    +0.130 C 
BRANCH   6   7
ATOM      7  OG1 THR A   1      10.167  -3.267  24.005  0.00  0.00    -0.390 OA
ATOM      8  HG1 THR A   1      10.054  -3.359  23.043  0.00  0.00    +0.210 HD
ENDBRANCH   6   7
ENDBRANCH   1   6
BRANCH   1   9
ATOM      9  C   THR A   1       7.870  -5.350  26.154  0.00  0.00    +0.176 C 
BRANCH   9  10
ATOM     10  O   THR A   1       7.987  -5.855  27.483  0.00  0.00    -0.393 OA
ATOM     11  H   THR A   1       8.877  -5.588  27.779  0.00  0.00    +0.209 HD
ENDBRANCH   9  10
ENDBRANCH   1   9
TORSDOF 5
ENDMDL
MODEL 3
REMARK VINA RESULT:      -3.2      2.431      2.858
REMARK  Name = 
REMARK  6 active torsions:
REMARK  status: ('A' for Active; 'I' for Inactive)
REMARK    1  A    between atoms: CG2_1  and  CB_2
REMARK    2  A    between atoms: CB_2  and  OG1_4
REMARK    3  A    between atoms: CB_2  and  CA_5
REMARK    4  A    between atoms: CA_5  and  N_7
REMARK    5  A    between atoms: CA_5  and  C_8
REMARK    6  A    between atoms: C_8  and  O_9
REMARK                            x       y       z     vdW  Elec       q    Type
REMARK                         _______ _______ _______ _____ _____    ______ ____
ROOT
ATOM      1  CA  THR A   1      10.465   0.574  23.478  0.00  0.00    +0.105 C 
ENDROOT
BRANCH   1   2
ATOM      2  N   THR A   1      10.513   0.535  24.959  0.00  0.00    -0.323 NA
ATOM      3  H1  THR A   1      11.452   0.202  25.204  0.00  0.00    +0.119 HD
ATOM      4  H2  THR A   1      10.481   1.494  25.305  0.00  0.00    +0.119 HD
ENDBRANCH   1   2
BRANCH   1   6
ATOM      5  CG2 THR A   1      10.011  -1.975  23.556  0.00  0.00    +0.039 C 
ATOM      6  CB  THR A   1       9.695  -0.638  22.891  0.00  0.00    +0.130 C 
BRANCH   6   7
ATOM      7  OG1 THR A   1      10.007  -0.738  21.493  0.00  0.00    -0.390 OA
ATOM      8  HG1 THR A   1      10.898  -1.124  21.422  0.00  0.00    +0.210 HD
ENDBRANCH   6   7
ENDBRANCH   1   6
BRANCH   1   9
ATOM      9  C   THR A   1       9.890   1.915  22.996  0.00  0.00    +0.176 C 
BRANCH   9  10
ATOM     10  O   THR A   1      10.201   2.123  21.619  0.00  0.00    -0.393 OA
ATOM     11  H   THR A   1      11.059   1.683  21.483  0.00  0.00    +0.209 HD
ENDBRANCH   9  10
ENDBRANCH   1   9
TORSDOF 5
ENDMDL
MODEL 4
REMARK VINA RESULT:      -3.2      6.141      6.291
REMARK  Name = 
REMARK  6 active torsions:
REMARK  status: ('A' for Active; 'I' for Inactive)
REMARK    1  A    between atoms: CG2_1  and  CB_2
REMARK    2  A    between atoms: CB_2  and  OG1_4
REMARK    3  A    between atoms: CB_2  and  CA_5
REMARK    4  A    between atoms: CA_5  and  N_7
REMARK    5  A    between atoms: CA_5  and  C_8
REMARK    6  A    between atoms: C_8  and  O_9
REMARK                            x       y       z     vdW  Elec       q    Type
REMARK                         _______ _______ _______ _____ _____    ______ ____
ROOT
ATOM      1  CA  THR A   1       8.913  -5.001  24.986  0.00  0.00    +0.105 C 
ENDROOT
BRANCH   1   2
ATOM      2  N   THR A   1      10.190  -5.616  25.422  0.00  0.00    -0.323 NA
ATOM      3  H1  THR A   1      10.922  -5.190  24.844  0.00  0.00    +0.119 HD
ATOM      4  H2  THR A   1      10.390  -5.298  26.370  0.00  0.00    +0.119 HD
ENDBRANCH   1   2
BRANCH   1   6
ATOM      5  CG2 THR A   1       6.739  -4.224  26.161  0.00  0.00    +0.039 C 
ATOM      6  CB  THR A   1       7.744  -5.352  25.942  0.00  0.00    +0.130 C 
BRANCH   6   7
ATOM      7  OG1 THR A   1       8.297  -5.723  27.215  0.00  0.00    -0.390 OA
ATOM      8  HG1 THR A   1       9.001  -6.373  27.047  0.00  0.00    +0.210 HD
ENDBRANCH   6   7
ENDBRANCH   1   6
BRANCH   1   9
ATOM      9  C   THR A   1       9.083  -3.484  24.808  0.00  0.00    +0.176 C 
BRANCH   9  10
ATOM     10  O   THR A   1      10.184  -3.205  23.946  0.00  0.00    -0.393 OA
ATOM     11  H   THR A   1      10.808  -3.941  24.084  0.00  0.00    +0.209 HD
ENDBRANCH   9  10
ENDBRANCH   1   9
TORSDOF 5
ENDMDL
MODEL 5
REMARK VINA RESULT:      -3.2      2.940      3.603
REMARK  Name = 
REMARK  6 active torsions:
REMARK  status: ('A' for Active; 'I' for Inactive)
REMARK    1  A    between atoms: CG2_1  and  CB_2
REMARK    2  A    between atoms: CB_2  and  OG1_4
REMARK    3  A    between atoms: CB_2  and  CA_5
REMARK    4  A    between atoms: CA_5  and  N_7
REMARK    5  A    between atoms: CA_5  and  C_8
REMARK    6  A    between atoms: C_8  and  O_9
REMARK                            x       y       z     vdW  Elec       q    Type
REMARK                         _______ _______ _______ _____ _____    ______ ____
ROOT
ATOM      1  CA  THR A   1      10.355   1.786  23.599  0.00  0.00    +0.105 C 
ENDROOT
BRANCH   1   2
ATOM      2  N   THR A   1       9.969   1.214  24.911  0.00  0.00    -0.323 NA
ATOM      3  H1  THR A   1      10.699   1.503  25.572  0.00  0.00    +0.119 HD
ATOM      4  H2  THR A   1       9.126   1.690  25.232  0.00  0.00    +0.119 HD
ENDBRANCH   1   2
BRANCH   1   6
ATOM      5  CG2 THR A   1       9.915  -0.175  21.964  0.00  0.00    +0.039 C 
ATOM      6  CB  THR A   1       9.496   1.213  22.442  0.00  0.00    +0.130 C 
BRANCH   6   7
ATOM      7  OG1 THR A   1       9.571   2.120  21.331  0.00  0.00    -0.390 OA
ATOM      8  HG1 THR A   1      10.111   1.693  20.644  0.00  0.00    +0.210 HD
ENDBRANCH   6   7
ENDBRANCH   1   6
BRANCH   1   9
ATOM      9  C   THR A   1      10.310   3.321  23.650  0.00  0.00    +0.176 C 
BRANCH   9  10
ATOM     10  O   THR A   1      11.374   3.876  22.878  0.00  0.00    -0.393 OA
ATOM     11  H   THR A   1      11.024   3.937  21.970  0.00  0.00    +0.209 HD
ENDBRANCH   9  10
ENDBRANCH   1   9
TORSDOF 5
ENDMDL
MODEL 6
REMARK VINA RESULT:      -3.1      2.199      2.333
REMARK  Name = 
REMARK  6 active torsions:
REMARK  status: ('A' for Active; 'I' for Inactive)
REMARK    1  A    between atoms: CG2_1  and  CB_2
REMARK    2  A    between atoms: CB_2  and  OG1_4
REMARK    3  A    between atoms: CB_2  and  CA_5
REMARK    4  A    between atoms: CA_5  and  N_7
REMARK    5  A    between atoms: CA_5  and  C_8
REMARK    6  A    between atoms: C_8  and  O_9
REMARK                            x       y       z     vdW  Elec       q    Type
REMARK                         _______ _______ _______ _____ _____    ______ ____
ROOT
ATOM      1  CA  THR A   1       9.743   0.387  23.082  0.00  0.00    +0.105 C 
ENDROOT
BRANCH   1   2
ATOM      2  N   THR A   1      10.255   0.297  24.471  0.00  0.00    -0.323 NA
ATOM      3  H1  THR A   1      10.190  -0.693  24.733  0.00  0.00    +0.119 HD
ATOM      4  H2  THR A   1      11.255   0.496  24.456  0.00  0.00    +0.119 HD
ENDBRANCH   1   2
BRANCH   1   6
ATOM      5  CG2 THR A   1      10.535   2.847  23.269  0.00  0.00    +0.039 C 
ATOM      6  CB  THR A   1      10.260   1.655  22.355  0.00  0.00    +0.130 C 
BRANCH   6   7
ATOM      7  OG1 THR A   1       9.284   2.047  21.377  0.00  0.00    -0.390 OA
ATOM      8  HG1 THR A   1       9.537   1.634  20.533  0.00  0.00    +0.210 HD
ENDBRANCH   6   7
ENDBRANCH   1   6
BRANCH   1   9
ATOM      9  C   THR A   1      10.068  -0.899  22.307  0.00  0.00    +0.176 C 
BRANCH   9  10
ATOM     10  O   THR A   1       9.532  -0.832  20.986  0.00  0.00    -0.393 OA
ATOM     11  H   THR A   1       8.921  -1.588  20.921  0.00  0.00    +0.209 HD
ENDBRANCH   9  10
ENDBRANCH   1   9
TORSDOF 5
ENDMDL
MODEL 7
REMARK VINA RESULT:      -3.1      6.337      6.539
REMARK  Name = 
REMARK  6 active torsions:
REMARK  status: ('A' for Active; 'I' for Inactive)
REMARK    1  A    between atoms: CG2_1  and  CB_2
REMARK    2  A    between atoms: CB_2  and  OG1_4
REMARK    3  A    between atoms: CB_2  and  CA_5
REMARK    4  A    between atoms: CA_5  and  N_7
REMARK    5  A    between atoms: CA_5  and  C_8
REMARK    6  A    between atoms: C_8  and  O_9
REMARK                            x       y       z     vdW  Elec       q    Type
REMARK                         _______ _______ _______ _____ _____    ______ ____
ROOT
ATOM      1  CA  THR A   1       8.768  -4.101  26.422  0.00  0.00    +0.105 C 
ENDROOT
BRANCH   1   2
ATOM      2  N   THR A   1       8.450  -2.654  26.354  0.00  0.00    -0.323 NA
ATOM      3  H1  THR A   1       8.467  -2.406  25.358  0.00  0.00    +0.119 HD
ATOM      4  H2  THR A   1       7.479  -2.527  26.637  0.00  0.00    +0.119 HD
ENDBRANCH   1   2
BRANCH   1   6
ATOM      5  CG2 THR A   1       6.343  -4.195  27.328  0.00  0.00    +0.039 C 
ATOM      6  CB  THR A   1       7.508  -4.959  26.702  0.00  0.00    +0.130 C 
BRANCH   6   7
ATOM      7  OG1 THR A   1       7.876  -6.031  27.584  0.00  0.00    -0.390 OA
ATOM      8  HG1 THR A   1       8.816  -5.912  27.808  0.00  0.00    +0.210 HD
ENDBRANCH   6   7
ENDBRANCH   1   6
BRANCH   1   9
ATOM      9  C   THR A   1       9.504  -4.547  25.149  0.00  0.00    +0.176 C 
BRANCH   9  10
ATOM     10  O   THR A   1      10.128  -5.814  25.354  0.00  0.00    -0.393 OA
ATOM     11  H   THR A   1      11.085  -5.628  25.355  0.00  0.00    +0.209 HD
ENDBRANCH   9  10
ENDBRANCH   1   9
TORSDOF 5
ENDMDL
MODEL 8
REMARK VINA RESULT:      -3.1      2.097      2.272
REMARK  Name = 
REMARK  6 active torsions:
REMARK  status: ('A' for Active; 'I' for Inactive)
REMARK    1  A    between atoms: CG2_1  and  CB_2
REMARK    2  A    between atoms: CB_2  and  OG1_4
REMARK    3  A    between atoms: CB_2  and  CA_5
REMARK    4  A    between atoms: CA_5  and  N_7
REMARK    5  A    between atoms: CA_5  and  C_8
REMARK    6  A    between atoms: C_8  and  O_9
REMARK                            x       y       z     vdW  Elec       q    Type
REMARK                         _______ _______ _______ _____ _____    ______ ____
ROOT
ATOM      1  CA  THR A   1       9.374  -0.074  22.352  0.00  0.00    +0.105 C 
ENDROOT
BRANCH   1   2
ATOM      2  N   THR A   1       9.837  -1.041  21.327  0.00  0.00    -0.323 NA
ATOM      3  H1  THR A   1      10.576  -1.596  21.774  0.00  0.00    +0.119 HD
ATOM      4  H2  THR A   1       9.084  -1.705  21.151  0.00  0.00    +0.119 HD
ENDBRANCH   1   2
BRANCH   1   6
ATOM      5  CG2 THR A   1      10.512   0.219  24.661  0.00  0.00    +0.039 C 
ATOM      6  CB  THR A   1       9.575  -0.615  23.791  0.00  0.00    +0.130 C 
BRANCH   6   7
ATOM      7  OG1 THR A   1      10.102  -1.949  23.704  0.00  0.00    -0.390 OA
ATOM      8  HG1 THR A   1      10.764  -2.046  24.411  0.00  0.00    +0.210 HD
ENDBRANCH   6   7
ENDBRANCH   1   6
BRANCH   1   9
ATOM      9  C   THR A   1      10.049   1.290  22.145  0.00  0.00    +0.176 C 
BRANCH   9  10
ATOM     10  O   THR A   1       9.238   2.126  21.322  0.00  0.00    -0.393 OA
ATOM     11  H   THR A   1       8.498   1.560  21.035  0.00  0.00    +0.209 HD
ENDBRANCH   9  10
ENDBRANCH   1   9
TORSDOF 5
ENDMDL
MODEL 9
REMARK VINA RESULT:      -3.1      2.378      2.840
REMARK  Name = 
REMARK  6 active torsions:
REMARK  status: ('A' for Active; 'I' for Inactive)
REMARK    1  A    between atoms: CG2_1  and  CB_2
REMARK    2  A    between atoms: CB_2  and  OG1_4
REMARK    3  A    between atoms: CB_2  and  CA_5
REMARK    4  A    between atoms: CA_5  and  N_7
REMARK    5  A    between atoms: CA_5  and  C_8
REMARK    6  A    between atoms: C_8  and  O_9
REMARK                            x       y       z     vdW  Elec       q    Type
REMARK                         _______ _______ _______ _____ _____    ______ ____
ROOT
ATOM      1  CA  THR A   1       8.200   0.440  22.515  0.00  0.00    +0.105 C 
ENDROOT
BRANCH   1   2
ATOM      2  N   THR A   1       6.749   0.353  22.806  0.00  0.00    -0.323 NA
ATOM      3  H1  THR A   1       6.645  -0.378  23.518  0.00  0.00    +0.119 HD
ATOM      4  H2  THR A   1       6.465   1.214  23.274  0.00  0.00    +0.119 HD
ENDBRANCH   1   2
BRANCH   1   6
ATOM      5  CG2 THR A   1       9.721  -1.503  23.305  0.00  0.00    +0.039 C 
ATOM      6  CB  THR A   1       8.814  -0.951  22.209  0.00  0.00    +0.130 C 
BRANCH   6   7
ATOM      7  OG1 THR A   1       9.575  -0.852  20.994  0.00  0.00    -0.390 OA
ATOM      8  HG1 THR A   1       9.940  -1.735  20.809  0.00  0.00    +0.210 HD
ENDBRANCH   6   7
ENDBRANCH   1   6
BRANCH   1   9
ATOM      9  C   THR A   1       8.460   1.450  21.387  0.00  0.00    +0.176 C 
BRANCH   9  10
ATOM     10  O   THR A   1       9.767   2.009  21.511  0.00  0.00    -0.393 OA
ATOM     11  H   THR A   1       9.651   2.964  21.357  0.00  0.00    +0.209 HD
ENDBRANCH   9  10
ENDBRANCH   1   9
TORSDOF 5
ENDMDL
