MODEL 1
REMARK VINA RESULT:      -5.3      0.000      0.000
REMARK  Name = 
REMARK  7 active torsions:
REMARK  status: ('A' for Active; 'I' for Inactive)
REMARK    1  A    between atoms: C_1  and  C_2
REMARK    2  A    between atoms: N_4  and  C_5
REMARK    3  A    between atoms: C_7  and  O_9
REMARK    4  A    between atoms: C_11  and  C_13
REMARK    5  A    between atoms: C_13  and  O_14
REMARK    6  A    between atoms: C_15  and  O_17
REMARK    7  A    between atoms: C_18  and  O_20
REMARK                            x       y       z     vdW  Elec       q    Type
REMARK                         _______ _______ _______ _____ _____    ______ ____
ROOT
ATOM      1  C   UNL     1       9.651  -2.138  23.737  0.00  0.00    +0.160 C 
ATOM      2  C   UNL     1       9.953  -0.841  24.504  0.00  0.00    +0.171 C 
ATOM      3  C   UNL     1       8.759   0.123  24.459  0.00  0.00    +0.176 C 
ATOM      4  C   UNL     1       8.257   0.357  23.023  0.00  0.00    +0.178 C 
ATOM      5  O   UNL     1       8.043  -0.884  22.331  0.00  0.00    -0.341 OA
ATOM      6  C   UNL     1       9.147  -1.791  22.314  0.00  0.00    +0.270 C 
ENDROOT
BRANCH   1   9
ATOM      7  C   UNL     1       7.998  -4.969  25.664  0.00  0.00    +0.109 C 
ATOM      8  C   UNL     1       9.081  -4.243  24.919  0.00  0.00    +0.210 C 
ATOM      9  N   UNL     1       8.708  -2.998  24.460  0.00  0.00    -0.305 N 
ATOM     10  H   UNL     1       7.807  -2.620  24.732  0.00  0.00    +0.149 HD
ATOM     11  O   UNL     1      10.199  -4.715  24.750  0.00  0.00    -0.276 OA
ENDBRANCH   1   9
BRANCH   2  12
ATOM     12  O   UNL     1      11.100  -0.196  23.922  0.00  0.00    -0.387 OA
ATOM     13  H   UNL     1      10.876   0.760  23.928  0.00  0.00    +0.210 HD
ENDBRANCH   2  12
BRANCH   3  14
ATOM     14  O   UNL     1       9.129   1.346  25.104  0.00  0.00    -0.387 OA
ATOM     15  H   UNL     1      10.093   1.457  24.999  0.00  0.00    +0.210 HD
ENDBRANCH   3  14
BRANCH   6  16
ATOM     16  O   UNL     1      10.181  -1.320  21.463  0.00  0.00    -0.365 OA
ATOM     17  H   UNL     1      10.840  -2.038  21.387  0.00  0.00    +0.213 HD
ENDBRANCH   6  16
BRANCH   4  18
ATOM     18  C   UNL     1       9.085   1.372  22.209  0.00  0.00    +0.190 C 
BRANCH  18  19
ATOM     19  O   UNL     1       8.727   1.304  20.829  0.00  0.00    -0.392 OA
ATOM     20  H   UNL     1       9.057   2.133  20.432  0.00  0.00    +0.210 HD
ENDBRANCH  18  19
ENDBRANCH   4  18
TORSDOF 6
ENDMDL
MODEL 2
REMARK VINA RESULT:      -5.1      1.410      2.769
REMARK  Name = 
REMARK  7 active torsions:
REMARK  status: ('A' for Active; 'I' for Inactive)
REMARK    1  A    between atoms: C_1  and  C_2
REMARK    2  A    between atoms: N_4  and  C_5
REMARK    3  A    between atoms: C_7  and  O_9
REMARK    4  A    between atoms: C_11  and  C_13
REMARK    5  A    between atoms: C_13  and  O_14
REMARK    6  A    between atoms: C_15  and  O_17
REMARK    7  A    between atoms: C_18  and  O_20
REMARK                            x       y       z     vdW  Elec       q    Type
REMARK                         _______ _______ _______ _____ _____    ______ ____
ROOT
ATOM      1  C   UNL     1       8.689  -1.436  24.661  0.00  0.00    +0.160 C 
ATOM      2  C   UNL     1       8.451  -1.140  23.172  0.00  0.00    +0.171 C 
ATOM      3  C   UNL     1       9.758  -0.753  22.466  0.00  0.00    +0.176 C 
ATOM      4  C   UNL     1      10.505   0.370  23.208  0.00  0.00    +0.178 C 
ATOM      5  O   UNL     1      10.652   0.072  24.606  0.00  0.00    -0.341 OA
ATOM      6  C   UNL     1       9.450  -0.253  25.307  0.00  0.00    +0.270 C 
ENDROOT
BRANCH   1   9
ATOM      7  C   UNL     1       9.552  -5.082  25.314  0.00  0.00    +0.109 C 
ATOM      8  C   UNL     1       8.685  -3.864  25.172  0.00  0.00    +0.210 C 
ATOM      9  N   UNL     1       9.380  -2.714  24.866  0.00  0.00    -0.305 N 
ATOM     10  H   UNL     1      10.371  -2.775  24.658  0.00  0.00    +0.149 HD
ATOM     11  O   UNL     1       7.467  -3.899  25.303  0.00  0.00    -0.276 OA
ENDBRANCH   1   9
BRANCH   2  12
ATOM     12  O   UNL     1       7.507  -0.062  23.041  0.00  0.00    -0.387 OA
ATOM     13  H   UNL     1       7.993   0.731  23.355  0.00  0.00    +0.210 HD
ENDBRANCH   2  12
BRANCH   3  14
ATOM     14  O   UNL     1       9.462  -0.398  21.112  0.00  0.00    -0.387 OA
ATOM     15  H   UNL     1       8.866   0.374  21.130  0.00  0.00    +0.210 HD
ENDBRANCH   3  14
BRANCH   6  16
ATOM     16  O   UNL     1       8.637   0.896  25.484  0.00  0.00    -0.365 OA
ATOM     17  H   UNL     1       7.940   0.864  24.798  0.00  0.00    +0.213 HD
ENDBRANCH   6  16
BRANCH   4  18
ATOM     18  C   UNL     1       9.961   1.789  22.943  0.00  0.00    +0.190 C 
BRANCH  18  19
ATOM     19  O   UNL     1      10.250   2.184  21.602  0.00  0.00    -0.392 OA
ATOM     20  H   UNL     1       9.963   1.438  21.042  0.00  0.00    +0.210 HD
ENDBRANCH  18  19
ENDBRANCH   4  18
TORSDOF 6
ENDMDL
MODEL 3
REMARK VINA RESULT:      -5.0      2.250      5.431
REMARK  Name = 
REMARK  7 active torsions:
REMARK  status: ('A' for Active; 'I' for Inactive)
REMARK    1  A    between atoms: C_1  and  C_2
REMARK    2  A    between atoms: N_4  and  C_5
REMARK    3  A    between atoms: C_7  and  O_9
REMARK    4  A    between atoms: C_11  and  C_13
REMARK    5  A    between atoms: C_13  and  O_14
REMARK    6  A    between atoms: C_15  and  O_17
REMARK    7  A    between atoms: C_18  and  O_20
REMARK                            x       y       z     vdW  Elec       q    Type
REMARK                         _______ _______ _______ _____ _____    ______ ____
ROOT
ATOM      1  C   UNL     1       8.841  -3.274  23.750  0.00  0.00    +0.160 C 
ATOM      2  C   UNL     1       7.364  -3.690  23.669  0.00  0.00    +0.171 C 
ATOM      3  C   UNL     1       6.628  -3.390  24.983  0.00  0.00    +0.176 C 
ATOM      4  C   UNL     1       7.367  -3.968  26.204  0.00  0.00    +0.178 C 
ATOM      5  O   UNL     1       8.755  -3.597  26.204  0.00  0.00    -0.341 OA
ATOM      6  C   UNL     1       9.484  -3.899  25.013  0.00  0.00    +0.270 C 
ENDROOT
BRANCH   1   9
ATOM      7  C   UNL     1       9.989   0.273  23.003  0.00  0.00    +0.109 C 
ATOM      8  C   UNL     1       9.989  -1.228  22.946  0.00  0.00    +0.210 C 
ATOM      9  N   UNL     1       9.006  -1.817  23.711  0.00  0.00    -0.305 N 
ATOM     10  H   UNL     1       8.308  -1.232  24.158  0.00  0.00    +0.149 HD
ATOM     11  O   UNL     1      10.785  -1.864  22.266  0.00  0.00    -0.276 OA
ENDBRANCH   1   9
BRANCH   2  12
ATOM     12  O   UNL     1       7.276  -5.100  23.392  0.00  0.00    -0.387 OA
ATOM     13  H   UNL     1       6.750  -5.157  22.566  0.00  0.00    +0.210 HD
ENDBRANCH   2  12
BRANCH   3  14
ATOM     14  O   UNL     1       5.288  -3.883  24.883  0.00  0.00    -0.387 OA
ATOM     15  H   UNL     1       5.002  -3.781  23.956  0.00  0.00    +0.210 HD
ENDBRANCH   3  14
BRANCH   6  16
ATOM     16  O   UNL     1       9.701  -5.296  24.888  0.00  0.00    -0.365 OA
ATOM     17  H   UNL     1      10.400  -5.419  24.215  0.00  0.00    +0.213 HD
ENDBRANCH   6  16
BRANCH   4  18
ATOM     18  C   UNL     1       7.139  -5.474  26.440  0.00  0.00    +0.190 C 
BRANCH  18  19
ATOM     19  O   UNL     1       8.018  -5.950  27.460  0.00  0.00    -0.392 OA
ATOM     20  H   UNL     1       7.731  -5.507  28.281  0.00  0.00    +0.210 HD
ENDBRANCH  18  19
ENDBRANCH   4  18
TORSDOF 6
ENDMDL
MODEL 4
REMARK VINA RESULT:      -5.0      1.961      2.599
REMARK  Name = 
REMARK  7 active torsions:
REMARK  status: ('A' for Active; 'I' for Inactive)
REMARK    1  A    between atoms: C_1  and  C_2
REMARK    2  A    between atoms: N_4  and  C_5
REMARK    3  A    between atoms: C_7  and  O_9
REMARK    4  A    between atoms: C_11  and  C_13
REMARK    5  A    between atoms: C_13  and  O_14
REMARK    6  A    between atoms: C_15  and  O_17
REMARK    7  A    between atoms: C_18  and  O_20
REMARK                            x       y       z     vdW  Elec       q    Type
REMARK                         _______ _______ _______ _____ _____    ______ ____
ROOT
ATOM      1  C   UNL     1       9.454   0.102  22.769  0.00  0.00    +0.160 C 
ATOM      2  C   UNL     1       9.466   0.703  24.184  0.00  0.00    +0.171 C 
ATOM      3  C   UNL     1       8.152   1.435  24.489  0.00  0.00    +0.176 C 
ATOM      4  C   UNL     1       7.786   2.449  23.389  0.00  0.00    +0.178 C 
ATOM      5  O   UNL     1       7.843   1.853  22.083  0.00  0.00    -0.341 OA
ATOM      6  C   UNL     1       9.068   1.198  21.746  0.00  0.00    +0.270 C 
ENDROOT
BRANCH   1   9
ATOM      7  C   UNL     1       7.980  -3.401  22.904  0.00  0.00    +0.109 C 
ATOM      8  C   UNL     1       9.021  -2.327  23.033  0.00  0.00    +0.210 C 
ATOM      9  N   UNL     1       8.578  -1.071  22.677  0.00  0.00    -0.305 N 
ATOM     10  H   UNL     1       7.595  -0.935  22.466  0.00  0.00    +0.149 HD
ATOM     11  O   UNL     1      10.158  -2.551  23.433  0.00  0.00    -0.276 OA
ENDBRANCH   1   9
BRANCH   2  12
ATOM     12  O   UNL     1      10.560   1.630  24.302  0.00  0.00    -0.387 OA
ATOM     13  H   UNL     1      11.238   1.148  24.822  0.00  0.00    +0.210 HD
ENDBRANCH   2  12
BRANCH   3  14
ATOM     14  O   UNL     1       8.256   2.053  25.775  0.00  0.00    -0.387 OA
ATOM     15  H   UNL     1       8.521   1.366  26.415  0.00  0.00    +0.210 HD
ENDBRANCH   3  14
BRANCH   6  16
ATOM     16  O   UNL     1      10.107   2.139  21.528  0.00  0.00    -0.365 OA
ATOM     17  H   UNL     1      10.844   1.896  22.123  0.00  0.00    +0.213 HD
ENDBRANCH   6  16
BRANCH   4  18
ATOM     18  C   UNL     1       8.536   3.793  23.478  0.00  0.00    +0.190 C 
BRANCH  18  19
ATOM     19  O   UNL     1       8.291   4.572  22.306  0.00  0.00    -0.392 OA
ATOM     20  H   UNL     1       8.953   5.289  22.326  0.00  0.00    +0.210 HD
ENDBRANCH  18  19
ENDBRANCH   4  18
TORSDOF 6
ENDMDL
MODEL 5
REMARK VINA RESULT:      -5.0      1.439      2.184
REMARK  Name = 
REMARK  7 active torsions:
REMARK  status: ('A' for Active; 'I' for Inactive)
REMARK    1  A    between atoms: C_1  and  C_2
REMARK    2  A    between atoms: N_4  and  C_5
REMARK    3  A    between atoms: C_7  and  O_9
REMARK    4  A    between atoms: C_11  and  C_13
REMARK    5  A    between atoms: C_13  and  O_14
REMARK    6  A    between atoms: C_15  and  O_17
REMARK    7  A    between atoms: C_18  and  O_20
REMARK                            x       y       z     vdW  Elec       q    Type
REMARK                         _______ _______ _______ _____ _____    ______ ____
ROOT
ATOM      1  C   UNL     1       9.341  -1.107  24.457  0.00  0.00    +0.160 C 
ATOM      2  C   UNL     1       8.018  -0.347  24.280  0.00  0.00    +0.171 C 
ATOM      3  C   UNL     1       7.657  -0.197  22.796  0.00  0.00    +0.176 C 
ATOM      4  C   UNL     1       8.820   0.387  21.974  0.00  0.00    +0.178 C 
ATOM      5  O   UNL     1      10.046  -0.323  22.216  0.00  0.00    -0.341 OA
ATOM      6  C   UNL     1      10.437  -0.447  23.585  0.00  0.00    +0.270 C 
ENDROOT
BRANCH   1   9
ATOM      7  C   UNL     1       8.726  -4.854  24.677  0.00  0.00    +0.109 C 
ATOM      8  C   UNL     1       8.861  -3.438  25.159  0.00  0.00    +0.210 C 
ATOM      9  N   UNL     1       9.197  -2.539  24.170  0.00  0.00    -0.305 N 
ATOM     10  H   UNL     1       9.225  -2.851  23.206  0.00  0.00    +0.149 HD
ATOM     11  O   UNL     1       8.673  -3.115  26.326  0.00  0.00    -0.276 OA
ENDBRANCH   1   9
BRANCH   2  12
ATOM     12  O   UNL     1       8.133   0.960  24.871  0.00  0.00    -0.387 OA
ATOM     13  H   UNL     1       8.672   1.474  24.233  0.00  0.00    +0.210 HD
ENDBRANCH   2  12
BRANCH   3  14
ATOM     14  O   UNL     1       6.471   0.598  22.688  0.00  0.00    -0.387 OA
ATOM     15  H   UNL     1       5.712  -0.010  22.609  0.00  0.00    +0.210 HD
ENDBRANCH   3  14
BRANCH   6  16
ATOM     16  O   UNL     1      10.879   0.798  24.103  0.00  0.00    -0.365 OA
ATOM     17  H   UNL     1      10.766   1.462  23.393  0.00  0.00    +0.213 HD
ENDBRANCH   6  16
BRANCH   4  18
ATOM     18  C   UNL     1       8.974   1.918  22.073  0.00  0.00    +0.190 C 
BRANCH  18  19
ATOM     19  O   UNL     1      10.260   2.315  21.597  0.00  0.00    -0.392 OA
ATOM     20  H   UNL     1      10.897   1.718  22.034  0.00  0.00    +0.210 HD
ENDBRANCH  18  19
ENDBRANCH   4  18
TORSDOF 6
ENDMDL
MODEL 6
REMARK VINA RESULT:      -4.9      2.389      3.685
REMARK  Name = 
REMARK  7 active torsions:
REMARK  status: ('A' for Active; 'I' for Inactive)
REMARK    1  A    between atoms: C_1  and  C_2
REMARK    2  A    between atoms: N_4  and  C_5
REMARK    3  A    between atoms: C_7  and  O_9
REMARK    4  A    between atoms: C_11  and  C_13
REMARK    5  A    between atoms: C_13  and  O_14
REMARK    6  A    between atoms: C_15  and  O_17
REMARK    7  A    between atoms: C_18  and  O_20
REMARK                            x       y       z     vdW  Elec       q    Type
REMARK                         _______ _______ _______ _____ _____    ______ ____
ROOT
ATOM      1  C   UNL     1       7.336  -2.565  23.263  0.00  0.00    +0.160 C 
ATOM      2  C   UNL     1       7.919  -1.578  22.239  0.00  0.00    +0.171 C 
ATOM      3  C   UNL     1       9.454  -1.587  22.269  0.00  0.00    +0.176 C 
ATOM      4  C   UNL     1      10.005  -1.398  23.694  0.00  0.00    +0.178 C 
ATOM      5  O   UNL     1       9.389  -2.304  24.623  0.00  0.00    -0.341 OA
ATOM      6  C   UNL     1       7.961  -2.294  24.654  0.00  0.00    +0.270 C 
ENDROOT
BRANCH   1   9
ATOM      7  C   UNL     1       6.910  -6.017  21.727  0.00  0.00    +0.109 C 
ATOM      8  C   UNL     1       6.551  -4.605  22.091  0.00  0.00    +0.210 C 
ATOM      9  N   UNL     1       7.508  -3.960  22.843  0.00  0.00    -0.305 N 
ATOM     10  H   UNL     1       8.400  -4.415  23.005  0.00  0.00    +0.149 HD
ATOM     11  O   UNL     1       5.504  -4.076  21.735  0.00  0.00    -0.276 OA
ENDBRANCH   1   9
BRANCH   2  12
ATOM     12  O   UNL     1       7.451  -0.249  22.532  0.00  0.00    -0.387 OA
ATOM     13  H   UNL     1       6.987  -0.335  23.392  0.00  0.00    +0.210 HD
ENDBRANCH   2  12
BRANCH   3  14
ATOM     14  O   UNL     1       9.939  -0.586  21.369  0.00  0.00    -0.387 OA
ATOM     15  H   UNL     1      10.831  -0.854  21.078  0.00  0.00    +0.210 HD
ENDBRANCH   3  14
BRANCH   6  16
ATOM     16  O   UNL     1       7.472  -1.106  25.256  0.00  0.00    -0.365 OA
ATOM     17  H   UNL     1       8.251  -0.583  25.533  0.00  0.00    +0.213 HD
ENDBRANCH   6  16
BRANCH   4  18
ATOM     18  C   UNL     1      10.021   0.062  24.190  0.00  0.00    +0.190 C 
BRANCH  18  19
ATOM     19  O   UNL     1      10.145   0.098  25.612  0.00  0.00    -0.392 OA
ATOM     20  H   UNL     1      11.085   0.297  25.787  0.00  0.00    +0.210 HD
ENDBRANCH  18  19
ENDBRANCH   4  18
TORSDOF 6
ENDMDL
MODEL 7
REMARK VINA RESULT:      -4.9      1.931      2.070
REMARK  Name = 
REMARK  7 active torsions:
REMARK  status: ('A' for Active; 'I' for Inactive)
REMARK    1  A    between atoms: C_1  and  C_2
REMARK    2  A    between atoms: N_4  and  C_5
REMARK    3  A    between atoms: C_7  and  O_9
REMARK    4  A    between atoms: C_11  and  C_13
REMARK    5  A    between atoms: C_13  and  O_14
REMARK    6  A    between atoms: C_15  and  O_17
REMARK    7  A    between atoms: C_18  and  O_20
REMARK                            x       y       z     vdW  Elec       q    Type
REMARK                         _______ _______ _______ _____ _____    ______ ____
ROOT
ATOM      1  C   UNL     1       8.510  -1.616  23.181  0.00  0.00    +0.160 C 
ATOM      2  C   UNL     1       8.941  -0.811  24.417  0.00  0.00    +0.171 C 
ATOM      3  C   UNL     1       8.350   0.606  24.393  0.00  0.00    +0.176 C 
ATOM      4  C   UNL     1       8.626   1.324  23.060  0.00  0.00    +0.178 C 
ATOM      5  O   UNL     1       8.257   0.510  21.935  0.00  0.00    -0.341 OA
ATOM      6  C   UNL     1       8.822  -0.803  21.901  0.00  0.00    +0.270 C 
ENDROOT
BRANCH   1   9
ATOM      7  C   UNL     1       5.203  -3.476  22.920  0.00  0.00    +0.109 C 
ATOM      8  C   UNL     1       6.671  -3.220  22.732  0.00  0.00    +0.210 C 
ATOM      9  N   UNL     1       7.100  -2.017  23.249  0.00  0.00    -0.305 N 
ATOM     10  H   UNL     1       6.456  -1.454  23.794  0.00  0.00    +0.149 HD
ATOM     11  O   UNL     1       7.418  -4.020  22.181  0.00  0.00    -0.276 OA
ENDBRANCH   1   9
BRANCH   2  12
ATOM     12  O   UNL     1      10.377  -0.721  24.454  0.00  0.00    -0.387 OA
ATOM     13  H   UNL     1      10.663  -0.952  23.544  0.00  0.00    +0.210 HD
ENDBRANCH   2  12
BRANCH   3  14
ATOM     14  O   UNL     1       8.860   1.337  25.512  0.00  0.00    -0.387 OA
ATOM     15  H   UNL     1       8.468   2.230  25.488  0.00  0.00    +0.210 HD
ENDBRANCH   3  14
BRANCH   6  16
ATOM     16  O   UNL     1      10.208  -0.753  21.603  0.00  0.00    -0.365 OA
ATOM     17  H   UNL     1      10.621  -1.534  22.023  0.00  0.00    +0.213 HD
ENDBRANCH   6  16
BRANCH   4  18
ATOM     18  C   UNL     1      10.038   1.930  22.935  0.00  0.00    +0.190 C 
BRANCH  18  19
ATOM     19  O   UNL     1      10.295   2.305  21.581  0.00  0.00    -0.392 OA
ATOM     20  H   UNL     1       9.555   2.890  21.327  0.00  0.00    +0.210 HD
ENDBRANCH  18  19
ENDBRANCH   4  18
TORSDOF 6
ENDMDL
MODEL 8
REMARK VINA RESULT:      -4.8      3.034      5.708
REMARK  Name = 
REMARK  7 active torsions:
REMARK  status: ('A' for Active; 'I' for Inactive)
REMARK    1  A    between atoms: C_1  and  C_2
REMARK    2  A    between atoms: N_4  and  C_5
REMARK    3  A    between atoms: C_7  and  O_9
REMARK    4  A    between atoms: C_11  and  C_13
REMARK    5  A    between atoms: C_13  and  O_14
REMARK    6  A    between atoms: C_15  and  O_17
REMARK    7  A    between atoms: C_18  and  O_20
REMARK                            x       y       z     vdW  Elec       q    Type
REMARK                         _______ _______ _______ _____ _____    ______ ____
ROOT
ATOM      1  C   UNL     1       8.595   2.717  23.206  0.00  0.00    +0.160 C 
ATOM      2  C   UNL     1       8.897   1.875  24.455  0.00  0.00    +0.171 C 
ATOM      3  C   UNL     1      10.299   1.255  24.382  0.00  0.00    +0.176 C 
ATOM      4  C   UNL     1      10.531   0.503  23.059  0.00  0.00    +0.178 C 
ATOM      5  O   UNL     1      10.182   1.312  21.924  0.00  0.00    -0.341 OA
ATOM      6  C   UNL     1       8.868   1.873  21.936  0.00  0.00    +0.270 C 
ENDROOT
BRANCH   1   9
ATOM      7  C   UNL     1       9.693   6.337  23.597  0.00  0.00    +0.109 C 
ATOM      8  C   UNL     1       8.772   5.152  23.648  0.00  0.00    +0.210 C 
ATOM      9  N   UNL     1       9.342   3.980  23.199  0.00  0.00    -0.305 N 
ATOM     10  H   UNL     1      10.331   3.964  22.975  0.00  0.00    +0.149 HD
ATOM     11  O   UNL     1       7.623   5.224  24.066  0.00  0.00    -0.276 OA
ENDBRANCH   1   9
BRANCH   2  12
ATOM     12  O   UNL     1       7.922   0.823  24.572  0.00  0.00    -0.387 OA
ATOM     13  H   UNL     1       7.119   1.267  24.918  0.00  0.00    +0.210 HD
ENDBRANCH   2  12
BRANCH   3  14
ATOM     14  O   UNL     1      10.489   0.408  25.521  0.00  0.00    -0.387 OA
ATOM     15  H   UNL     1      11.413   0.097  25.509  0.00  0.00    +0.210 HD
ENDBRANCH   3  14
BRANCH   6  16
ATOM     16  O   UNL     1       7.885   0.874  21.716  0.00  0.00    -0.365 OA
ATOM     17  H   UNL     1       7.869   0.306  22.513  0.00  0.00    +0.213 HD
ENDBRANCH   6  16
BRANCH   4  18
ATOM     18  C   UNL     1       9.921  -0.912  23.007  0.00  0.00    +0.190 C 
BRANCH  18  19
ATOM     19  O   UNL     1      10.109  -1.482  21.712  0.00  0.00    -0.392 OA
ATOM     20  H   UNL     1       9.783  -2.400  21.780  0.00  0.00    +0.210 HD
ENDBRANCH  18  19
ENDBRANCH   4  18
TORSDOF 6
ENDMDL
MODEL 9
REMARK VINA RESULT:      -4.8      1.414      1.484
REMARK  Name = 
REMARK  7 active torsions:
REMARK  status: ('A' for Active; 'I' for Inactive)
REMARK    1  A    between atoms: C_1  and  C_2
REMARK    2  A    between atoms: N_4  and  C_5
REMARK    3  A    between atoms: C_7  and  O_9
REMARK    4  A    between atoms: C_11  and  C_13
REMARK    5  A    between atoms: C_13  and  O_14
REMARK    6  A    between atoms: C_15  and  O_17
REMARK    7  A    between atoms: C_18  and  O_20
REMARK                            x       y       z     vdW  Elec       q    Type
REMARK                         _______ _______ _______ _____ _____    ______ ____
ROOT
ATOM      1  C   UNL     1       9.105  -2.038  24.904  0.00  0.00    +0.160 C 
ATOM      2  C   UNL     1       9.194  -0.504  24.954  0.00  0.00    +0.171 C 
ATOM      3  C   UNL     1       8.215   0.142  23.963  0.00  0.00    +0.176 C 
ATOM      4  C   UNL     1       8.358  -0.440  22.546  0.00  0.00    +0.178 C 
ATOM      5  O   UNL     1       8.324  -1.876  22.559  0.00  0.00    -0.341 OA
ATOM      6  C   UNL     1       9.251  -2.516  23.439  0.00  0.00    +0.270 C 
ENDROOT
BRANCH   1   9
ATOM      7  C   UNL     1       6.556  -3.907  27.019  0.00  0.00    +0.109 C 
ATOM      8  C   UNL     1       7.905  -3.545  26.467  0.00  0.00    +0.210 C 
ATOM      9  N   UNL     1       7.874  -2.538  25.527  0.00  0.00    -0.305 N 
ATOM     10  H   UNL     1       7.002  -2.051  25.352  0.00  0.00    +0.149 HD
ATOM     11  O   UNL     1       8.939  -4.091  26.835  0.00  0.00    -0.276 OA
ENDBRANCH   1   9
BRANCH   2  12
ATOM     12  O   UNL     1      10.533  -0.090  24.630  0.00  0.00    -0.387 OA
ATOM     13  H   UNL     1      10.420   0.592  23.933  0.00  0.00    +0.210 HD
ENDBRANCH   2  12
BRANCH   3  14
ATOM     14  O   UNL     1       8.408   1.560  23.984  0.00  0.00    -0.387 OA
ATOM     15  H   UNL     1       7.762   1.957  23.370  0.00  0.00    +0.210 HD
ENDBRANCH   3  14
BRANCH   6  16
ATOM     16  O   UNL     1      10.579  -2.401  22.951  0.00  0.00    -0.365 OA
ATOM     17  H   UNL     1      11.022  -1.709  23.483  0.00  0.00    +0.213 HD
ENDBRANCH   6  16
BRANCH   4  18
ATOM     18  C   UNL     1       9.534   0.133  21.730  0.00  0.00    +0.190 C 
BRANCH  18  19
ATOM     19  O   UNL     1       9.163   1.378  21.138  0.00  0.00    -0.392 OA
ATOM     20  H   UNL     1       8.592   1.147  20.381  0.00  0.00    +0.210 HD
ENDBRANCH  18  19
ENDBRANCH   4  18
TORSDOF 6
ENDMDL
