MODEL 1
REMARK VINA RESULT:      -5.7      0.000      0.000
REMARK  Name = 
REMARK  12 active torsions:
REMARK  status: ('A' for Active; 'I' for Inactive)
REMARK    1  A    between atoms: O_1  and  C_2
REMARK    2  A    between atoms: C_4  and  O_6
REMARK    3  A    between atoms: C_7  and  O_9
REMARK    4  A    between atoms: O_9  and  P_10
REMARK    5  A    between atoms: P_10  and  O_11
REMARK    6  A    between atoms: P_10  and  O_12
REMARK    7  A    between atoms: C_14  and  O_16
REMARK    8  A    between atoms: C_17  and  O_19
REMARK    9  A    between atoms: O_19  and  P_20
REMARK   10  A    between atoms: P_20  and  O_21
REMARK   11  A    between atoms: P_20  and  O_22
REMARK   12  A    between atoms: C_24  and  O_26
REMARK                            x       y       z     vdW  Elec       q    Type
REMARK                         _______ _______ _______ _____ _____    ______ ____
ROOT
ATOM      1  C   UNL     1       6.281  -2.119  24.041  0.00  0.00    +0.177 C 
ATOM      2  C   UNL     1       7.107  -2.551  22.821  0.00  0.00    +0.177 C 
ATOM      3  C   UNL     1       7.817  -3.953  23.045  0.00  0.00    +0.192 C 
ATOM      4  C   UNL     1       8.774  -3.828  24.232  0.00  0.00    +0.178 C 
ATOM      5  C   UNL     1       7.878  -3.551  25.439  0.00  0.00    +0.192 C 
ATOM      6  C   UNL     1       7.122  -2.203  25.338  0.00  0.00    +0.177 C 
ENDROOT
BRANCH   1   7
ATOM      7  O   UNL     1       5.089  -2.903  24.073  0.00  0.00    -0.386 OA
ATOM      8  H   UNL     1       4.332  -2.296  24.172  0.00  0.00    +0.210 HD
ENDBRANCH   1   7
BRANCH   2   9
ATOM      9  O   UNL     1       8.044  -1.503  22.541  0.00  0.00    -0.386 OA
ATOM     10  H   UNL     1       7.969  -1.243  21.605  0.00  0.00    +0.210 HD
ENDBRANCH   2   9
BRANCH   4  11
ATOM     11  O   UNL     1       9.786  -2.845  24.046  0.00  0.00    -0.386 OA
ATOM     12  H   UNL     1       9.384  -1.962  24.148  0.00  0.00    +0.210 HD
ENDBRANCH   4  11
BRANCH   6  13
ATOM     13  O   UNL     1       8.049  -1.127  25.425  0.00  0.00    -0.386 OA
ATOM     14  H   UNL     1       8.935  -1.496  25.212  0.00  0.00    +0.210 HD
ENDBRANCH   6  13
BRANCH   3  15
ATOM     15  O   UNL     1       6.871  -5.122  23.222  0.00  0.00    -0.278 OA
BRANCH  15  16
ATOM     16  P   UNL     1       6.377  -5.362  21.582  0.00  0.00    +0.473 P 
ATOM     17  O   UNL     1       5.935  -5.576  20.114  0.00  0.00    -0.228 OA
BRANCH  16  18
ATOM     18  O   UNL     1       4.862  -5.070  22.112  0.00  0.00    -0.303 OA
ATOM     19  H   UNL     1       4.379  -4.620  21.398  0.00  0.00    +0.222 HD
ENDBRANCH  16  18
BRANCH  16  20
ATOM     20  O   UNL     1       6.339  -6.952  21.965  0.00  0.00    -0.303 OA
ATOM     21  H   UNL     1       5.903  -7.102  22.824  0.00  0.00    +0.222 HD
ENDBRANCH  16  20
ENDBRANCH  15  16
ENDBRANCH   3  15
BRANCH   5  22
ATOM     22  O   UNL     1       6.942  -4.633  25.522  0.00  0.00    -0.278 OA
BRANCH  22  23
ATOM     23  P   UNL     1       6.809  -5.146  27.170  0.00  0.00    +0.473 P 
ATOM     24  O   UNL     1       6.690  -5.604  28.643  0.00  0.00    -0.228 OA
BRANCH  23  25
ATOM     25  O   UNL     1       8.277  -5.823  26.932  0.00  0.00    -0.303 OA
ATOM     26  H   UNL     1       8.345  -6.314  26.100  0.00  0.00    +0.222 HD
ENDBRANCH  23  25
BRANCH  23  27
ATOM     27  O   UNL     1       5.958  -6.400  26.541  0.00  0.00    -0.303 OA
ATOM     28  H   UNL     1       5.875  -7.112  27.198  0.00  0.00    +0.222 HD
ENDBRANCH  23  27
ENDBRANCH  22  23
ENDBRANCH   5  22
TORSDOF 12
ENDMDL
MODEL 2
REMARK VINA RESULT:      -5.7      1.862      5.006
REMARK  Name = 
REMARK  12 active torsions:
REMARK  status: ('A' for Active; 'I' for Inactive)
REMARK    1  A    between atoms: O_1  and  C_2
REMARK    2  A    between atoms: C_4  and  O_6
REMARK    3  A    between atoms: C_7  and  O_9
REMARK    4  A    between atoms: O_9  and  P_10
REMARK    5  A    between atoms: P_10  and  O_11
REMARK    6  A    between atoms: P_10  and  O_12
REMARK    7  A    between atoms: C_14  and  O_16
REMARK    8  A    between atoms: C_17  and  O_19
REMARK    9  A    between atoms: O_19  and  P_20
REMARK   10  A    between atoms: P_20  and  O_21
REMARK   11  A    between atoms: P_20  and  O_22
REMARK   12  A    between atoms: C_24  and  O_26
REMARK                            x       y       z     vdW  Elec       q    Type
REMARK                         _______ _______ _______ _____ _____    ______ ____
ROOT
ATOM      1  C   UNL     1       5.465  -3.109  23.647  0.00  0.00    +0.177 C 
ATOM      2  C   UNL     1       5.485  -4.530  24.229  0.00  0.00    +0.177 C 
ATOM      3  C   UNL     1       6.943  -5.158  24.227  0.00  0.00    +0.192 C 
ATOM      4  C   UNL     1       7.432  -5.243  22.781  0.00  0.00    +0.178 C 
ATOM      5  C   UNL     1       7.539  -3.793  22.310  0.00  0.00    +0.192 C 
ATOM      6  C   UNL     1       6.172  -3.064  22.271  0.00  0.00    +0.177 C 
ENDROOT
BRANCH   1   7
ATOM      7  O   UNL     1       6.026  -2.224  24.615  0.00  0.00    -0.386 OA
ATOM      8  H   UNL     1       5.978  -1.317  24.257  0.00  0.00    +0.210 HD
ENDBRANCH   1   7
BRANCH   2   9
ATOM      9  O   UNL     1       4.550  -5.316  23.479  0.00  0.00    -0.386 OA
ATOM     10  H   UNL     1       3.644  -5.014  23.671  0.00  0.00    +0.210 HD
ENDBRANCH   2   9
BRANCH   4  11
ATOM     11  O   UNL     1       6.605  -6.045  21.946  0.00  0.00    -0.386 OA
ATOM     12  H   UNL     1       6.467  -6.907  22.382  0.00  0.00    +0.210 HD
ENDBRANCH   4  11
BRANCH   6  13
ATOM     13  O   UNL     1       5.358  -3.631  21.251  0.00  0.00    -0.386 OA
ATOM     14  H   UNL     1       4.427  -3.402  21.468  0.00  0.00    +0.210 HD
ENDBRANCH   6  13
BRANCH   3  15
ATOM     15  O   UNL     1       7.945  -4.438  25.105  0.00  0.00    -0.278 OA
BRANCH  15  16
ATOM     16  P   UNL     1       7.590  -5.171  26.632  0.00  0.00    +0.473 P 
ATOM     17  O   UNL     1       7.274  -5.828  27.997  0.00  0.00    -0.228 OA
BRANCH  16  18
ATOM     18  O   UNL     1       7.075  -3.696  27.096  0.00  0.00    -0.303 OA
ATOM     19  H   UNL     1       6.130  -3.767  27.317  0.00  0.00    +0.222 HD
ENDBRANCH  16  18
BRANCH  16  20
ATOM     20  O   UNL     1       9.159  -4.873  26.990  0.00  0.00    -0.303 OA
ATOM     21  H   UNL     1       9.758  -5.291  26.344  0.00  0.00    +0.222 HD
ENDBRANCH  16  20
ENDBRANCH  15  16
ENDBRANCH   3  15
BRANCH   5  22
ATOM     22  O   UNL     1       8.426  -3.124  23.215  0.00  0.00    -0.278 OA
BRANCH  22  23
ATOM     23  P   UNL     1       9.080  -1.722  22.440  0.00  0.00    +0.473 P 
ATOM     24  O   UNL     1       9.664  -0.468  21.746  0.00  0.00    -0.228 OA
BRANCH  23  25
ATOM     25  O   UNL     1      10.533  -2.329  22.876  0.00  0.00    -0.303 OA
ATOM     26  H   UNL     1      11.282  -1.829  22.520  0.00  0.00    +0.222 HD
ENDBRANCH  23  25
BRANCH  23  27
ATOM     27  O   UNL     1       8.783  -0.988  23.877  0.00  0.00    -0.303 OA
ATOM     28  H   UNL     1       9.519  -1.146  24.493  0.00  0.00    +0.222 HD
ENDBRANCH  23  27
ENDBRANCH  22  23
ENDBRANCH   5  22
TORSDOF 12
ENDMDL
MODEL 3
REMARK VINA RESULT:      -5.6      1.017      4.695
REMARK  Name = 
REMARK  12 active torsions:
REMARK  status: ('A' for Active; 'I' for Inactive)
REMARK    1  A    between atoms: O_1  and  C_2
REMARK    2  A    between atoms: C_4  and  O_6
REMARK    3  A    between atoms: C_7  and  O_9
REMARK    4  A    between atoms: O_9  and  P_10
REMARK    5  A    between atoms: P_10  and  O_11
REMARK    6  A    between atoms: P_10  and  O_12
REMARK    7  A    between atoms: C_14  and  O_16
REMARK    8  A    between atoms: C_17  and  O_19
REMARK    9  A    between atoms: O_19  and  P_20
REMARK   10  A    between atoms: P_20  and  O_21
REMARK   11  A    between atoms: P_20  and  O_22
REMARK   12  A    between atoms: C_24  and  O_26
REMARK                            x       y       z     vdW  Elec       q    Type
REMARK                         _______ _______ _______ _____ _____    ______ ____
ROOT
ATOM      1  C   UNL     1       9.070  -3.583  24.431  0.00  0.00    +0.177 C 
ATOM      2  C   UNL     1       8.435  -3.165  25.766  0.00  0.00    +0.177 C 
ATOM      3  C   UNL     1       6.880  -3.480  25.814  0.00  0.00    +0.192 C 
ATOM      4  C   UNL     1       6.190  -2.685  24.703  0.00  0.00    +0.178 C 
ATOM      5  C   UNL     1       6.750  -3.253  23.400  0.00  0.00    +0.192 C 
ATOM      6  C   UNL     1       8.271  -3.012  23.235  0.00  0.00    +0.177 C 
ENDROOT
BRANCH   1   7
ATOM      7  O   UNL     1       9.190  -5.005  24.421  0.00  0.00    -0.386 OA
ATOM      8  H   UNL     1      10.139  -5.226  24.387  0.00  0.00    +0.210 HD
ENDBRANCH   1   7
BRANCH   2   9
ATOM      9  O   UNL     1       8.718  -1.774  25.961  0.00  0.00    -0.386 OA
ATOM     10  H   UNL     1       8.260  -1.459  26.761  0.00  0.00    +0.210 HD
ENDBRANCH   2   9
BRANCH   4  11
ATOM     11  O   UNL     1       6.360  -1.278  24.822  0.00  0.00    -0.386 OA
ATOM     12  H   UNL     1       6.350  -1.042  25.768  0.00  0.00    +0.210 HD
ENDBRANCH   4  11
BRANCH   6  13
ATOM     13  O   UNL     1       8.518  -1.621  23.063  0.00  0.00    -0.386 OA
ATOM     14  H   UNL     1       8.160  -1.374  22.181  0.00  0.00    +0.210 HD
ENDBRANCH   6  13
BRANCH   3  15
ATOM     15  O   UNL     1       6.528  -4.950  25.738  0.00  0.00    -0.278 OA
BRANCH  15  16
ATOM     16  P   UNL     1       6.581  -5.361  27.417  0.00  0.00    +0.473 P 
ATOM     17  O   UNL     1       6.629  -5.729  28.920  0.00  0.00    -0.228 OA
BRANCH  16  18
ATOM     18  O   UNL     1       8.011  -6.072  27.084  0.00  0.00    -0.303 OA
ATOM     19  H   UNL     1       8.703  -5.391  27.151  0.00  0.00    +0.222 HD
ENDBRANCH  16  18
BRANCH  16  20
ATOM     20  O   UNL     1       5.691  -6.666  26.991  0.00  0.00    -0.303 OA
ATOM     21  H   UNL     1       6.244  -7.354  26.575  0.00  0.00    +0.222 HD
ENDBRANCH  16  20
ENDBRANCH  15  16
ENDBRANCH   3  15
BRANCH   5  22
ATOM     22  O   UNL     1       6.474  -4.660  23.404  0.00  0.00    -0.278 OA
BRANCH  22  23
ATOM     23  P   UNL     1       6.224  -5.196  21.778  0.00  0.00    +0.473 P 
ATOM     24  O   UNL     1       6.000  -5.675  20.324  0.00  0.00    -0.228 OA
BRANCH  23  25
ATOM     25  O   UNL     1       5.107  -6.196  22.427  0.00  0.00    -0.303 OA
ATOM     26  H   UNL     1       4.509  -5.755  23.049  0.00  0.00    +0.222 HD
ENDBRANCH  23  25
BRANCH  23  27
ATOM     27  O   UNL     1       7.503  -6.179  22.077  0.00  0.00    -0.303 OA
ATOM     28  H   UNL     1       7.751  -6.130  23.016  0.00  0.00    +0.222 HD
ENDBRANCH  23  27
ENDBRANCH  22  23
ENDBRANCH   5  22
TORSDOF 12
ENDMDL
MODEL 4
REMARK VINA RESULT:      -5.6      1.918      4.452
REMARK  Name = 
REMARK  12 active torsions:
REMARK  status: ('A' for Active; 'I' for Inactive)
REMARK    1  A    between atoms: O_1  and  C_2
REMARK    2  A    between atoms: C_4  and  O_6
REMARK    3  A    between atoms: C_7  and  O_9
REMARK    4  A    between atoms: O_9  and  P_10
REMARK    5  A    between atoms: P_10  and  O_11
REMARK    6  A    between atoms: P_10  and  O_12
REMARK    7  A    between atoms: C_14  and  O_16
REMARK    8  A    between atoms: C_17  and  O_19
REMARK    9  A    between atoms: O_19  and  P_20
REMARK   10  A    between atoms: P_20  and  O_21
REMARK   11  A    between atoms: P_20  and  O_22
REMARK   12  A    between atoms: C_24  and  O_26
REMARK                            x       y       z     vdW  Elec       q    Type
REMARK                         _______ _______ _______ _____ _____    ______ ____
ROOT
ATOM      1  C   UNL     1       7.094  -3.467  26.040  0.00  0.00    +0.177 C 
ATOM      2  C   UNL     1       8.613  -3.276  25.916  0.00  0.00    +0.177 C 
ATOM      3  C   UNL     1       9.173  -3.812  24.531  0.00  0.00    +0.192 C 
ATOM      4  C   UNL     1       8.886  -5.312  24.440  0.00  0.00    +0.178 C 
ATOM      5  C   UNL     1       7.362  -5.425  24.412  0.00  0.00    +0.192 C 
ATOM      6  C   UNL     1       6.692  -4.926  25.716  0.00  0.00    +0.177 C 
ENDROOT
BRANCH   1   7
ATOM      7  O   UNL     1       6.454  -2.494  25.216  0.00  0.00    -0.386 OA
ATOM      8  H   UNL     1       6.219  -2.922  24.372  0.00  0.00    +0.210 HD
ENDBRANCH   1   7
BRANCH   2   9
ATOM      9  O   UNL     1       9.222  -3.924  27.039  0.00  0.00    -0.386 OA
ATOM     10  H   UNL     1      10.176  -4.032  26.873  0.00  0.00    +0.210 HD
ENDBRANCH   2   9
BRANCH   4  11
ATOM     11  O   UNL     1       9.487  -6.070  25.482  0.00  0.00    -0.386 OA
ATOM     12  H   UNL     1       9.846  -6.894  25.101  0.00  0.00    +0.210 HD
ENDBRANCH   4  11
BRANCH   6  13
ATOM     13  O   UNL     1       7.018  -5.804  26.787  0.00  0.00    -0.386 OA
ATOM     14  H   UNL     1       7.494  -5.269  27.460  0.00  0.00    +0.210 HD
ENDBRANCH   6  13
BRANCH   3  15
ATOM     15  O   UNL     1       8.657  -3.079  23.311  0.00  0.00    -0.278 OA
BRANCH  15  16
ATOM     16  P   UNL     1       9.658  -1.668  23.360  0.00  0.00    +0.473 P 
ATOM     17  O   UNL     1      10.553  -0.406  23.405  0.00  0.00    -0.228 OA
BRANCH  16  18
ATOM     18  O   UNL     1       8.267  -0.816  23.326  0.00  0.00    -0.303 OA
ATOM     19  H   UNL     1       8.399  -0.057  22.731  0.00  0.00    +0.222 HD
ENDBRANCH  16  18
BRANCH  16  20
ATOM     20  O   UNL     1       9.742  -1.832  21.735  0.00  0.00    -0.303 OA
ATOM     21  H   UNL     1      10.241  -2.632  21.482  0.00  0.00    +0.222 HD
ENDBRANCH  16  20
ENDBRANCH  15  16
ENDBRANCH   3  15
BRANCH   5  22
ATOM     22  O   UNL     1       6.905  -4.648  23.297  0.00  0.00    -0.278 OA
BRANCH  22  23
ATOM     23  P   UNL     1       5.258  -5.055  22.956  0.00  0.00    +0.473 P 
ATOM     24  O   UNL     1       3.785  -5.418  22.653  0.00  0.00    -0.228 OA
BRANCH  23  25
ATOM     25  O   UNL     1       5.884  -6.337  22.161  0.00  0.00    -0.303 OA
ATOM     26  H   UNL     1       6.447  -6.897  22.716  0.00  0.00    +0.222 HD
ENDBRANCH  23  25
BRANCH  23  27
ATOM     27  O   UNL     1       5.426  -4.003  21.708  0.00  0.00    -0.303 OA
ATOM     28  H   UNL     1       4.703  -3.353  21.717  0.00  0.00    +0.222 HD
ENDBRANCH  23  27
ENDBRANCH  22  23
ENDBRANCH   5  22
TORSDOF 12
ENDMDL
MODEL 5
REMARK VINA RESULT:      -5.5      1.808      3.968
REMARK  Name = 
REMARK  12 active torsions:
REMARK  status: ('A' for Active; 'I' for Inactive)
REMARK    1  A    between atoms: O_1  and  C_2
REMARK    2  A    between atoms: C_4  and  O_6
REMARK    3  A    between atoms: C_7  and  O_9
REMARK    4  A    between atoms: O_9  and  P_10
REMARK    5  A    between atoms: P_10  and  O_11
REMARK    6  A    between atoms: P_10  and  O_12
REMARK    7  A    between atoms: C_14  and  O_16
REMARK    8  A    between atoms: C_17  and  O_19
REMARK    9  A    between atoms: O_19  and  P_20
REMARK   10  A    between atoms: P_20  and  O_21
REMARK   11  A    between atoms: P_20  and  O_22
REMARK   12  A    between atoms: C_24  and  O_26
REMARK                            x       y       z     vdW  Elec       q    Type
REMARK                         _______ _______ _______ _____ _____    ______ ____
ROOT
ATOM      1  C   UNL     1       6.947  -5.545  22.553  0.00  0.00    +0.177 C 
ATOM      2  C   UNL     1       6.792  -4.029  22.362  0.00  0.00    +0.177 C 
ATOM      3  C   UNL     1       6.671  -3.260  23.745  0.00  0.00    +0.192 C 
ATOM      4  C   UNL     1       5.424  -3.766  24.473  0.00  0.00    +0.178 C 
ATOM      5  C   UNL     1       5.705  -5.238  24.771  0.00  0.00    +0.192 C 
ATOM      6  C   UNL     1       5.849  -6.100  23.492  0.00  0.00    +0.177 C 
ENDROOT
BRANCH   1   7
ATOM      7  O   UNL     1       8.277  -5.803  23.002  0.00  0.00    -0.386 OA
ATOM      8  H   UNL     1       8.693  -4.948  23.216  0.00  0.00    +0.210 HD
ENDBRANCH   1   7
BRANCH   2   9
ATOM      9  O   UNL     1       5.655  -3.815  21.516  0.00  0.00    -0.386 OA
ATOM     10  H   UNL     1       5.929  -3.879  20.583  0.00  0.00    +0.210 HD
ENDBRANCH   2   9
BRANCH   4  11
ATOM     11  O   UNL     1       4.218  -3.560  23.746  0.00  0.00    -0.386 OA
ATOM     12  H   UNL     1       4.071  -2.600  23.654  0.00  0.00    +0.210 HD
ENDBRANCH   4  11
BRANCH   6  13
ATOM     13  O   UNL     1       4.593  -6.184  22.829  0.00  0.00    -0.386 OA
ATOM     14  H   UNL     1       3.942  -5.705  23.388  0.00  0.00    +0.210 HD
ENDBRANCH   6  13
BRANCH   3  15
ATOM     15  O   UNL     1       7.897  -3.348  24.630  0.00  0.00    -0.278 OA
BRANCH  15  16
ATOM     16  P   UNL     1       9.018  -2.430  23.684  0.00  0.00    +0.473 P 
ATOM     17  O   UNL     1      10.021  -1.610  22.838  0.00  0.00    -0.228 OA
BRANCH  16  18
ATOM     18  O   UNL     1      10.120  -3.560  24.097  0.00  0.00    -0.303 OA
ATOM     19  H   UNL     1       9.695  -4.432  24.017  0.00  0.00    +0.222 HD
ENDBRANCH  16  18
BRANCH  16  20
ATOM     20  O   UNL     1       9.235  -1.544  25.042  0.00  0.00    -0.303 OA
ATOM     21  H   UNL     1       8.410  -1.101  25.314  0.00  0.00    +0.222 HD
ENDBRANCH  16  20
ENDBRANCH  15  16
ENDBRANCH   3  15
BRANCH   5  22
ATOM     22  O   UNL     1       6.917  -5.286  25.534  0.00  0.00    -0.278 OA
BRANCH  22  23
ATOM     23  P   UNL     1       6.531  -5.239  27.221  0.00  0.00    +0.473 P 
ATOM     24  O   UNL     1       6.185  -5.196  28.728  0.00  0.00    -0.228 OA
BRANCH  23  25
ATOM     25  O   UNL     1       8.026  -5.860  27.438  0.00  0.00    -0.303 OA
ATOM     26  H   UNL     1       8.087  -6.802  27.224  0.00  0.00    +0.222 HD
ENDBRANCH  23  25
BRANCH  23  27
ATOM     27  O   UNL     1       5.806  -6.682  26.929  0.00  0.00    -0.303 OA
ATOM     28  H   UNL     1       4.852  -6.557  26.792  0.00  0.00    +0.222 HD
ENDBRANCH  23  27
ENDBRANCH  22  23
ENDBRANCH   5  22
TORSDOF 12
ENDMDL
MODEL 6
REMARK VINA RESULT:      -5.4      1.686      4.558
REMARK  Name = 
REMARK  12 active torsions:
REMARK  status: ('A' for Active; 'I' for Inactive)
REMARK    1  A    between atoms: O_1  and  C_2
REMARK    2  A    between atoms: C_4  and  O_6
REMARK    3  A    between atoms: C_7  and  O_9
REMARK    4  A    between atoms: O_9  and  P_10
REMARK    5  A    between atoms: P_10  and  O_11
REMARK    6  A    between atoms: P_10  and  O_12
REMARK    7  A    between atoms: C_14  and  O_16
REMARK    8  A    between atoms: C_17  and  O_19
REMARK    9  A    between atoms: O_19  and  P_20
REMARK   10  A    between atoms: P_20  and  O_21
REMARK   11  A    between atoms: P_20  and  O_22
REMARK   12  A    between atoms: C_24  and  O_26
REMARK                            x       y       z     vdW  Elec       q    Type
REMARK                         _______ _______ _______ _____ _____    ______ ____
ROOT
ATOM      1  C   UNL     1       8.082  -5.271  26.272  0.00  0.00    +0.177 C 
ATOM      2  C   UNL     1       7.842  -3.763  26.432  0.00  0.00    +0.177 C 
ATOM      3  C   UNL     1       7.125  -3.133  25.163  0.00  0.00    +0.192 C 
ATOM      4  C   UNL     1       8.031  -3.332  23.946  0.00  0.00    +0.178 C 
ATOM      5  C   UNL     1       8.105  -4.845  23.747  0.00  0.00    +0.192 C 
ATOM      6  C   UNL     1       8.785  -5.581  24.929  0.00  0.00    +0.177 C 
ENDROOT
BRANCH   1   7
ATOM      7  O   UNL     1       6.834  -5.941  26.440  0.00  0.00    -0.386 OA
ATOM      8  H   UNL     1       6.215  -5.321  26.870  0.00  0.00    +0.210 HD
ENDBRANCH   1   7
BRANCH   2   9
ATOM      9  O   UNL     1       9.109  -3.151  26.704  0.00  0.00    -0.386 OA
ATOM     10  H   UNL     1       9.375  -2.604  25.942  0.00  0.00    +0.210 HD
ENDBRANCH   2   9
BRANCH   4  11
ATOM     11  O   UNL     1       9.308  -2.720  24.081  0.00  0.00    -0.386 OA
ATOM     12  H   UNL     1       9.273  -2.088  24.824  0.00  0.00    +0.210 HD
ENDBRANCH   4  11
BRANCH   6  13
ATOM     13  O   UNL     1      10.165  -5.237  24.974  0.00  0.00    -0.386 OA
ATOM     14  H   UNL     1      10.647  -5.920  24.457  0.00  0.00    +0.210 HD
ENDBRANCH   6  13
BRANCH   3  15
ATOM     15  O   UNL     1       5.728  -3.654  24.900  0.00  0.00    -0.278 OA
BRANCH  15  16
ATOM     16  P   UNL     1       4.793  -2.371  25.587  0.00  0.00    +0.473 P 
ATOM     17  O   UNL     1       3.956  -1.223  26.202  0.00  0.00    -0.228 OA
BRANCH  16  18
ATOM     18  O   UNL     1       3.506  -3.077  24.876  0.00  0.00    -0.303 OA
ATOM     19  H   UNL     1       3.001  -2.382  24.419  0.00  0.00    +0.222 HD
ENDBRANCH  16  18
BRANCH  16  20
ATOM     20  O   UNL     1       5.221  -1.523  24.255  0.00  0.00    -0.303 OA
ATOM     21  H   UNL     1       4.597  -1.673  23.521  0.00  0.00    +0.222 HD
ENDBRANCH  16  20
ENDBRANCH  15  16
ENDBRANCH   3  15
BRANCH   5  22
ATOM     22  O   UNL     1       6.759  -5.312  23.589  0.00  0.00    -0.278 OA
BRANCH  22  23
ATOM     23  P   UNL     1       6.348  -5.305  21.908  0.00  0.00    +0.473 P 
ATOM     24  O   UNL     1       5.981  -5.298  20.404  0.00  0.00    -0.228 OA
BRANCH  23  25
ATOM     25  O   UNL     1       4.945  -4.626  22.396  0.00  0.00    -0.303 OA
ATOM     26  H   UNL     1       4.463  -4.182  21.683  0.00  0.00    +0.222 HD
ENDBRANCH  23  25
BRANCH  23  27
ATOM     27  O   UNL     1       5.874  -6.852  22.183  0.00  0.00    -0.303 OA
ATOM     28  H   UNL     1       5.530  -7.248  21.364  0.00  0.00    +0.222 HD
ENDBRANCH  23  27
ENDBRANCH  22  23
ENDBRANCH   5  22
TORSDOF 12
ENDMDL
MODEL 7
REMARK VINA RESULT:      -5.4      1.715      4.612
REMARK  Name = 
REMARK  12 active torsions:
REMARK  status: ('A' for Active; 'I' for Inactive)
REMARK    1  A    between atoms: O_1  and  C_2
REMARK    2  A    between atoms: C_4  and  O_6
REMARK    3  A    between atoms: C_7  and  O_9
REMARK    4  A    between atoms: O_9  and  P_10
REMARK    5  A    between atoms: P_10  and  O_11
REMARK    6  A    between atoms: P_10  and  O_12
REMARK    7  A    between atoms: C_14  and  O_16
REMARK    8  A    between atoms: C_17  and  O_19
REMARK    9  A    between atoms: O_19  and  P_20
REMARK   10  A    between atoms: P_20  and  O_21
REMARK   11  A    between atoms: P_20  and  O_22
REMARK   12  A    between atoms: C_24  and  O_26
REMARK                            x       y       z     vdW  Elec       q    Type
REMARK                         _______ _______ _______ _____ _____    ______ ____
ROOT
ATOM      1  C   UNL     1       9.782  -1.118  23.085  0.00  0.00    +0.177 C 
ATOM      2  C   UNL     1       9.750  -1.039  24.619  0.00  0.00    +0.177 C 
ATOM      3  C   UNL     1       8.736  -2.084  25.251  0.00  0.00    +0.192 C 
ATOM      4  C   UNL     1       7.329  -1.764  24.741  0.00  0.00    +0.178 C 
ATOM      5  C   UNL     1       7.386  -2.010  23.234  0.00  0.00    +0.192 C 
ATOM      6  C   UNL     1       8.352  -1.048  22.497  0.00  0.00    +0.177 C 
ENDROOT
BRANCH   1   7
ATOM      7  O   UNL     1      10.504  -2.292  22.715  0.00  0.00    -0.386 OA
ATOM      8  H   UNL     1      10.682  -2.246  21.757  0.00  0.00    +0.210 HD
ENDBRANCH   1   7
BRANCH   2   9
ATOM      9  O   UNL     1       9.434   0.313  24.974  0.00  0.00    -0.386 OA
ATOM     10  H   UNL     1       9.631   0.454  25.918  0.00  0.00    +0.210 HD
ENDBRANCH   2   9
BRANCH   4  11
ATOM     11  O   UNL     1       6.885  -0.456  25.080  0.00  0.00    -0.386 OA
ATOM     12  H   UNL     1       7.339   0.187  24.503  0.00  0.00    +0.210 HD
ENDBRANCH   4  11
BRANCH   6  13
ATOM     13  O   UNL     1       7.836   0.277  22.545  0.00  0.00    -0.386 OA
ATOM     14  H   UNL     1       7.851   0.556  23.487  0.00  0.00    +0.210 HD
ENDBRANCH   6  13
BRANCH   3  15
ATOM     15  O   UNL     1       9.090  -3.536  25.012  0.00  0.00    -0.278 OA
BRANCH  15  16
ATOM     16  P   UNL     1       8.282  -4.269  26.356  0.00  0.00    +0.473 P 
ATOM     17  O   UNL     1       7.560  -4.924  27.558  0.00  0.00    -0.228 OA
BRANCH  16  18
ATOM     18  O   UNL     1       9.661  -5.109  26.584  0.00  0.00    -0.303 OA
ATOM     19  H   UNL     1       9.937  -4.982  27.509  0.00  0.00    +0.222 HD
ENDBRANCH  16  18
BRANCH  16  20
ATOM     20  O   UNL     1       7.680  -5.316  25.253  0.00  0.00    -0.303 OA
ATOM     21  H   UNL     1       8.120  -6.185  25.308  0.00  0.00    +0.222 HD
ENDBRANCH  16  20
ENDBRANCH  15  16
ENDBRANCH   3  15
BRANCH   5  22
ATOM     22  O   UNL     1       7.808  -3.367  23.047  0.00  0.00    -0.278 OA
BRANCH  22  23
ATOM     23  P   UNL     1       6.731  -4.152  21.944  0.00  0.00    +0.473 P 
ATOM     24  O   UNL     1       5.767  -4.854  20.957  0.00  0.00    -0.228 OA
BRANCH  23  25
ATOM     25  O   UNL     1       5.715  -4.246  23.220  0.00  0.00    -0.303 OA
ATOM     26  H   UNL     1       5.969  -3.672  23.958  0.00  0.00    +0.222 HD
ENDBRANCH  23  25
BRANCH  23  27
ATOM     27  O   UNL     1       7.582  -5.502  22.326  0.00  0.00    -0.303 OA
ATOM     28  H   UNL     1       7.328  -5.820  23.209  0.00  0.00    +0.222 HD
ENDBRANCH  23  27
ENDBRANCH  22  23
ENDBRANCH   5  22
TORSDOF 12
ENDMDL
MODEL 8
REMARK VINA RESULT:      -5.2      1.669      4.364
REMARK  Name = 
REMARK  12 active torsions:
REMARK  status: ('A' for Active; 'I' for Inactive)
REMARK    1  A    between atoms: O_1  and  C_2
REMARK    2  A    between atoms: C_4  and  O_6
REMARK    3  A    between atoms: C_7  and  O_9
REMARK    4  A    between atoms: O_9  and  P_10
REMARK    5  A    between atoms: P_10  and  O_11
REMARK    6  A    between atoms: P_10  and  O_12
REMARK    7  A    between atoms: C_14  and  O_16
REMARK    8  A    between atoms: C_17  and  O_19
REMARK    9  A    between atoms: O_19  and  P_20
REMARK   10  A    between atoms: P_20  and  O_21
REMARK   11  A    between atoms: P_20  and  O_22
REMARK   12  A    between atoms: C_24  and  O_26
REMARK                            x       y       z     vdW  Elec       q    Type
REMARK                         _______ _______ _______ _____ _____    ______ ____
ROOT
ATOM      1  C   UNL     1       7.202  -3.815  22.433  0.00  0.00    +0.177 C 
ATOM      2  C   UNL     1       8.093  -3.486  23.641  0.00  0.00    +0.177 C 
ATOM      3  C   UNL     1       7.365  -3.782  25.020  0.00  0.00    +0.192 C 
ATOM      4  C   UNL     1       6.118  -2.901  25.110  0.00  0.00    +0.178 C 
ATOM      5  C   UNL     1       5.208  -3.381  23.980  0.00  0.00    +0.192 C 
ATOM      6  C   UNL     1       5.812  -3.149  22.573  0.00  0.00    +0.177 C 
ENDROOT
BRANCH   1   7
ATOM      7  O   UNL     1       7.152  -5.234  22.291  0.00  0.00    -0.386 OA
ATOM      8  H   UNL     1       7.642  -5.628  23.037  0.00  0.00    +0.210 HD
ENDBRANCH   1   7
BRANCH   2   9
ATOM      9  O   UNL     1       8.495  -2.116  23.519  0.00  0.00    -0.386 OA
ATOM     10  H   UNL     1       9.407  -2.075  23.176  0.00  0.00    +0.210 HD
ENDBRANCH   2   9
BRANCH   4  11
ATOM     11  O   UNL     1       6.401  -1.508  25.050  0.00  0.00    -0.386 OA
ATOM     12  H   UNL     1       5.753  -1.035  25.607  0.00  0.00    +0.210 HD
ENDBRANCH   4  11
BRANCH   6  13
ATOM     13  O   UNL     1       5.877  -1.752  22.305  0.00  0.00    -0.386 OA
ATOM     14  H   UNL     1       6.426  -1.351  23.015  0.00  0.00    +0.210 HD
ENDBRANCH   6  13
BRANCH   3  15
ATOM     15  O   UNL     1       7.027  -5.239  25.259  0.00  0.00    -0.278 OA
BRANCH  15  16
ATOM     16  P   UNL     1       6.767  -5.212  26.969  0.00  0.00    +0.473 P 
ATOM     17  O   UNL     1       6.535  -5.188  28.499  0.00  0.00    -0.228 OA
BRANCH  16  18
ATOM     18  O   UNL     1       8.113  -6.127  27.076  0.00  0.00    -0.303 OA
ATOM     19  H   UNL     1       7.929  -6.855  27.696  0.00  0.00    +0.222 HD
ENDBRANCH  16  18
BRANCH  16  20
ATOM     20  O   UNL     1       5.773  -6.484  26.705  0.00  0.00    -0.303 OA
ATOM     21  H   UNL     1       6.276  -7.305  26.553  0.00  0.00    +0.222 HD
ENDBRANCH  16  20
ENDBRANCH  15  16
ENDBRANCH   3  15
BRANCH   5  22
ATOM     22  O   UNL     1       4.982  -4.780  24.192  0.00  0.00    -0.278 OA
BRANCH  22  23
ATOM     23  P   UNL     1       3.481  -5.232  23.458  0.00  0.00    +0.473 P 
ATOM     24  O   UNL     1       2.139  -5.636  22.801  0.00  0.00    -0.228 OA
BRANCH  23  25
ATOM     25  O   UNL     1       3.265  -6.151  24.791  0.00  0.00    -0.303 OA
ATOM     26  H   UNL     1       4.077  -6.582  25.097  0.00  0.00    +0.222 HD
ENDBRANCH  23  25
BRANCH  23  27
ATOM     27  O   UNL     1       4.392  -6.337  22.656  0.00  0.00    -0.303 OA
ATOM     28  H   UNL     1       5.271  -5.970  22.462  0.00  0.00    +0.222 HD
ENDBRANCH  23  27
ENDBRANCH  22  23
ENDBRANCH   5  22
TORSDOF 12
ENDMDL
MODEL 9
REMARK VINA RESULT:      -5.2      4.513      6.750
REMARK  Name = 
REMARK  12 active torsions:
REMARK  status: ('A' for Active; 'I' for Inactive)
REMARK    1  A    between atoms: O_1  and  C_2
REMARK    2  A    between atoms: C_4  and  O_6
REMARK    3  A    between atoms: C_7  and  O_9
REMARK    4  A    between atoms: O_9  and  P_10
REMARK    5  A    between atoms: P_10  and  O_11
REMARK    6  A    between atoms: P_10  and  O_12
REMARK    7  A    between atoms: C_14  and  O_16
REMARK    8  A    between atoms: C_17  and  O_19
REMARK    9  A    between atoms: O_19  and  P_20
REMARK   10  A    between atoms: P_20  and  O_21
REMARK   11  A    between atoms: P_20  and  O_22
REMARK   12  A    between atoms: C_24  and  O_26
REMARK                            x       y       z     vdW  Elec       q    Type
REMARK                         _______ _______ _______ _____ _____    ______ ____
ROOT
ATOM      1  C   UNL     1      10.054   2.076  24.021  0.00  0.00    +0.177 C 
ATOM      2  C   UNL     1       9.115   3.262  24.287  0.00  0.00    +0.177 C 
ATOM      3  C   UNL     1       7.593   2.889  24.036  0.00  0.00    +0.192 C 
ATOM      4  C   UNL     1       7.428   2.488  22.569  0.00  0.00    +0.178 C 
ATOM      5  C   UNL     1       8.261   1.217  22.407  0.00  0.00    +0.192 C 
ATOM      6  C   UNL     1       9.776   1.451  22.633  0.00  0.00    +0.177 C 
ENDROOT
BRANCH   1   7
ATOM      7  O   UNL     1       9.929   1.157  25.105  0.00  0.00    -0.386 OA
ATOM      8  H   UNL     1       9.230   0.516  24.876  0.00  0.00    +0.210 HD
ENDBRANCH   1   7
BRANCH   2   9
ATOM      9  O   UNL     1       9.553   4.352  23.467  0.00  0.00    -0.386 OA
ATOM     10  H   UNL     1       9.036   4.364  22.641  0.00  0.00    +0.210 HD
ENDBRANCH   2   9
BRANCH   4  11
ATOM     11  O   UNL     1       7.787   3.516  21.654  0.00  0.00    -0.386 OA
ATOM     12  H   UNL     1       8.075   4.298  22.162  0.00  0.00    +0.210 HD
ENDBRANCH   4  11
BRANCH   6  13
ATOM     13  O   UNL     1      10.295   2.261  21.585  0.00  0.00    -0.386 OA
ATOM     14  H   UNL     1      10.436   1.672  20.811  0.00  0.00    +0.210 HD
ENDBRANCH   6  13
BRANCH   3  15
ATOM     15  O   UNL     1       7.038   1.827  24.962  0.00  0.00    -0.278 OA
BRANCH  15  16
ATOM     16  P   UNL     1       5.344   2.140  24.801  0.00  0.00    +0.473 P 
ATOM     17  O   UNL     1       3.829   2.420  24.657  0.00  0.00    -0.228 OA
BRANCH  16  18
ATOM     18  O   UNL     1       5.282   2.028  26.427  0.00  0.00    -0.303 OA
ATOM     19  H   UNL     1       6.052   2.502  26.787  0.00  0.00    +0.222 HD
ENDBRANCH  16  18
BRANCH  16  20
ATOM     20  O   UNL     1       5.204   0.528  24.560  0.00  0.00    -0.303 OA
ATOM     21  H   UNL     1       4.347   0.301  24.154  0.00  0.00    +0.222 HD
ENDBRANCH  16  20
ENDBRANCH  15  16
ENDBRANCH   3  15
BRANCH   5  22
ATOM     22  O   UNL     1       7.764   0.267  23.358  0.00  0.00    -0.278 OA
BRANCH  22  23
ATOM     23  P   UNL     1       8.089  -1.334  22.787  0.00  0.00    +0.473 P 
ATOM     24  O   UNL     1       8.379  -2.766  22.275  0.00  0.00    -0.228 OA
BRANCH  23  25
ATOM     25  O   UNL     1       6.552  -1.657  23.240  0.00  0.00    -0.303 OA
ATOM     26  H   UNL     1       6.413  -1.599  24.196  0.00  0.00    +0.222 HD
ENDBRANCH  23  25
BRANCH  23  27
ATOM     27  O   UNL     1       8.738  -1.560  24.277  0.00  0.00    -0.303 OA
ATOM     28  H   UNL     1       8.256  -1.032  24.936  0.00  0.00    +0.222 HD
ENDBRANCH  23  27
ENDBRANCH  22  23
ENDBRANCH   5  22
TORSDOF 12
ENDMDL
