MODEL 1
REMARK VINA RESULT:      -6.4      0.000      0.000
REMARK  Name = 
REMARK  10 active torsions:
REMARK  status: ('A' for Active; 'I' for Inactive)
REMARK    1  A    between atoms: C_2  and  O_3
REMARK    2  A    between atoms: C_5  and  O_6
REMARK    3  A    between atoms: C_5  and  C_23
REMARK    4  A    between atoms: C_8  and  C_10
REMARK    5  A    between atoms: C_10  and  C_11
REMARK    6  A    between atoms: C_11  and  C_12
REMARK    7  A    between atoms: C_12  and  O_13
REMARK    8  A    between atoms: O_13  and  C_14
REMARK    9  A    between atoms: C_20  and  O_22
REMARK   10  A    between atoms: C_23  and  O_24
REMARK                            x       y       z     vdW  Elec       q    Type
REMARK                         _______ _______ _______ _____ _____    ______ ____
ROOT
ATOM      1  C   UNL     1       8.641  -1.021  26.495  0.00  0.00    +0.146 C 
ATOM      2  C   UNL     1       9.555  -0.359  25.438  0.00  0.00    +0.146 C 
ATOM      3  C   UNL     1       9.408  -1.015  24.050  0.00  0.00    +0.023 C 
ATOM      4  C   UNL     1       9.562  -2.541  24.136  0.00  0.00    +0.052 C 
ATOM      5  C   UNL     1       8.657  -3.178  25.198  0.00  0.00    +0.165 C 
ATOM      6  C   UNL     1       8.855  -2.531  26.565  0.00  0.00    +0.080 C 
ENDROOT
BRANCH   2   7
ATOM      7  O   UNL     1       9.238   1.033  25.299  0.00  0.00    -0.389 OA
ATOM      8  H   UNL     1       9.613   1.356  24.463  0.00  0.00    +0.210 HD
ENDBRANCH   2   7
BRANCH   5   9
ATOM      9  C   UNL     1       8.979  -4.686  25.266  0.00  0.00    +0.337 C 
ATOM     10  O   UNL     1       8.221  -5.544  25.686  0.00  0.00    -0.248 OA
BRANCH   9  11
ATOM     11  O   UNL     1      10.233  -4.947  24.827  0.00  0.00    -0.479 OA
ATOM     12  H   UNL     1      10.468  -4.275  24.148  0.00  0.00    +0.295 HD
ENDBRANCH   9  11
ENDBRANCH   5   9
BRANCH   5  13
ATOM     13  O   UNL     1       7.269  -3.029  24.828  0.00  0.00    -0.377 OA
ATOM     14  H   UNL     1       6.900  -3.907  24.617  0.00  0.00    +0.211 HD
ENDBRANCH   5  13
BRANCH   1  15
ATOM     15  O   UNL     1       8.907  -0.452  27.778  0.00  0.00    -0.389 OA
ATOM     16  H   UNL     1       8.218   0.209  27.964  0.00  0.00    +0.210 HD
ENDBRANCH   1  15
BRANCH   3  17
ATOM     17  C   UNL     1      10.410  -0.405  23.041  0.00  0.00    +0.009 C 
BRANCH  17  18
ATOM     18  C   UNL     1       9.773   0.323  21.852  0.00  0.00    +0.041 C 
BRANCH  18  19
ATOM     19  C   UNL     1       9.782   1.844  21.992  0.00  0.00    +0.229 C 
BRANCH  19  20
ATOM     20  O   UNL     1      10.674   2.174  23.055  0.00  0.00    -0.492 OA
BRANCH  20  21
ATOM     21  C   UNL     1      10.772   3.503  23.362  0.00  0.00    +0.120 A 
ATOM     22  C   UNL     1      11.939   4.267  23.298  0.00  0.00    +0.045 A 
ATOM     23  C   UNL     1      11.911   5.616  23.665  0.00  0.00    +0.004 A 
ATOM     24  C   UNL     1      10.720   6.202  24.095  0.00  0.00    +0.000 A 
ATOM     25  C   UNL     1       9.558   5.437  24.170  0.00  0.00    +0.004 A 
ATOM     26  C   UNL     1       9.589   4.089  23.813  0.00  0.00    +0.045 A 
ENDBRANCH  20  21
ENDBRANCH  19  20
ENDBRANCH  18  19
ENDBRANCH  17  18
ENDBRANCH   3  17
TORSDOF 10
ENDMDL
MODEL 2
REMARK VINA RESULT:      -6.3      2.871      4.679
REMARK  Name = 
REMARK  10 active torsions:
REMARK  status: ('A' for Active; 'I' for Inactive)
REMARK    1  A    between atoms: C_2  and  O_3
REMARK    2  A    between atoms: C_5  and  O_6
REMARK    3  A    between atoms: C_5  and  C_23
REMARK    4  A    between atoms: C_8  and  C_10
REMARK    5  A    between atoms: C_10  and  C_11
REMARK    6  A    between atoms: C_11  and  C_12
REMARK    7  A    between atoms: C_12  and  O_13
REMARK    8  A    between atoms: O_13  and  C_14
REMARK    9  A    between atoms: C_20  and  O_22
REMARK   10  A    between atoms: C_23  and  O_24
REMARK                            x       y       z     vdW  Elec       q    Type
REMARK                         _______ _______ _______ _____ _____    ______ ____
ROOT
ATOM      1  C   UNL     1       4.265  -4.174  24.944  0.00  0.00    +0.146 C 
ATOM      2  C   UNL     1       5.317  -3.793  23.877  0.00  0.00    +0.146 C 
ATOM      3  C   UNL     1       6.495  -4.786  23.842  0.00  0.00    +0.023 C 
ATOM      4  C   UNL     1       7.085  -5.001  25.244  0.00  0.00    +0.052 C 
ATOM      5  C   UNL     1       6.025  -5.366  26.293  0.00  0.00    +0.165 C 
ATOM      6  C   UNL     1       4.894  -4.343  26.326  0.00  0.00    +0.080 C 
ENDROOT
BRANCH   2   7
ATOM      7  O   UNL     1       4.724  -3.773  22.571  0.00  0.00    -0.389 OA
ATOM      8  H   UNL     1       4.675  -2.852  22.265  0.00  0.00    +0.210 HD
ENDBRANCH   2   7
BRANCH   5   9
ATOM      9  C   UNL     1       6.716  -5.447  27.670  0.00  0.00    +0.337 C 
ATOM     10  O   UNL     1       6.201  -5.132  28.730  0.00  0.00    -0.248 OA
BRANCH   9  11
ATOM     11  O   UNL     1       7.992  -5.886  27.561  0.00  0.00    -0.479 OA
ATOM     12  H   UNL     1       7.971  -6.831  27.290  0.00  0.00    +0.295 HD
ENDBRANCH   9  11
ENDBRANCH   5   9
BRANCH   5  13
ATOM     13  O   UNL     1       5.454  -6.658  25.998  0.00  0.00    -0.377 OA
ATOM     14  H   UNL     1       4.505  -6.549  25.799  0.00  0.00    +0.211 HD
ENDBRANCH   5  13
BRANCH   1  15
ATOM     15  O   UNL     1       3.263  -3.158  25.009  0.00  0.00    -0.389 OA
ATOM     16  H   UNL     1       2.621  -3.320  24.297  0.00  0.00    +0.210 HD
ENDBRANCH   1  15
BRANCH   3  17
ATOM     17  C   UNL     1       7.581  -4.321  22.842  0.00  0.00    +0.009 C 
BRANCH  17  18
ATOM     18  C   UNL     1       7.986  -2.848  22.962  0.00  0.00    +0.041 C 
BRANCH  18  19
ATOM     19  C   UNL     1       9.309  -2.637  23.696  0.00  0.00    +0.229 C 
BRANCH  19  20
ATOM     20  O   UNL     1      10.196  -1.968  22.803  0.00  0.00    -0.492 OA
BRANCH  20  21
ATOM     21  C   UNL     1      10.157  -0.601  22.834  0.00  0.00    +0.120 A 
ATOM     22  C   UNL     1       9.774   0.226  21.776  0.00  0.00    +0.045 A 
ATOM     23  C   UNL     1       9.803   1.615  21.930  0.00  0.00    +0.004 A 
ATOM     24  C   UNL     1      10.214   2.179  23.138  0.00  0.00    +0.000 A 
ATOM     25  C   UNL     1      10.608   1.356  24.190  0.00  0.00    +0.004 A 
ATOM     26  C   UNL     1      10.588  -0.031  24.033  0.00  0.00    +0.045 A 
ENDBRANCH  20  21
ENDBRANCH  19  20
ENDBRANCH  18  19
ENDBRANCH  17  18
ENDBRANCH   3  17
TORSDOF 10
ENDMDL
MODEL 3
REMARK VINA RESULT:      -6.3      3.022      4.882
REMARK  Name = 
REMARK  10 active torsions:
REMARK  status: ('A' for Active; 'I' for Inactive)
REMARK    1  A    between atoms: C_2  and  O_3
REMARK    2  A    between atoms: C_5  and  O_6
REMARK    3  A    between atoms: C_5  and  C_23
REMARK    4  A    between atoms: C_8  and  C_10
REMARK    5  A    between atoms: C_10  and  C_11
REMARK    6  A    between atoms: C_11  and  C_12
REMARK    7  A    between atoms: C_12  and  O_13
REMARK    8  A    between atoms: O_13  and  C_14
REMARK    9  A    between atoms: C_20  and  O_22
REMARK   10  A    between atoms: C_23  and  O_24
REMARK                            x       y       z     vdW  Elec       q    Type
REMARK                         _______ _______ _______ _____ _____    ______ ____
ROOT
ATOM      1  C   UNL     1       6.640  -5.589  27.247  0.00  0.00    +0.146 C 
ATOM      2  C   UNL     1       7.697  -5.286  26.160  0.00  0.00    +0.146 C 
ATOM      3  C   UNL     1       7.070  -4.654  24.901  0.00  0.00    +0.023 C 
ATOM      4  C   UNL     1       5.881  -5.483  24.395  0.00  0.00    +0.052 C 
ATOM      5  C   UNL     1       4.849  -5.785  25.489  0.00  0.00    +0.165 C 
ATOM      6  C   UNL     1       5.496  -6.443  26.703  0.00  0.00    +0.080 C 
ENDROOT
BRANCH   2   7
ATOM      7  O   UNL     1       8.686  -4.375  26.660  0.00  0.00    -0.389 OA
ATOM      8  H   UNL     1       8.247  -3.544  26.908  0.00  0.00    +0.210 HD
ENDBRANCH   2   7
BRANCH   5   9
ATOM      9  C   UNL     1       3.767  -6.708  24.891  0.00  0.00    +0.337 C 
ATOM     10  O   UNL     1       2.588  -6.698  25.205  0.00  0.00    -0.248 OA
BRANCH   9  11
ATOM     11  O   UNL     1       4.291  -7.568  23.986  0.00  0.00    -0.479 OA
ATOM     12  H   UNL     1       3.766  -8.399  24.009  0.00  0.00    +0.295 HD
ENDBRANCH   9  11
ENDBRANCH   5   9
BRANCH   5  13
ATOM     13  O   UNL     1       4.211  -4.566  25.925  0.00  0.00    -0.377 OA
ATOM     14  H   UNL     1       4.883  -3.863  25.998  0.00  0.00    +0.211 HD
ENDBRANCH   5  13
BRANCH   1  15
ATOM     15  O   UNL     1       7.259  -6.278  28.335  0.00  0.00    -0.389 OA
ATOM     16  H   UNL     1       7.193  -7.233  28.164  0.00  0.00    +0.210 HD
ENDBRANCH   1  15
BRANCH   3  17
ATOM     17  C   UNL     1       8.134  -4.461  23.793  0.00  0.00    +0.009 C 
BRANCH  17  18
ATOM     18  C   UNL     1       8.455  -3.003  23.449  0.00  0.00    +0.041 C 
BRANCH  18  19
ATOM     19  C   UNL     1       9.888  -2.598  23.789  0.00  0.00    +0.229 C 
BRANCH  19  20
ATOM     20  O   UNL     1      10.408  -1.875  22.676  0.00  0.00    -0.492 OA
BRANCH  20  21
ATOM     21  C   UNL     1      10.260  -0.516  22.724  0.00  0.00    +0.120 A 
ATOM     22  C   UNL     1       9.768   0.284  21.691  0.00  0.00    +0.045 A 
ATOM     23  C   UNL     1       9.691   1.671  21.858  0.00  0.00    +0.004 A 
ATOM     24  C   UNL     1      10.104   2.257  23.055  0.00  0.00    +0.000 A 
ATOM     25  C   UNL     1      10.606   1.461  24.081  0.00  0.00    +0.004 A 
ATOM     26  C   UNL     1      10.691   0.079  23.910  0.00  0.00    +0.045 A 
ENDBRANCH  20  21
ENDBRANCH  19  20
ENDBRANCH  18  19
ENDBRANCH  17  18
ENDBRANCH   3  17
TORSDOF 10
ENDMDL
MODEL 4
REMARK VINA RESULT:      -6.1      2.843      4.585
REMARK  Name = 
REMARK  10 active torsions:
REMARK  status: ('A' for Active; 'I' for Inactive)
REMARK    1  A    between atoms: C_2  and  O_3
REMARK    2  A    between atoms: C_5  and  O_6
REMARK    3  A    between atoms: C_5  and  C_23
REMARK    4  A    between atoms: C_8  and  C_10
REMARK    5  A    between atoms: C_10  and  C_11
REMARK    6  A    between atoms: C_11  and  C_12
REMARK    7  A    between atoms: C_12  and  O_13
REMARK    8  A    between atoms: O_13  and  C_14
REMARK    9  A    between atoms: C_20  and  O_22
REMARK   10  A    between atoms: C_23  and  O_24
REMARK                            x       y       z     vdW  Elec       q    Type
REMARK                         _______ _______ _______ _____ _____    ______ ____
ROOT
ATOM      1  C   UNL     1       8.547  -4.581  26.514  0.00  0.00    +0.146 C 
ATOM      2  C   UNL     1       8.582  -4.792  24.982  0.00  0.00    +0.146 C 
ATOM      3  C   UNL     1       7.229  -4.461  24.320  0.00  0.00    +0.023 C 
ATOM      4  C   UNL     1       6.073  -5.190  25.020  0.00  0.00    +0.052 C 
ATOM      5  C   UNL     1       6.062  -4.981  26.540  0.00  0.00    +0.165 C 
ATOM      6  C   UNL     1       7.402  -5.353  27.166  0.00  0.00    +0.080 C 
ENDROOT
BRANCH   2   7
ATOM      7  O   UNL     1       9.579  -3.954  24.382  0.00  0.00    -0.389 OA
ATOM      8  H   UNL     1       9.216  -3.058  24.284  0.00  0.00    +0.210 HD
ENDBRANCH   2   7
BRANCH   5   9
ATOM      9  C   UNL     1       4.932  -5.843  27.139  0.00  0.00    +0.337 C 
ATOM     10  O   UNL     1       3.870  -5.412  27.557  0.00  0.00    -0.248 OA
BRANCH   9  11
ATOM     11  O   UNL     1       5.272  -7.154  27.175  0.00  0.00    -0.479 OA
ATOM     12  H   UNL     1       6.095  -7.273  26.650  0.00  0.00    +0.295 HD
ENDBRANCH   9  11
ENDBRANCH   5   9
BRANCH   5  13
ATOM     13  O   UNL     1       5.788  -3.598  26.853  0.00  0.00    -0.377 OA
ATOM     14  H   UNL     1       4.901  -3.531  27.253  0.00  0.00    +0.211 HD
ENDBRANCH   5  13
BRANCH   1  15
ATOM     15  O   UNL     1       9.785  -5.015  27.081  0.00  0.00    -0.389 OA
ATOM     16  H   UNL     1       9.630  -5.223  28.019  0.00  0.00    +0.210 HD
ENDBRANCH   1  15
BRANCH   3  17
ATOM     17  C   UNL     1       7.262  -4.782  22.806  0.00  0.00    +0.009 C 
BRANCH  17  18
ATOM     18  C   UNL     1       6.998  -3.587  21.883  0.00  0.00    +0.041 C 
BRANCH  18  19
ATOM     19  C   UNL     1       7.440  -2.251  22.475  0.00  0.00    +0.229 C 
BRANCH  19  20
ATOM     20  O   UNL     1       8.836  -2.108  22.224  0.00  0.00    -0.492 OA
BRANCH  20  21
ATOM     21  C   UNL     1       9.380  -0.893  22.540  0.00  0.00    +0.120 A 
ATOM     22  C   UNL     1      10.070  -0.593  23.716  0.00  0.00    +0.045 A 
ATOM     23  C   UNL     1      10.556   0.701  23.929  0.00  0.00    +0.004 A 
ATOM     24  C   UNL     1      10.354   1.693  22.970  0.00  0.00    +0.000 A 
ATOM     25  C   UNL     1       9.655   1.398  21.802  0.00  0.00    +0.004 A 
ATOM     26  C   UNL     1       9.163   0.109  21.594  0.00  0.00    +0.045 A 
ENDBRANCH  20  21
ENDBRANCH  19  20
ENDBRANCH  18  19
ENDBRANCH  17  18
ENDBRANCH   3  17
TORSDOF 10
ENDMDL
MODEL 5
REMARK VINA RESULT:      -6.1      3.397      6.877
REMARK  Name = 
REMARK  10 active torsions:
REMARK  status: ('A' for Active; 'I' for Inactive)
REMARK    1  A    between atoms: C_2  and  O_3
REMARK    2  A    between atoms: C_5  and  O_6
REMARK    3  A    between atoms: C_5  and  C_23
REMARK    4  A    between atoms: C_8  and  C_10
REMARK    5  A    between atoms: C_10  and  C_11
REMARK    6  A    between atoms: C_11  and  C_12
REMARK    7  A    between atoms: C_12  and  O_13
REMARK    8  A    between atoms: O_13  and  C_14
REMARK    9  A    between atoms: C_20  and  O_22
REMARK   10  A    between atoms: C_23  and  O_24
REMARK                            x       y       z     vdW  Elec       q    Type
REMARK                         _______ _______ _______ _____ _____    ______ ____
ROOT
ATOM      1  C   UNL     1       6.783  -0.376  24.641  0.00  0.00    +0.146 C 
ATOM      2  C   UNL     1       7.094  -1.695  25.387  0.00  0.00    +0.146 C 
ATOM      3  C   UNL     1       8.609  -1.965  25.480  0.00  0.00    +0.023 C 
ATOM      4  C   UNL     1       9.280  -1.860  24.103  0.00  0.00    +0.052 C 
ATOM      5  C   UNL     1       8.951  -0.551  23.373  0.00  0.00    +0.165 C 
ATOM      6  C   UNL     1       7.445  -0.334  23.265  0.00  0.00    +0.080 C 
ENDROOT
BRANCH   2   7
ATOM      7  O   UNL     1       6.574  -1.651  26.722  0.00  0.00    -0.389 OA
ATOM      8  H   UNL     1       6.225  -2.529  26.950  0.00  0.00    +0.210 HD
ENDBRANCH   2   7
BRANCH   5   9
ATOM      9  C   UNL     1       9.587  -0.608  21.968  0.00  0.00    +0.337 C 
ATOM     10  O   UNL     1       9.359   0.179  21.065  0.00  0.00    -0.248 OA
BRANCH   9  11
ATOM     11  O   UNL     1      10.418  -1.670  21.842  0.00  0.00    -0.479 OA
ATOM     12  H   UNL     1      11.009  -1.509  21.072  0.00  0.00    +0.295 HD
ENDBRANCH   9  11
ENDBRANCH   5   9
BRANCH   5  13
ATOM     13  O   UNL     1       9.517   0.573  24.079  0.00  0.00    -0.377 OA
ATOM     14  H   UNL     1       8.979   0.756  24.872  0.00  0.00    +0.211 HD
ENDBRANCH   5  13
BRANCH   1  15
ATOM     15  O   UNL     1       5.370  -0.241  24.483  0.00  0.00    -0.389 OA
ATOM     16  H   UNL     1       5.189   0.651  24.138  0.00  0.00    +0.210 HD
ENDBRANCH   1  15
BRANCH   3  17
ATOM     17  C   UNL     1       8.885  -3.340  26.136  0.00  0.00    +0.009 C 
BRANCH  17  18
ATOM     18  C   UNL     1       9.656  -4.334  25.260  0.00  0.00    +0.041 C 
BRANCH  18  19
ATOM     19  C   UNL     1       8.881  -5.618  24.968  0.00  0.00    +0.229 C 
BRANCH  19  20
ATOM     20  O   UNL     1       8.491  -5.583  23.597  0.00  0.00    -0.492 OA
BRANCH  20  21
ATOM     21  C   UNL     1       7.320  -4.930  23.325  0.00  0.00    +0.120 A 
ATOM     22  C   UNL     1       7.114  -4.038  22.271  0.00  0.00    +0.045 A 
ATOM     23  C   UNL     1       5.872  -3.414  22.118  0.00  0.00    +0.004 A 
ATOM     24  C   UNL     1       4.838  -3.680  23.014  0.00  0.00    +0.000 A 
ATOM     25  C   UNL     1       5.046  -4.560  24.073  0.00  0.00    +0.004 A 
ATOM     26  C   UNL     1       6.288  -5.176  24.231  0.00  0.00    +0.045 A 
ENDBRANCH  20  21
ENDBRANCH  19  20
ENDBRANCH  18  19
ENDBRANCH  17  18
ENDBRANCH   3  17
TORSDOF 10
ENDMDL
MODEL 6
REMARK VINA RESULT:      -6.1      2.270      4.559
REMARK  Name = 
REMARK  10 active torsions:
REMARK  status: ('A' for Active; 'I' for Inactive)
REMARK    1  A    between atoms: C_2  and  O_3
REMARK    2  A    between atoms: C_5  and  O_6
REMARK    3  A    between atoms: C_5  and  C_23
REMARK    4  A    between atoms: C_8  and  C_10
REMARK    5  A    between atoms: C_10  and  C_11
REMARK    6  A    between atoms: C_11  and  C_12
REMARK    7  A    between atoms: C_12  and  O_13
REMARK    8  A    between atoms: O_13  and  C_14
REMARK    9  A    between atoms: C_20  and  O_22
REMARK   10  A    between atoms: C_23  and  O_24
REMARK                            x       y       z     vdW  Elec       q    Type
REMARK                         _______ _______ _______ _____ _____    ______ ____
ROOT
ATOM      1  C   UNL     1       8.473  -5.305  24.844  0.00  0.00    +0.146 C 
ATOM      2  C   UNL     1       8.295  -3.981  25.625  0.00  0.00    +0.146 C 
ATOM      3  C   UNL     1       6.832  -3.495  25.616  0.00  0.00    +0.023 C 
ATOM      4  C   UNL     1       6.267  -3.454  24.188  0.00  0.00    +0.052 C 
ATOM      5  C   UNL     1       6.464  -4.771  23.425  0.00  0.00    +0.165 C 
ATOM      6  C   UNL     1       7.926  -5.202  23.422  0.00  0.00    +0.080 C 
ENDROOT
BRANCH   2   7
ATOM      7  O   UNL     1       8.692  -4.147  26.992  0.00  0.00    -0.389 OA
ATOM      8  H   UNL     1       9.336  -4.872  27.045  0.00  0.00    +0.210 HD
ENDBRANCH   2   7
BRANCH   5   9
ATOM      9  C   UNL     1       5.959  -4.573  21.981  0.00  0.00    +0.337 C 
ATOM     10  O   UNL     1       6.194  -5.324  21.049  0.00  0.00    -0.248 OA
BRANCH   9  11
ATOM     11  O   UNL     1       5.240  -3.432  21.857  0.00  0.00    -0.479 OA
ATOM     12  H   UNL     1       4.961  -3.145  22.756  0.00  0.00    +0.295 HD
ENDBRANCH   9  11
ENDBRANCH   5   9
BRANCH   5  13
ATOM     13  O   UNL     1       5.686  -5.823  24.034  0.00  0.00    -0.377 OA
ATOM     14  H   UNL     1       4.895  -5.434  24.453  0.00  0.00    +0.211 HD
ENDBRANCH   5  13
BRANCH   1  15
ATOM     15  O   UNL     1       9.861  -5.640  24.788  0.00  0.00    -0.389 OA
ATOM     16  H   UNL     1       9.960  -6.414  24.207  0.00  0.00    +0.210 HD
ENDBRANCH   1  15
BRANCH   3  17
ATOM     17  C   UNL     1       6.703  -2.118  26.311  0.00  0.00    +0.009 C 
BRANCH  17  18
ATOM     18  C   UNL     1       7.338  -0.947  25.553  0.00  0.00    +0.041 C 
BRANCH  18  19
ATOM     19  C   UNL     1       8.656  -0.471  26.161  0.00  0.00    +0.229 C 
BRANCH  19  20
ATOM     20  O   UNL     1       9.696  -0.793  25.240  0.00  0.00    -0.492 OA
BRANCH  20  21
ATOM     21  C   UNL     1       9.781   0.003  24.131  0.00  0.00    +0.120 A 
ATOM     22  C   UNL     1       9.596  -0.418  22.813  0.00  0.00    +0.045 A 
ATOM     23  C   UNL     1       9.736   0.494  21.762  0.00  0.00    +0.004 A 
ATOM     24  C   UNL     1      10.060   1.824  22.027  0.00  0.00    +0.000 A 
ATOM     25  C   UNL     1      10.256   2.243  23.341  0.00  0.00    +0.004 A 
ATOM     26  C   UNL     1      10.126   1.330  24.388  0.00  0.00    +0.045 A 
ENDBRANCH  20  21
ENDBRANCH  19  20
ENDBRANCH  18  19
ENDBRANCH  17  18
ENDBRANCH   3  17
TORSDOF 10
ENDMDL
MODEL 7
REMARK VINA RESULT:      -6.0      2.727      4.519
REMARK  Name = 
REMARK  10 active torsions:
REMARK  status: ('A' for Active; 'I' for Inactive)
REMARK    1  A    between atoms: C_2  and  O_3
REMARK    2  A    between atoms: C_5  and  O_6
REMARK    3  A    between atoms: C_5  and  C_23
REMARK    4  A    between atoms: C_8  and  C_10
REMARK    5  A    between atoms: C_10  and  C_11
REMARK    6  A    between atoms: C_11  and  C_12
REMARK    7  A    between atoms: C_12  and  O_13
REMARK    8  A    between atoms: O_13  and  C_14
REMARK    9  A    between atoms: C_20  and  O_22
REMARK   10  A    between atoms: C_23  and  O_24
REMARK                            x       y       z     vdW  Elec       q    Type
REMARK                         _______ _______ _______ _____ _____    ______ ____
ROOT
ATOM      1  C   UNL     1       6.064  -5.583  26.036  0.00  0.00    +0.146 C 
ATOM      2  C   UNL     1       7.551  -5.178  25.905  0.00  0.00    +0.146 C 
ATOM      3  C   UNL     1       7.774  -4.144  24.784  0.00  0.00    +0.023 C 
ATOM      4  C   UNL     1       7.139  -4.606  23.464  0.00  0.00    +0.052 C 
ATOM      5  C   UNL     1       5.668  -5.015  23.616  0.00  0.00    +0.165 C 
ATOM      6  C   UNL     1       5.488  -6.066  24.706  0.00  0.00    +0.080 C 
ENDROOT
BRANCH   2   7
ATOM      7  O   UNL     1       8.026  -4.605  27.131  0.00  0.00    -0.389 OA
ATOM      8  H   UNL     1       8.925  -4.932  27.301  0.00  0.00    +0.210 HD
ENDBRANCH   2   7
BRANCH   5   9
ATOM      9  C   UNL     1       5.176  -5.559  22.259  0.00  0.00    +0.337 C 
ATOM     10  O   UNL     1       5.733  -5.378  21.189  0.00  0.00    -0.248 OA
BRANCH   9  11
ATOM     11  O   UNL     1       4.017  -6.248  22.390  0.00  0.00    -0.479 OA
ATOM     12  H   UNL     1       3.789  -6.289  23.346  0.00  0.00    +0.295 HD
ENDBRANCH   9  11
ENDBRANCH   5   9
BRANCH   5  13
ATOM     13  O   UNL     1       4.862  -3.868  23.961  0.00  0.00    -0.377 OA
ATOM     14  H   UNL     1       4.060  -4.170  24.428  0.00  0.00    +0.211 HD
ENDBRANCH   5  13
BRANCH   1  15
ATOM     15  O   UNL     1       5.938  -6.625  27.005  0.00  0.00    -0.389 OA
ATOM     16  H   UNL     1       6.655  -7.265  26.855  0.00  0.00    +0.210 HD
ENDBRANCH   1  15
BRANCH   3  17
ATOM     17  C   UNL     1       9.281  -3.839  24.606  0.00  0.00    +0.009 C 
BRANCH  17  18
ATOM     18  C   UNL     1       9.624  -2.361  24.392  0.00  0.00    +0.041 C 
BRANCH  18  19
ATOM     19  C   UNL     1       9.752  -1.971  22.921  0.00  0.00    +0.229 C 
BRANCH  19  20
ATOM     20  O   UNL     1      10.683  -0.894  22.839  0.00  0.00    -0.492 OA
BRANCH  20  21
ATOM     21  C   UNL     1      10.153   0.363  22.940  0.00  0.00    +0.120 A 
ATOM     22  C   UNL     1      10.331   1.235  24.016  0.00  0.00    +0.045 A 
ATOM     23  C   UNL     1       9.711   2.489  24.008  0.00  0.00    +0.004 A 
ATOM     24  C   UNL     1       8.916   2.871  22.928  0.00  0.00    +0.000 A 
ATOM     25  C   UNL     1       8.728   1.997  21.860  0.00  0.00    +0.004 A 
ATOM     26  C   UNL     1       9.339   0.743  21.873  0.00  0.00    +0.045 A 
ENDBRANCH  20  21
ENDBRANCH  19  20
ENDBRANCH  18  19
ENDBRANCH  17  18
ENDBRANCH   3  17
TORSDOF 10
ENDMDL
MODEL 8
REMARK VINA RESULT:      -6.0      2.618      4.521
REMARK  Name = 
REMARK  10 active torsions:
REMARK  status: ('A' for Active; 'I' for Inactive)
REMARK    1  A    between atoms: C_2  and  O_3
REMARK    2  A    between atoms: C_5  and  O_6
REMARK    3  A    between atoms: C_5  and  C_23
REMARK    4  A    between atoms: C_8  and  C_10
REMARK    5  A    between atoms: C_10  and  C_11
REMARK    6  A    between atoms: C_11  and  C_12
REMARK    7  A    between atoms: C_12  and  O_13
REMARK    8  A    between atoms: O_13  and  C_14
REMARK    9  A    between atoms: C_20  and  O_22
REMARK   10  A    between atoms: C_23  and  O_24
REMARK                            x       y       z     vdW  Elec       q    Type
REMARK                         _______ _______ _______ _____ _____    ______ ____
ROOT
ATOM      1  C   UNL     1       6.274  -3.357  23.040  0.00  0.00    +0.146 C 
ATOM      2  C   UNL     1       6.054  -2.032  23.807  0.00  0.00    +0.146 C 
ATOM      3  C   UNL     1       7.008  -1.894  25.010  0.00  0.00    +0.023 C 
ATOM      4  C   UNL     1       6.963  -3.142  25.904  0.00  0.00    +0.052 C 
ATOM      5  C   UNL     1       7.170  -4.448  25.124  0.00  0.00    +0.165 C 
ATOM      6  C   UNL     1       6.186  -4.569  23.965  0.00  0.00    +0.080 C 
ENDROOT
BRANCH   2   7
ATOM      7  O   UNL     1       6.274  -0.908  22.944  0.00  0.00    -0.389 OA
ATOM      8  H   UNL     1       6.516  -0.140  23.487  0.00  0.00    +0.210 HD
ENDBRANCH   2   7
BRANCH   5   9
ATOM      9  C   UNL     1       6.995  -5.628  26.102  0.00  0.00    +0.337 C 
ATOM     10  O   UNL     1       5.965  -6.264  26.253  0.00  0.00    -0.248 OA
BRANCH   9  11
ATOM     11  O   UNL     1       8.127  -5.860  26.809  0.00  0.00    -0.479 OA
ATOM     12  H   UNL     1       8.224  -5.146  27.479  0.00  0.00    +0.295 HD
ENDBRANCH   9  11
ENDBRANCH   5   9
BRANCH   5  13
ATOM     13  O   UNL     1       8.508  -4.502  24.585  0.00  0.00    -0.377 OA
ATOM     14  H   UNL     1       8.819  -3.594  24.412  0.00  0.00    +0.211 HD
ENDBRANCH   5  13
BRANCH   1  15
ATOM     15  O   UNL     1       5.288  -3.481  22.014  0.00  0.00    -0.389 OA
ATOM     16  H   UNL     1       4.638  -4.147  22.298  0.00  0.00    +0.210 HD
ENDBRANCH   1  15
BRANCH   3  17
ATOM     17  C   UNL     1       6.694  -0.612  25.820  0.00  0.00    +0.009 C 
BRANCH  17  18
ATOM     18  C   UNL     1       7.900   0.293  26.096  0.00  0.00    +0.041 C 
BRANCH  18  19
ATOM     19  C   UNL     1       9.231  -0.455  26.117  0.00  0.00    +0.229 C 
BRANCH  19  20
ATOM     20  O   UNL     1      10.133   0.246  25.263  0.00  0.00    -0.492 OA
BRANCH  20  21
ATOM     21  C   UNL     1       9.925   0.093  23.920  0.00  0.00    +0.120 A 
ATOM     22  C   UNL     1       9.647   1.122  23.018  0.00  0.00    +0.045 A 
ATOM     23  C   UNL     1       9.429   0.827  21.669  0.00  0.00    +0.004 A 
ATOM     24  C   UNL     1       9.488  -0.492  21.220  0.00  0.00    +0.000 A 
ATOM     25  C   UNL     1       9.753  -1.521  22.121  0.00  0.00    +0.004 A 
ATOM     26  C   UNL     1       9.962  -1.227  23.469  0.00  0.00    +0.045 A 
ENDBRANCH  20  21
ENDBRANCH  19  20
ENDBRANCH  18  19
ENDBRANCH  17  18
ENDBRANCH   3  17
TORSDOF 10
ENDMDL
MODEL 9
REMARK VINA RESULT:      -5.9      2.700      7.757
REMARK  Name = 
REMARK  10 active torsions:
REMARK  status: ('A' for Active; 'I' for Inactive)
REMARK    1  A    between atoms: C_2  and  O_3
REMARK    2  A    between atoms: C_5  and  O_6
REMARK    3  A    between atoms: C_5  and  C_23
REMARK    4  A    between atoms: C_8  and  C_10
REMARK    5  A    between atoms: C_10  and  C_11
REMARK    6  A    between atoms: C_11  and  C_12
REMARK    7  A    between atoms: C_12  and  O_13
REMARK    8  A    between atoms: O_13  and  C_14
REMARK    9  A    between atoms: C_20  and  O_22
REMARK   10  A    between atoms: C_23  and  O_24
REMARK                            x       y       z     vdW  Elec       q    Type
REMARK                         _______ _______ _______ _____ _____    ______ ____
ROOT
ATOM      1  C   UNL     1       9.464  -0.502  21.732  0.00  0.00    +0.146 C 
ATOM      2  C   UNL     1       8.359  -1.081  22.646  0.00  0.00    +0.146 C 
ATOM      3  C   UNL     1       7.318  -0.016  23.044  0.00  0.00    +0.023 C 
ATOM      4  C   UNL     1       7.994   1.241  23.610  0.00  0.00    +0.052 C 
ATOM      5  C   UNL     1       9.096   1.794  22.696  0.00  0.00    +0.165 C 
ATOM      6  C   UNL     1      10.128   0.726  22.353  0.00  0.00    +0.080 C 
ENDROOT
BRANCH   2   7
ATOM      7  O   UNL     1       7.664  -2.145  21.982  0.00  0.00    -0.389 OA
ATOM      8  H   UNL     1       8.206  -2.456  21.239  0.00  0.00    +0.210 HD
ENDBRANCH   2   7
BRANCH   5   9
ATOM      9  C   UNL     1       9.770   2.981  23.416  0.00  0.00    +0.337 C 
ATOM     10  O   UNL     1       9.338   3.529  24.416  0.00  0.00    -0.248 OA
BRANCH   9  11
ATOM     11  O   UNL     1      10.901   3.370  22.780  0.00  0.00    -0.479 OA
ATOM     12  H   UNL     1      11.253   4.166  23.238  0.00  0.00    +0.295 HD
ENDBRANCH   9  11
ENDBRANCH   5   9
BRANCH   5  13
ATOM     13  O   UNL     1       8.525   2.281  21.463  0.00  0.00    -0.377 OA
ATOM     14  H   UNL     1       8.368   3.240  21.540  0.00  0.00    +0.211 HD
ENDBRANCH   5  13
BRANCH   1  15
ATOM     15  O   UNL     1      10.457  -1.500  21.494  0.00  0.00    -0.389 OA
ATOM     16  H   UNL     1      10.338  -1.836  20.589  0.00  0.00    +0.210 HD
ENDBRANCH   1  15
BRANCH   3  17
ATOM     17  C   UNL     1       6.288  -0.597  24.043  0.00  0.00    +0.009 C 
BRANCH  17  18
ATOM     18  C   UNL     1       6.892  -1.298  25.265  0.00  0.00    +0.041 C 
BRANCH  18  19
ATOM     19  C   UNL     1       6.214  -2.624  25.605  0.00  0.00    +0.229 C 
BRANCH  19  20
ATOM     20  O   UNL     1       7.136  -3.669  25.304  0.00  0.00    -0.492 OA
BRANCH  20  21
ATOM     21  C   UNL     1       6.834  -4.437  24.213  0.00  0.00    +0.120 A 
ATOM     22  C   UNL     1       7.750  -5.169  23.456  0.00  0.00    +0.045 A 
ATOM     23  C   UNL     1       7.314  -5.897  22.344  0.00  0.00    +0.004 A 
ATOM     24  C   UNL     1       5.965  -5.893  21.989  0.00  0.00    +0.000 A 
ATOM     25  C   UNL     1       5.052  -5.154  22.736  0.00  0.00    +0.004 A 
ATOM     26  C   UNL     1       5.489  -4.421  23.840  0.00  0.00    +0.045 A 
ENDBRANCH  20  21
ENDBRANCH  19  20
ENDBRANCH  18  19
ENDBRANCH  17  18
ENDBRANCH   3  17
TORSDOF 10
ENDMDL
