MODEL 1
REMARK VINA RESULT:      -7.8      0.000      0.000
REMARK  Name = 
REMARK  3 active torsions:
REMARK  status: ('A' for Active; 'I' for Inactive)
REMARK    1  A    between atoms: O_1  and  C_2
REMARK    2  A    between atoms: C_3  and  C_4
REMARK    3  A    between atoms: C_8  and  C_12
REMARK                            x       y       z     vdW  Elec       q    Type
REMARK                         _______ _______ _______ _____ _____    ______ ____
ROOT
ATOM      1  C   UNL     1       9.034  -2.924  24.465  0.00  0.00    +0.171 C 
ATOM      2  C   UNL     1       8.551  -4.294  24.850  0.00  0.00    +0.228 C 
ATOM      3  O   UNL     1       9.121  -5.314  24.465  0.00  0.00    -0.283 OA
ATOM      4  C   UNL     1       7.374  -4.409  25.717  0.00  0.00    +0.036 A 
ATOM      5  C   UNL     1       6.758  -3.270  26.210  0.00  0.00    +0.033 A 
ATOM      6  C   UNL     1       5.700  -3.381  27.128  0.00  0.00    +0.012 A 
ATOM      7  C   UNL     1       5.224  -4.638  27.501  0.00  0.00    +0.001 A 
ATOM      8  C   UNL     1       5.793  -5.785  26.953  0.00  0.00    +0.001 A 
ATOM      9  C   UNL     1       7.164  -1.949  25.725  0.00  0.00    +0.194 C 
ATOM     10  O   UNL     1       6.506  -0.973  26.077  0.00  0.00    -0.287 OA
ATOM     11  C   UNL     1       6.875  -5.673  26.075  0.00  0.00    +0.012 A 
ATOM     12  C   UNL     1       8.351  -1.809  24.803  0.00  0.00    +0.048 C 
ENDROOT
BRANCH  12  13
ATOM     13  C   UNL     1       8.534  -0.365  24.293  0.00  0.00    +0.027 C 
ATOM     14  C   UNL     1       8.255  -0.021  22.802  0.00  0.00    +0.009 C 
ATOM     15  C   UNL     1       9.433   0.491  21.958  0.00  0.00    +0.009 C 
ATOM     16  C   UNL     1      10.418   1.408  22.706  0.00  0.00    +0.019 C 
ATOM     17  C   UNL     1      10.908   0.604  23.918  0.00  0.00    +0.009 C 
ATOM     18  C   UNL     1       9.776   0.333  24.893  0.00  0.00    +0.009 C 
BRANCH  16  19
ATOM     19  C   UNL     1       9.934   2.812  23.081  0.00  0.00    -0.044 A 
ATOM     20  C   UNL     1       8.584   3.194  23.054  0.00  0.00    +0.005 A 
ATOM     21  C   UNL     1       8.180   4.472  23.454  0.00  0.00    +0.020 A 
ATOM     22  C   UNL     1       9.127   5.406  23.858  0.00  0.00    +0.041 A 
ATOM     23 CL   UNL     1       8.628   6.980  24.337  0.00  0.00    -0.084 Cl
ATOM     24  C   UNL     1      10.475   5.071  23.860  0.00  0.00    +0.020 A 
ATOM     25  C   UNL     1      10.874   3.787  23.470  0.00  0.00    +0.005 A 
ENDBRANCH  16  19
ENDBRANCH  12  13
BRANCH   1  26
ATOM     26  O   UNL     1      10.186  -2.919  23.703  0.00  0.00    -0.503 OA
ATOM     27  H   UNL     1      10.083  -2.302  22.964  0.00  0.00    +0.292 HD
ENDBRANCH   1  26
TORSDOF 3
ENDMDL
MODEL 2
REMARK VINA RESULT:      -7.4      3.465      8.003
REMARK  Name = 
REMARK  3 active torsions:
REMARK  status: ('A' for Active; 'I' for Inactive)
REMARK    1  A    between atoms: O_1  and  C_2
REMARK    2  A    between atoms: C_3  and  C_4
REMARK    3  A    between atoms: C_8  and  C_12
REMARK                            x       y       z     vdW  Elec       q    Type
REMARK                         _______ _______ _______ _____ _____    ______ ____
ROOT
ATOM      1  C   UNL     1       9.199   0.458  23.007  0.00  0.00    +0.171 C 
ATOM      2  C   UNL     1       9.719   1.863  22.894  0.00  0.00    +0.228 C 
ATOM      3  O   UNL     1      10.519   2.191  22.019  0.00  0.00    -0.283 OA
ATOM      4  C   UNL     1       9.248   2.869  23.852  0.00  0.00    +0.036 A 
ATOM      5  C   UNL     1       8.300   2.532  24.805  0.00  0.00    +0.033 A 
ATOM      6  C   UNL     1       7.766   3.520  25.650  0.00  0.00    +0.012 A 
ATOM      7  C   UNL     1       8.232   4.832  25.576  0.00  0.00    +0.001 A 
ATOM      8  C   UNL     1       9.237   5.160  24.668  0.00  0.00    +0.001 A 
ATOM      9  C   UNL     1       7.899   1.133  24.979  0.00  0.00    +0.194 C 
ATOM     10  O   UNL     1       7.163   0.853  25.921  0.00  0.00    -0.287 OA
ATOM     11  C   UNL     1       9.733   4.186  23.798  0.00  0.00    +0.012 A 
ATOM     12  C   UNL     1       8.400   0.075  24.026  0.00  0.00    +0.048 C 
ENDROOT
BRANCH  12  13
ATOM     13  C   UNL     1       7.985  -1.347  24.455  0.00  0.00    +0.027 C 
ATOM     14  C   UNL     1       9.016  -2.292  25.135  0.00  0.00    +0.009 C 
ATOM     15  C   UNL     1       9.380  -3.593  24.402  0.00  0.00    +0.009 C 
ATOM     16  C   UNL     1       8.214  -4.266  23.656  0.00  0.00    +0.019 C 
ATOM     17  C   UNL     1       7.669  -3.211  22.683  0.00  0.00    +0.009 C 
ATOM     18  C   UNL     1       7.058  -2.038  23.428  0.00  0.00    +0.009 C 
BRANCH  16  19
ATOM     19  C   UNL     1       7.115  -4.920  24.499  0.00  0.00    -0.044 A 
ATOM     20  C   UNL     1       7.220  -5.110  25.886  0.00  0.00    +0.005 A 
ATOM     21  C   UNL     1       6.170  -5.665  26.626  0.00  0.00    +0.020 A 
ATOM     22  C   UNL     1       5.006  -6.072  25.985  0.00  0.00    +0.041 A 
ATOM     23 CL   UNL     1       3.724  -6.765  26.896  0.00  0.00    -0.084 Cl
ATOM     24  C   UNL     1       4.887  -5.932  24.608  0.00  0.00    +0.020 A 
ATOM     25  C   UNL     1       5.934  -5.366  23.873  0.00  0.00    +0.005 A 
ENDBRANCH  16  19
ENDBRANCH  12  13
BRANCH   1  26
ATOM     26  O   UNL     1       9.650  -0.397  22.020  0.00  0.00    -0.503 OA
ATOM     27  H   UNL     1       9.720   0.082  21.182  0.00  0.00    +0.292 HD
ENDBRANCH   1  26
TORSDOF 3
ENDMDL
MODEL 3
REMARK VINA RESULT:      -7.3      3.754      7.937
REMARK  Name = 
REMARK  3 active torsions:
REMARK  status: ('A' for Active; 'I' for Inactive)
REMARK    1  A    between atoms: O_1  and  C_2
REMARK    2  A    between atoms: C_3  and  C_4
REMARK    3  A    between atoms: C_8  and  C_12
REMARK                            x       y       z     vdW  Elec       q    Type
REMARK                         _______ _______ _______ _____ _____    ______ ____
ROOT
ATOM      1  C   UNL     1       9.790   3.232  23.524  0.00  0.00    +0.171 C 
ATOM      2  C   UNL     1       9.982   4.670  23.916  0.00  0.00    +0.228 C 
ATOM      3  O   UNL     1      10.806   5.390  23.356  0.00  0.00    -0.283 OA
ATOM      4  C   UNL     1       9.152   5.225  24.991  0.00  0.00    +0.036 A 
ATOM      5  C   UNL     1       8.175   4.445  25.590  0.00  0.00    +0.033 A 
ATOM      6  C   UNL     1       7.307   5.009  26.539  0.00  0.00    +0.012 A 
ATOM      7  C   UNL     1       7.462   6.338  26.930  0.00  0.00    +0.001 A 
ATOM      8  C   UNL     1       8.488   7.105  26.383  0.00  0.00    +0.001 A 
ATOM      9  C   UNL     1       8.088   3.015  25.282  0.00  0.00    +0.194 C 
ATOM     10  O   UNL     1       7.304   2.329  25.932  0.00  0.00    -0.287 OA
ATOM     11  C   UNL     1       9.322   6.556  25.405  0.00  0.00    +0.012 A 
ATOM     12  C   UNL     1       8.958   2.414  24.205  0.00  0.00    +0.048 C 
ENDROOT
BRANCH  12  13
ATOM     13  C   UNL     1       8.823   0.880  24.127  0.00  0.00    +0.027 C 
ATOM     14  C   UNL     1       9.996  -0.032  24.586  0.00  0.00    +0.009 C 
ATOM     15  C   UNL     1      10.648  -0.939  23.530  0.00  0.00    +0.009 C 
ATOM     16  C   UNL     1       9.675  -1.532  22.494  0.00  0.00    +0.019 C 
ATOM     17  C   UNL     1       8.968  -0.336  21.844  0.00  0.00    +0.009 C 
ATOM     18  C   UNL     1       8.100   0.403  22.847  0.00  0.00    +0.009 C 
BRANCH  16  19
ATOM     19  C   UNL     1       8.699  -2.610  22.975  0.00  0.00    -0.044 A 
ATOM     20  C   UNL     1       8.909  -3.380  24.129  0.00  0.00    +0.005 A 
ATOM     21  C   UNL     1       7.965  -4.319  24.560  0.00  0.00    +0.020 A 
ATOM     22  C   UNL     1       6.806  -4.528  23.823  0.00  0.00    +0.041 A 
ATOM     23 CL   UNL     1       5.655  -5.692  24.350  0.00  0.00    -0.084 Cl
ATOM     24  C   UNL     1       6.586  -3.809  22.656  0.00  0.00    +0.020 A 
ATOM     25  C   UNL     1       7.527  -2.862  22.234  0.00  0.00    +0.005 A 
ENDBRANCH  16  19
ENDBRANCH  12  13
BRANCH   1  26
ATOM     26  O   UNL     1      10.570   2.822  22.460  0.00  0.00    -0.503 OA
ATOM     27  H   UNL     1      10.605   1.855  22.438  0.00  0.00    +0.292 HD
ENDBRANCH   1  26
TORSDOF 3
ENDMDL
MODEL 4
REMARK VINA RESULT:      -7.2      3.704      8.209
REMARK  Name = 
REMARK  3 active torsions:
REMARK  status: ('A' for Active; 'I' for Inactive)
REMARK    1  A    between atoms: O_1  and  C_2
REMARK    2  A    between atoms: C_3  and  C_4
REMARK    3  A    between atoms: C_8  and  C_12
REMARK                            x       y       z     vdW  Elec       q    Type
REMARK                         _______ _______ _______ _____ _____    ______ ____
ROOT
ATOM      1  C   UNL     1       8.436  -1.028  23.062  0.00  0.00    +0.171 C 
ATOM      2  C   UNL     1       8.740   0.285  22.397  0.00  0.00    +0.228 C 
ATOM      3  O   UNL     1       9.739   0.442  21.697  0.00  0.00    -0.283 OA
ATOM      4  C   UNL     1       7.808   1.402  22.583  0.00  0.00    +0.036 A 
ATOM      5  C   UNL     1       6.646   1.225  23.315  0.00  0.00    +0.033 A 
ATOM      6  C   UNL     1       5.700   2.260  23.400  0.00  0.00    +0.012 A 
ATOM      7  C   UNL     1       5.954   3.493  22.800  0.00  0.00    +0.001 A 
ATOM      8  C   UNL     1       7.153   3.699  22.123  0.00  0.00    +0.001 A 
ATOM      9  C   UNL     1       6.430  -0.020  24.058  0.00  0.00    +0.194 C 
ATOM     10  O   UNL     1       5.458  -0.089  24.806  0.00  0.00    -0.287 OA
ATOM     11  C   UNL     1       8.072   2.653  22.001  0.00  0.00    +0.012 A 
ATOM     12  C   UNL     1       7.395  -1.171  23.910  0.00  0.00    +0.048 C 
ENDROOT
BRANCH  12  13
ATOM     13  C   UNL     1       7.078  -2.333  24.873  0.00  0.00    +0.027 C 
ATOM     14  C   UNL     1       8.033  -2.650  26.058  0.00  0.00    +0.009 C 
ATOM     15  C   UNL     1       8.724  -4.022  26.068  0.00  0.00    +0.009 C 
ATOM     16  C   UNL     1       7.864  -5.187  25.544  0.00  0.00    +0.019 C 
ATOM     17  C   UNL     1       7.431  -4.789  24.126  0.00  0.00    +0.009 C 
ATOM     18  C   UNL     1       6.515  -3.578  24.149  0.00  0.00    +0.009 C 
BRANCH  16  19
ATOM     19  C   UNL     1       6.692  -5.649  26.415  0.00  0.00    -0.044 A 
ATOM     20  C   UNL     1       5.534  -6.248  25.894  0.00  0.00    +0.005 A 
ATOM     21  C   UNL     1       4.509  -6.702  26.732  0.00  0.00    +0.020 A 
ATOM     22  C   UNL     1       4.609  -6.533  28.107  0.00  0.00    +0.041 A 
ATOM     23 CL   UNL     1       3.341  -7.081  29.131  0.00  0.00    -0.084 Cl
ATOM     24  C   UNL     1       5.725  -5.910  28.651  0.00  0.00    +0.020 A 
ATOM     25  C   UNL     1       6.754  -5.468  27.812  0.00  0.00    +0.005 A 
ENDBRANCH  16  19
ENDBRANCH  12  13
BRANCH   1  26
ATOM     26  O   UNL     1       9.337  -2.035  22.773  0.00  0.00    -0.503 OA
ATOM     27  H   UNL     1       9.138  -2.812  23.315  0.00  0.00    +0.292 HD
ENDBRANCH   1  26
TORSDOF 3
ENDMDL
MODEL 5
REMARK VINA RESULT:      -7.2      1.933      2.556
REMARK  Name = 
REMARK  3 active torsions:
REMARK  status: ('A' for Active; 'I' for Inactive)
REMARK    1  A    between atoms: O_1  and  C_2
REMARK    2  A    between atoms: C_3  and  C_4
REMARK    3  A    between atoms: C_8  and  C_12
REMARK                            x       y       z     vdW  Elec       q    Type
REMARK                         _______ _______ _______ _____ _____    ______ ____
ROOT
ATOM      1  C   UNL     1       7.452  -3.872  26.140  0.00  0.00    +0.171 C 
ATOM      2  C   UNL     1       6.863  -5.204  26.509  0.00  0.00    +0.228 C 
ATOM      3  O   UNL     1       7.495  -6.035  27.158  0.00  0.00    -0.283 OA
ATOM      4  C   UNL     1       5.491  -5.509  26.089  0.00  0.00    +0.036 A 
ATOM      5  C   UNL     1       4.743  -4.560  25.412  0.00  0.00    +0.033 A 
ATOM      6  C   UNL     1       3.394  -4.810  25.108  0.00  0.00    +0.012 A 
ATOM      7  C   UNL     1       2.819  -6.038  25.430  0.00  0.00    +0.001 A 
ATOM      8  C   UNL     1       3.588  -7.022  26.047  0.00  0.00    +0.001 A 
ATOM      9  C   UNL     1       5.374  -3.319  24.953  0.00  0.00    +0.194 C 
ATOM     10  O   UNL     1       4.719  -2.565  24.238  0.00  0.00    -0.287 OA
ATOM     11  C   UNL     1       4.916  -6.754  26.389  0.00  0.00    +0.012 A 
ATOM     12  C   UNL     1       6.796  -3.000  25.343  0.00  0.00    +0.048 C 
ENDROOT
BRANCH  12  13
ATOM     13  C   UNL     1       7.325  -1.728  24.651  0.00  0.00    +0.027 C 
ATOM     14  C   UNL     1       8.267  -1.841  23.419  0.00  0.00    +0.009 C 
ATOM     15  C   UNL     1       9.687  -1.270  23.554  0.00  0.00    +0.009 C 
ATOM     16  C   UNL     1       9.792   0.021  24.386  0.00  0.00    +0.019 C 
ATOM     17  C   UNL     1       9.191  -0.311  25.759  0.00  0.00    +0.009 C 
ATOM     18  C   UNL     1       7.706  -0.613  25.652  0.00  0.00    +0.009 C 
BRANCH  16  19
ATOM     19  C   UNL     1       9.215   1.304  23.780  0.00  0.00    -0.044 A 
ATOM     20  C   UNL     1       8.717   1.381  22.470  0.00  0.00    +0.005 A 
ATOM     21  C   UNL     1       8.152   2.560  21.974  0.00  0.00    +0.020 A 
ATOM     22  C   UNL     1       8.106   3.698  22.770  0.00  0.00    +0.041 A 
ATOM     23 CL   UNL     1       7.422   5.149  22.151  0.00  0.00    -0.084 Cl
ATOM     24  C   UNL     1       8.625   3.666  24.058  0.00  0.00    +0.020 A 
ATOM     25  C   UNL     1       9.179   2.481  24.555  0.00  0.00    +0.005 A 
ENDBRANCH  16  19
ENDBRANCH  12  13
BRANCH   1  26
ATOM     26  O   UNL     1       8.722  -3.652  26.637  0.00  0.00    -0.503 OA
ATOM     27  H   UNL     1       9.026  -4.440  27.111  0.00  0.00    +0.292 HD
ENDBRANCH   1  26
TORSDOF 3
ENDMDL
MODEL 6
REMARK VINA RESULT:      -7.2      3.630      8.230
REMARK  Name = 
REMARK  3 active torsions:
REMARK  status: ('A' for Active; 'I' for Inactive)
REMARK    1  A    between atoms: O_1  and  C_2
REMARK    2  A    between atoms: C_3  and  C_4
REMARK    3  A    between atoms: C_8  and  C_12
REMARK                            x       y       z     vdW  Elec       q    Type
REMARK                         _______ _______ _______ _____ _____    ______ ____
ROOT
ATOM      1  C   UNL     1       7.797   2.410  25.236  0.00  0.00    +0.171 C 
ATOM      2  C   UNL     1       8.129   3.871  25.127  0.00  0.00    +0.228 C 
ATOM      3  O   UNL     1       7.402   4.739  25.606  0.00  0.00    -0.283 OA
ATOM      4  C   UNL     1       9.363   4.264  24.439  0.00  0.00    +0.036 A 
ATOM      5  C   UNL     1      10.226   3.297  23.948  0.00  0.00    +0.033 A 
ATOM      6  C   UNL     1      11.459   3.671  23.388  0.00  0.00    +0.012 A 
ATOM      7  C   UNL     1      11.795   5.018  23.266  0.00  0.00    +0.001 A 
ATOM      8  C   UNL     1      10.899   5.996  23.693  0.00  0.00    +0.001 A 
ATOM      9  C   UNL     1       9.826   1.887  23.953  0.00  0.00    +0.194 C 
ATOM     10  O   UNL     1      10.553   1.076  23.386  0.00  0.00    -0.287 OA
ATOM     11  C   UNL     1       9.693   5.622  24.291  0.00  0.00    +0.012 A 
ATOM     12  C   UNL     1       8.542   1.464  24.624  0.00  0.00    +0.048 C 
ENDROOT
BRANCH  12  13
ATOM     13  C   UNL     1       8.227  -0.029  24.401  0.00  0.00    +0.027 C 
ATOM     14  C   UNL     1       9.202  -1.121  24.925  0.00  0.00    +0.009 C 
ATOM     15  C   UNL     1       9.871  -2.035  23.887  0.00  0.00    +0.009 C 
ATOM     16  C   UNL     1       8.982  -2.420  22.691  0.00  0.00    +0.019 C 
ATOM     17  C   UNL     1       8.526  -1.098  22.060  0.00  0.00    +0.009 C 
ATOM     18  C   UNL     1       7.630  -0.316  23.004  0.00  0.00    +0.009 C 
BRANCH  16  19
ATOM     19  C   UNL     1       7.821  -3.385  22.953  0.00  0.00    -0.044 A 
ATOM     20  C   UNL     1       6.680  -3.456  22.138  0.00  0.00    +0.005 A 
ATOM     21  C   UNL     1       5.667  -4.389  22.385  0.00  0.00    +0.020 A 
ATOM     22  C   UNL     1       5.760  -5.246  23.475  0.00  0.00    +0.041 A 
ATOM     23 CL   UNL     1       4.506  -6.381  23.781  0.00  0.00    -0.084 Cl
ATOM     24  C   UNL     1       6.858  -5.174  24.322  0.00  0.00    +0.020 A 
ATOM     25  C   UNL     1       7.876  -4.249  24.065  0.00  0.00    +0.005 A 
ENDBRANCH  16  19
ENDBRANCH  12  13
BRANCH   1  26
ATOM     26  O   UNL     1       6.652   2.137  25.959  0.00  0.00    -0.503 OA
ATOM     27  H   UNL     1       6.256   1.313  25.641  0.00  0.00    +0.292 HD
ENDBRANCH   1  26
TORSDOF 3
ENDMDL
MODEL 7
REMARK VINA RESULT:      -7.2      3.621      8.122
REMARK  Name = 
REMARK  3 active torsions:
REMARK  status: ('A' for Active; 'I' for Inactive)
REMARK    1  A    between atoms: O_1  and  C_2
REMARK    2  A    between atoms: C_3  and  C_4
REMARK    3  A    between atoms: C_8  and  C_12
REMARK                            x       y       z     vdW  Elec       q    Type
REMARK                         _______ _______ _______ _____ _____    ______ ____
ROOT
ATOM      1  C   UNL     1       9.717   1.670  23.583  0.00  0.00    +0.171 C 
ATOM      2  C   UNL     1      10.047   3.136  23.572  0.00  0.00    +0.228 C 
ATOM      3  O   UNL     1      11.185   3.546  23.793  0.00  0.00    -0.283 OA
ATOM      4  C   UNL     1       8.978   4.097  23.280  0.00  0.00    +0.036 A 
ATOM      5  C   UNL     1       7.704   3.648  22.967  0.00  0.00    +0.033 A 
ATOM      6  C   UNL     1       6.710   4.562  22.579  0.00  0.00    +0.012 A 
ATOM      7  C   UNL     1       6.981   5.930  22.565  0.00  0.00    +0.001 A 
ATOM      8  C   UNL     1       8.239   6.390  22.948  0.00  0.00    +0.001 A 
ATOM      9  C   UNL     1       7.373   2.227  23.105  0.00  0.00    +0.194 C 
ATOM     10  O   UNL     1       6.203   1.887  22.954  0.00  0.00    -0.287 OA
ATOM     11  C   UNL     1       9.239   5.477  23.290  0.00  0.00    +0.012 A 
ATOM     12  C   UNL     1       8.450   1.225  23.441  0.00  0.00    +0.048 C 
ENDROOT
BRANCH  12  13
ATOM     13  C   UNL     1       7.883  -0.189  23.680  0.00  0.00    +0.027 C 
ATOM     14  C   UNL     1       7.943  -0.827  25.097  0.00  0.00    +0.009 C 
ATOM     15  C   UNL     1       8.772  -2.110  25.266  0.00  0.00    +0.009 C 
ATOM     16  C   UNL     1       8.715  -3.082  24.073  0.00  0.00    +0.019 C 
ATOM     17  C   UNL     1       9.174  -2.278  22.849  0.00  0.00    +0.009 C 
ATOM     18  C   UNL     1       8.193  -1.166  22.522  0.00  0.00    +0.009 C 
BRANCH  16  19
ATOM     19  C   UNL     1       7.401  -3.832  23.833  0.00  0.00    -0.044 A 
ATOM     20  C   UNL     1       6.302  -3.758  24.703  0.00  0.00    +0.005 A 
ATOM     21  C   UNL     1       5.103  -4.419  24.417  0.00  0.00    +0.020 A 
ATOM     22  C   UNL     1       4.992  -5.196  23.271  0.00  0.00    +0.041 A 
ATOM     23 CL   UNL     1       3.520  -6.017  22.931  0.00  0.00    -0.084 Cl
ATOM     24  C   UNL     1       6.074  -5.320  22.409  0.00  0.00    +0.020 A 
ATOM     25  C   UNL     1       7.269  -4.648  22.691  0.00  0.00    +0.005 A 
ENDBRANCH  16  19
ENDBRANCH  12  13
BRANCH   1  26
ATOM     26  O   UNL     1      10.802   0.843  23.802  0.00  0.00    -0.503 OA
ATOM     27  H   UNL     1      11.607   1.271  23.475  0.00  0.00    +0.292 HD
ENDBRANCH   1  26
TORSDOF 3
ENDMDL
MODEL 8
REMARK VINA RESULT:      -7.0      2.183      3.448
REMARK  Name = 
REMARK  3 active torsions:
REMARK  status: ('A' for Active; 'I' for Inactive)
REMARK    1  A    between atoms: O_1  and  C_2
REMARK    2  A    between atoms: C_3  and  C_4
REMARK    3  A    between atoms: C_8  and  C_12
REMARK                            x       y       z     vdW  Elec       q    Type
REMARK                         _______ _______ _______ _____ _____    ______ ____
ROOT
ATOM      1  C   UNL     1       6.377  -4.589  25.502  0.00  0.00    +0.171 C 
ATOM      2  C   UNL     1       5.273  -5.512  25.935  0.00  0.00    +0.228 C 
ATOM      3  O   UNL     1       5.446  -6.725  26.039  0.00  0.00    -0.283 OA
ATOM      4  C   UNL     1       3.960  -4.942  26.251  0.00  0.00    +0.036 A 
ATOM      5  C   UNL     1       3.765  -3.571  26.200  0.00  0.00    +0.033 A 
ATOM      6  C   UNL     1       2.541  -3.016  26.610  0.00  0.00    +0.012 A 
ATOM      7  C   UNL     1       1.494  -3.845  27.010  0.00  0.00    +0.001 A 
ATOM      8  C   UNL     1       1.662  -5.228  26.995  0.00  0.00    +0.001 A 
ATOM      9  C   UNL     1       4.813  -2.701  25.657  0.00  0.00    +0.194 C 
ATOM     10  O   UNL     1       4.554  -1.511  25.499  0.00  0.00    -0.287 OA
ATOM     11  C   UNL     1       2.895  -5.775  26.630  0.00  0.00    +0.012 A 
ATOM     12  C   UNL     1       6.161  -3.272  25.291  0.00  0.00    +0.048 C 
ENDROOT
BRANCH  12  13
ATOM     13  C   UNL     1       7.075  -2.234  24.610  0.00  0.00    +0.027 C 
ATOM     14  C   UNL     1       6.998  -2.014  23.072  0.00  0.00    +0.009 C 
ATOM     15  C   UNL     1       8.254  -2.329  22.245  0.00  0.00    +0.009 C 
ATOM     16  C   UNL     1       9.588  -1.973  22.928  0.00  0.00    +0.019 C 
ATOM     17  C   UNL     1       9.594  -2.730  24.263  0.00  0.00    +0.009 C 
ATOM     18  C   UNL     1       8.507  -2.218  25.191  0.00  0.00    +0.009 C 
BRANCH  16  19
ATOM     19  C   UNL     1       9.929  -0.488  23.084  0.00  0.00    -0.044 A 
ATOM     20  C   UNL     1      10.463   0.059  24.261  0.00  0.00    +0.005 A 
ATOM     21  C   UNL     1      10.809   1.412  24.343  0.00  0.00    +0.020 A 
ATOM     22  C   UNL     1      10.594   2.252  23.258  0.00  0.00    +0.041 A 
ATOM     23 CL   UNL     1      11.009   3.917  23.368  0.00  0.00    -0.084 Cl
ATOM     24  C   UNL     1      10.032   1.749  22.091  0.00  0.00    +0.020 A 
ATOM     25  C   UNL     1       9.699   0.392  22.008  0.00  0.00    +0.005 A 
ENDBRANCH  16  19
ENDBRANCH  12  13
BRANCH   1  26
ATOM     26  O   UNL     1       7.592  -5.211  25.292  0.00  0.00    -0.503 OA
ATOM     27  H   UNL     1       8.103  -5.212  26.115  0.00  0.00    +0.292 HD
ENDBRANCH   1  26
TORSDOF 3
ENDMDL
MODEL 9
REMARK VINA RESULT:      -7.0      3.402      5.243
REMARK  Name = 
REMARK  3 active torsions:
REMARK  status: ('A' for Active; 'I' for Inactive)
REMARK    1  A    between atoms: O_1  and  C_2
REMARK    2  A    between atoms: C_3  and  C_4
REMARK    3  A    between atoms: C_8  and  C_12
REMARK                            x       y       z     vdW  Elec       q    Type
REMARK                         _______ _______ _______ _____ _____    ______ ____
ROOT
ATOM      1  C   UNL     1       5.253  -5.696  25.933  0.00  0.00    +0.171 C 
ATOM      2  C   UNL     1       4.234  -6.797  26.021  0.00  0.00    +0.228 C 
ATOM      3  O   UNL     1       4.131  -7.506  27.020  0.00  0.00    -0.283 OA
ATOM      4  C   UNL     1       3.335  -7.018  24.884  0.00  0.00    +0.036 A 
ATOM      5  C   UNL     1       3.396  -6.187  23.776  0.00  0.00    +0.033 A 
ATOM      6  C   UNL     1       2.462  -6.329  22.736  0.00  0.00    +0.012 A 
ATOM      7  C   UNL     1       1.507  -7.344  22.784  0.00  0.00    +0.001 A 
ATOM      8  C   UNL     1       1.488  -8.226  23.862  0.00  0.00    +0.001 A 
ATOM      9  C   UNL     1       4.475  -5.203  23.656  0.00  0.00    +0.194 C 
ATOM     10  O   UNL     1       4.579  -4.582  22.602  0.00  0.00    -0.287 OA
ATOM     11  C   UNL     1       2.389  -8.055  24.916  0.00  0.00    +0.012 A 
ATOM     12  C   UNL     1       5.434  -4.984  24.800  0.00  0.00    +0.048 C 
ENDROOT
BRANCH  12  13
ATOM     13  C   UNL     1       6.577  -4.015  24.432  0.00  0.00    +0.027 C 
ATOM     14  C   UNL     1       7.938  -4.569  23.922  0.00  0.00    +0.009 C 
ATOM     15  C   UNL     1       9.185  -4.288  24.773  0.00  0.00    +0.009 C 
ATOM     16  C   UNL     1       9.212  -2.904  25.448  0.00  0.00    +0.019 C 
ATOM     17  C   UNL     1       7.931  -2.818  26.289  0.00  0.00    +0.009 C 
ATOM     18  C   UNL     1       6.694  -2.823  25.409  0.00  0.00    +0.009 C 
BRANCH  16  19
ATOM     19  C   UNL     1       9.416  -1.681  24.549  0.00  0.00    -0.044 A 
ATOM     20  C   UNL     1       9.299  -0.360  25.008  0.00  0.00    +0.005 A 
ATOM     21  C   UNL     1       9.545   0.728  24.163  0.00  0.00    +0.020 A 
ATOM     22  C   UNL     1       9.878   0.514  22.831  0.00  0.00    +0.041 A 
ATOM     23 CL   UNL     1      10.166   1.855  21.794  0.00  0.00    -0.084 Cl
ATOM     24  C   UNL     1       9.964  -0.781  22.337  0.00  0.00    +0.020 A 
ATOM     25  C   UNL     1       9.730  -1.868  23.187  0.00  0.00    +0.005 A 
ENDBRANCH  16  19
ENDBRANCH  12  13
BRANCH   1  26
ATOM     26  O   UNL     1       6.007  -5.524  27.078  0.00  0.00    -0.503 OA
ATOM     27  H   UNL     1       5.629  -4.809  27.611  0.00  0.00    +0.292 HD
ENDBRANCH   1  26
TORSDOF 3
ENDMDL
