MODEL 1
REMARK VINA RESULT:      -5.9      0.000      0.000
REMARK  Name = 
REMARK  16 active torsions:
REMARK  status: ('A' for Active; 'I' for Inactive)
REMARK    1  A    between atoms: CD1_1  and  CG1_2
REMARK    2  A    between atoms: CG1_2  and  CB_3
REMARK    3  A    between atoms: CB_3  and  CG2_5
REMARK    4  A    between atoms: CB_3  and  CA_6
REMARK    5  A    between atoms: CA_6  and  N_8
REMARK    6  A    between atoms: CA_6  and  C_24
REMARK    7  A    between atoms: N_8  and  C_9
REMARK    8  A    between atoms: C_9  and  C_10
REMARK    9  A    between atoms: C_11  and  O_12
REMARK   10  A    between atoms: C_13  and  C_14
REMARK   11  A    between atoms: C_17  and  C_18
REMARK   12  A    between atoms: C_18  and  O_19
REMARK   13  A    between atoms: O_19  and  P_20
REMARK   14  A    between atoms: P_20  and  O_21
REMARK   15  A    between atoms: P_20  and  O_22
REMARK   16  A    between atoms: C_24  and  O_25
REMARK                            x       y       z     vdW  Elec       q    Type
REMARK                         _______ _______ _______ _____ _____    ______ ____
ROOT
ATOM      1  C   UNK A   0       7.854  -1.321  23.646  0.00  0.00    +0.016 A 
ATOM      2  C   UNK A   0       9.155  -1.896  23.629  0.00  0.00    +0.005 A 
ATOM      3  C   UNK A   0      10.116  -1.275  22.815  0.00  0.00    +0.117 A 
ATOM      4  N   UNK A   0       9.920  -0.189  22.041  0.00  0.00    -0.256 NA
ATOM      5  C   UNK A   0       8.688   0.361  22.064  0.00  0.00    +0.080 A 
ATOM      6  C   UNK A   0       8.504   1.585  21.213  0.00  0.00    +0.069 C 
ATOM      7  C   UNK A   0       7.659  -0.156  22.856  0.00  0.00    +0.142 A 
ENDROOT
BRANCH   7   8
ATOM      8  O   UNK A   0       6.474   0.525  22.833  0.00  0.00    -0.505 OA
ATOM      9  H   UNK A   0       6.581   1.367  23.309  0.00  0.00    +0.292 HD
ENDBRANCH   7   8
BRANCH   1  10
ATOM     10  C   UNK A   0       6.675  -1.860  24.465  0.00  0.00    +0.121 C 
BRANCH  10  11
ATOM     11  N   ILE A   1       5.596  -2.328  23.598  0.00  0.00    -0.300 NA
ATOM     12  H   ILE A   1       4.690  -1.884  23.749  0.00  0.00    +0.123 HD
BRANCH  11  13
ATOM     13  CA  ILE A   1       5.450  -3.774  23.336  0.00  0.00    +0.166 C 
BRANCH  13  14
ATOM     14  CB  ILE A   1       4.020  -4.411  23.407  0.00  0.00    +0.014 C 
ATOM     15  CG2 ILE A   1       3.332  -4.041  24.736  0.00  0.00    +0.009 C 
BRANCH  14  17
ATOM     16  CD1 ILE A   1       4.552  -6.752  24.370  0.00  0.00    +0.004 C 
ATOM     17  CG1 ILE A   1       3.995  -5.943  23.204  0.00  0.00    +0.002 C 
ENDBRANCH  14  17
ENDBRANCH  13  14
BRANCH  13  18
ATOM     18  C   ILE A   1       6.068  -4.014  21.932  0.00  0.00    +0.322 C 
ATOM     19  OXT ILE A   1       5.555  -3.647  20.884  0.00  0.00    -0.249 OA
BRANCH  18  20
ATOM     20  O   ILE A   1       7.251  -4.685  21.946  0.00  0.00    -0.480 OA
ATOM     21  H   ILE A   1       7.947  -4.254  21.421  0.00  0.00    +0.295 HD
ENDBRANCH  18  20
ENDBRANCH  13  18
ENDBRANCH  11  13
ENDBRANCH  10  11
ENDBRANCH   1  10
BRANCH   2  22
ATOM     22  C   UNK A   0       9.679  -3.054  24.459  0.00  0.00    +0.209 C 
BRANCH  22  23
ATOM     23  O   UNK A   0       8.987  -4.241  24.201  0.00  0.00    -0.282 OA
BRANCH  23  24
ATOM     24  P   UNK A   0       8.327  -5.137  25.525  0.00  0.00    +0.473 P 
ATOM     25  O   UNK A   0       7.735  -5.939  26.711  0.00  0.00    -0.228 OA
BRANCH  24  26
ATOM     26  O   UNK A   0       8.850  -3.920  26.487  0.00  0.00    -0.303 OA
ATOM     27  H   UNK A   0       8.382  -3.933  27.340  0.00  0.00    +0.222 HD
ENDBRANCH  24  26
BRANCH  24  28
ATOM     28  O   UNK A   0       9.729  -5.983  25.506  0.00  0.00    -0.303 OA
ATOM     29  H   UNK A   0      10.343  -5.615  24.847  0.00  0.00    +0.222 HD
ENDBRANCH  24  28
ENDBRANCH  23  24
ENDBRANCH  22  23
ENDBRANCH   2  22
TORSDOF 13
ENDMDL
MODEL 2
REMARK VINA RESULT:      -5.9      2.118      4.985
REMARK  Name = 
REMARK  16 active torsions:
REMARK  status: ('A' for Active; 'I' for Inactive)
REMARK    1  A    between atoms: CD1_1  and  CG1_2
REMARK    2  A    between atoms: CG1_2  and  CB_3
REMARK    3  A    between atoms: CB_3  and  CG2_5
REMARK    4  A    between atoms: CB_3  and  CA_6
REMARK    5  A    between atoms: CA_6  and  N_8
REMARK    6  A    between atoms: CA_6  and  C_24
REMARK    7  A    between atoms: N_8  and  C_9
REMARK    8  A    between atoms: C_9  and  C_10
REMARK    9  A    between atoms: C_11  and  O_12
REMARK   10  A    between atoms: C_13  and  C_14
REMARK   11  A    between atoms: C_17  and  C_18
REMARK   12  A    between atoms: C_18  and  O_19
REMARK   13  A    between atoms: O_19  and  P_20
REMARK   14  A    between atoms: P_20  and  O_21
REMARK   15  A    between atoms: P_20  and  O_22
REMARK   16  A    between atoms: C_24  and  O_25
REMARK                            x       y       z     vdW  Elec       q    Type
REMARK                         _______ _______ _______ _____ _____    ______ ____
ROOT
ATOM      1  C   UNK A   0       6.704  -3.270  23.607  0.00  0.00    +0.016 A 
ATOM      2  C   UNK A   0       7.617  -4.037  24.381  0.00  0.00    +0.005 A 
ATOM      3  C   UNK A   0       7.988  -5.292  23.871  0.00  0.00    +0.117 A 
ATOM      4  N   UNK A   0       7.554  -5.842  22.719  0.00  0.00    -0.256 NA
ATOM      5  C   UNK A   0       6.694  -5.109  21.981  0.00  0.00    +0.080 A 
ATOM      6  C   UNK A   0       6.248  -5.734  20.691  0.00  0.00    +0.069 C 
ATOM      7  C   UNK A   0       6.274  -3.836  22.376  0.00  0.00    +0.142 A 
ENDROOT
BRANCH   7   8
ATOM      8  O   UNK A   0       5.446  -3.175  21.513  0.00  0.00    -0.505 OA
ATOM      9  H   UNK A   0       4.987  -2.464  21.994  0.00  0.00    +0.292 HD
ENDBRANCH   7   8
BRANCH   1  10
ATOM     10  C   UNK A   0       6.179  -1.885  24.002  0.00  0.00    +0.121 C 
BRANCH  10  11
ATOM     11  N   ILE A   1       6.472  -0.891  22.972  0.00  0.00    -0.300 NA
ATOM     12  H   ILE A   1       6.517  -1.250  22.018  0.00  0.00    +0.123 HD
BRANCH  11  13
ATOM     13  CA  ILE A   1       7.519   0.121  23.217  0.00  0.00    +0.166 C 
BRANCH  13  14
ATOM     14  CB  ILE A   1       9.002  -0.227  22.847  0.00  0.00    +0.014 C 
ATOM     15  CG2 ILE A   1       9.042  -1.312  21.753  0.00  0.00    +0.009 C 
BRANCH  14  17
ATOM     16  CD1 ILE A   1       9.397  -0.133  25.402  0.00  0.00    +0.004 C 
ATOM     17  CG1 ILE A   1       9.875  -0.651  24.049  0.00  0.00    +0.002 C 
ENDBRANCH  14  17
ENDBRANCH  13  14
BRANCH  13  18
ATOM     18  C   ILE A   1       7.067   1.392  22.449  0.00  0.00    +0.322 C 
ATOM     19  OXT ILE A   1       7.800   2.059  21.731  0.00  0.00    -0.249 OA
BRANCH  18  20
ATOM     20  O   ILE A   1       5.762   1.728  22.639  0.00  0.00    -0.480 OA
ATOM     21  H   ILE A   1       5.333   2.077  21.839  0.00  0.00    +0.295 HD
ENDBRANCH  18  20
ENDBRANCH  13  18
ENDBRANCH  11  13
ENDBRANCH  10  11
ENDBRANCH   1  10
BRANCH   2  22
ATOM     22  C   UNK A   0       8.329  -3.637  25.661  0.00  0.00    +0.209 C 
BRANCH  22  23
ATOM     23  O   UNK A   0       7.512  -3.787  26.785  0.00  0.00    -0.282 OA
BRANCH  23  24
ATOM     24  P   UNK A   0       6.632  -5.262  26.998  0.00  0.00    +0.473 P 
ATOM     25  O   UNK A   0       5.845  -6.582  27.189  0.00  0.00    -0.228 OA
BRANCH  24  26
ATOM     26  O   UNK A   0       6.216  -4.690  28.475  0.00  0.00    -0.303 OA
ATOM     27  H   UNK A   0       6.843  -5.000  29.151  0.00  0.00    +0.222 HD
ENDBRANCH  24  26
BRANCH  24  28
ATOM     28  O   UNK A   0       8.064  -5.921  27.445  0.00  0.00    -0.303 OA
ATOM     29  H   UNK A   0       8.391  -5.509  28.263  0.00  0.00    +0.222 HD
ENDBRANCH  24  28
ENDBRANCH  23  24
ENDBRANCH  22  23
ENDBRANCH   2  22
TORSDOF 13
ENDMDL
MODEL 3
REMARK VINA RESULT:      -5.8      2.587      5.799
REMARK  Name = 
REMARK  16 active torsions:
REMARK  status: ('A' for Active; 'I' for Inactive)
REMARK    1  A    between atoms: CD1_1  and  CG1_2
REMARK    2  A    between atoms: CG1_2  and  CB_3
REMARK    3  A    between atoms: CB_3  and  CG2_5
REMARK    4  A    between atoms: CB_3  and  CA_6
REMARK    5  A    between atoms: CA_6  and  N_8
REMARK    6  A    between atoms: CA_6  and  C_24
REMARK    7  A    between atoms: N_8  and  C_9
REMARK    8  A    between atoms: C_9  and  C_10
REMARK    9  A    between atoms: C_11  and  O_12
REMARK   10  A    between atoms: C_13  and  C_14
REMARK   11  A    between atoms: C_17  and  C_18
REMARK   12  A    between atoms: C_18  and  O_19
REMARK   13  A    between atoms: O_19  and  P_20
REMARK   14  A    between atoms: P_20  and  O_21
REMARK   15  A    between atoms: P_20  and  O_22
REMARK   16  A    between atoms: C_24  and  O_25
REMARK                            x       y       z     vdW  Elec       q    Type
REMARK                         _______ _______ _______ _____ _____    ______ ____
ROOT
ATOM      1  C   UNK A   0       6.975  -3.995  24.409  0.00  0.00    +0.016 A 
ATOM      2  C   UNK A   0       6.138  -4.670  25.340  0.00  0.00    +0.005 A 
ATOM      3  C   UNK A   0       5.334  -5.707  24.840  0.00  0.00    +0.117 A 
ATOM      4  N   UNK A   0       5.274  -6.118  23.558  0.00  0.00    -0.256 NA
ATOM      5  C   UNK A   0       6.073  -5.482  22.676  0.00  0.00    +0.080 A 
ATOM      6  C   UNK A   0       6.006  -5.978  21.260  0.00  0.00    +0.069 C 
ATOM      7  C   UNK A   0       6.935  -4.453  23.064  0.00  0.00    +0.142 A 
ENDROOT
BRANCH   7   8
ATOM      8  O   UNK A   0       7.734  -3.929  22.086  0.00  0.00    -0.505 OA
ATOM      9  H   UNK A   0       7.192  -3.380  21.493  0.00  0.00    +0.292 HD
ENDBRANCH   7   8
BRANCH   1  10
ATOM     10  C   UNK A   0       7.914  -2.837  24.764  0.00  0.00    +0.121 C 
BRANCH  10  11
ATOM     11  N   ILE A   1       7.786  -1.737  23.810  0.00  0.00    -0.300 NA
ATOM     12  H   ILE A   1       7.284  -1.960  22.951  0.00  0.00    +0.123 HD
BRANCH  11  13
ATOM     13  CA  ILE A   1       8.950  -0.868  23.544  0.00  0.00    +0.166 C 
BRANCH  13  14
ATOM     14  CB  ILE A   1       9.690  -0.208  24.759  0.00  0.00    +0.014 C 
ATOM     15  CG2 ILE A   1       8.689   0.564  25.641  0.00  0.00    +0.009 C 
BRANCH  14  17
ATOM     16  CD1 ILE A   1      10.465   2.012  23.682  0.00  0.00    +0.004 C 
ATOM     17  CG1 ILE A   1      10.869   0.709  24.364  0.00  0.00    +0.002 C 
ENDBRANCH  14  17
ENDBRANCH  13  14
BRANCH  13  18
ATOM     18  C   ILE A   1       9.946  -1.734  22.726  0.00  0.00    +0.322 C 
ATOM     19  OXT ILE A   1      10.762  -2.499  23.224  0.00  0.00    -0.249 OA
BRANCH  18  20
ATOM     20  O   ILE A   1       9.850  -1.577  21.378  0.00  0.00    -0.480 OA
ATOM     21  H   ILE A   1       8.957  -1.336  21.079  0.00  0.00    +0.295 HD
ENDBRANCH  18  20
ENDBRANCH  13  18
ENDBRANCH  11  13
ENDBRANCH  10  11
ENDBRANCH   1  10
BRANCH   2  22
ATOM     22  C   UNK A   0       6.065  -4.480  26.845  0.00  0.00    +0.209 C 
BRANCH  22  23
ATOM     23  O   UNK A   0       5.348  -5.505  27.469  0.00  0.00    -0.282 OA
BRANCH  23  24
ATOM     24  P   UNK A   0       5.961  -6.192  28.933  0.00  0.00    +0.473 P 
ATOM     25  O   UNK A   0       6.510  -6.807  30.245  0.00  0.00    -0.228 OA
BRANCH  24  26
ATOM     26  O   UNK A   0       7.408  -6.286  28.173  0.00  0.00    -0.303 OA
ATOM     27  H   UNK A   0       7.342  -6.847  27.381  0.00  0.00    +0.222 HD
ENDBRANCH  24  26
BRANCH  24  28
ATOM     28  O   UNK A   0       5.364  -7.615  28.385  0.00  0.00    -0.303 OA
ATOM     29  H   UNK A   0       4.963  -7.503  27.505  0.00  0.00    +0.222 HD
ENDBRANCH  24  28
ENDBRANCH  23  24
ENDBRANCH  22  23
ENDBRANCH   2  22
TORSDOF 13
ENDMDL
MODEL 4
REMARK VINA RESULT:      -5.7      2.879      5.730
REMARK  Name = 
REMARK  16 active torsions:
REMARK  status: ('A' for Active; 'I' for Inactive)
REMARK    1  A    between atoms: CD1_1  and  CG1_2
REMARK    2  A    between atoms: CG1_2  and  CB_3
REMARK    3  A    between atoms: CB_3  and  CG2_5
REMARK    4  A    between atoms: CB_3  and  CA_6
REMARK    5  A    between atoms: CA_6  and  N_8
REMARK    6  A    between atoms: CA_6  and  C_24
REMARK    7  A    between atoms: N_8  and  C_9
REMARK    8  A    between atoms: C_9  and  C_10
REMARK    9  A    between atoms: C_11  and  O_12
REMARK   10  A    between atoms: C_13  and  C_14
REMARK   11  A    between atoms: C_17  and  C_18
REMARK   12  A    between atoms: C_18  and  O_19
REMARK   13  A    between atoms: O_19  and  P_20
REMARK   14  A    between atoms: P_20  and  O_21
REMARK   15  A    between atoms: P_20  and  O_22
REMARK   16  A    between atoms: C_24  and  O_25
REMARK                            x       y       z     vdW  Elec       q    Type
REMARK                         _______ _______ _______ _____ _____    ______ ____
ROOT
ATOM      1  C   UNK A   0       7.645  -4.906  24.971  0.00  0.00    +0.016 A 
ATOM      2  C   UNK A   0       6.579  -4.713  25.892  0.00  0.00    +0.005 A 
ATOM      3  C   UNK A   0       5.275  -4.902  25.406  0.00  0.00    +0.117 A 
ATOM      4  N   UNK A   0       4.937  -5.242  24.146  0.00  0.00    -0.256 NA
ATOM      5  C   UNK A   0       5.950  -5.431  23.275  0.00  0.00    +0.080 A 
ATOM      6  C   UNK A   0       5.547  -5.834  21.885  0.00  0.00    +0.069 C 
ATOM      7  C   UNK A   0       7.289  -5.296  23.652  0.00  0.00    +0.142 A 
ENDROOT
BRANCH   7   8
ATOM      8  O   UNK A   0       8.221  -5.570  22.690  0.00  0.00    -0.505 OA
ATOM      9  H   UNK A   0       8.359  -4.776  22.145  0.00  0.00    +0.292 HD
ENDBRANCH   7   8
BRANCH   1  10
ATOM     10  C   UNK A   0       9.130  -4.738  25.313  0.00  0.00    +0.121 C 
BRANCH  10  11
ATOM     11  N   ILE A   1       9.766  -3.745  24.449  0.00  0.00    -0.300 NA
ATOM     12  H   ILE A   1      10.771  -3.633  24.578  0.00  0.00    +0.123 HD
BRANCH  11  13
ATOM     13  CA  ILE A   1       9.102  -2.444  24.228  0.00  0.00    +0.166 C 
BRANCH  13  14
ATOM     14  CB  ILE A   1       9.441  -1.254  25.190  0.00  0.00    +0.014 C 
ATOM     15  CG2 ILE A   1       8.572  -1.326  26.461  0.00  0.00    +0.009 C 
BRANCH  14  17
ATOM     16  CD1 ILE A   1      10.601   0.971  24.559  0.00  0.00    +0.004 C 
ATOM     17  CG1 ILE A   1       9.320   0.143  24.541  0.00  0.00    +0.002 C 
ENDBRANCH  14  17
ENDBRANCH  13  14
BRANCH  13  18
ATOM     18  C   ILE A   1       9.424  -2.048  22.762  0.00  0.00    +0.322 C 
ATOM     19  OXT ILE A   1      10.554  -1.849  22.336  0.00  0.00    -0.249 OA
BRANCH  18  20
ATOM     20  O   ILE A   1       8.332  -1.930  21.959  0.00  0.00    -0.480 OA
ATOM     21  H   ILE A   1       7.490  -2.056  22.430  0.00  0.00    +0.295 HD
ENDBRANCH  18  20
ENDBRANCH  13  18
ENDBRANCH  11  13
ENDBRANCH  10  11
ENDBRANCH   1  10
BRANCH   2  22
ATOM     22  C   UNK A   0       6.665  -4.417  27.379  0.00  0.00    +0.209 C 
BRANCH  22  23
ATOM     23  O   UNK A   0       6.960  -5.562  28.125  0.00  0.00    -0.282 OA
BRANCH  23  24
ATOM     24  P   UNK A   0       5.700  -6.322  29.035  0.00  0.00    +0.473 P 
ATOM     25  O   UNK A   0       4.573  -7.003  29.850  0.00  0.00    -0.228 OA
BRANCH  24  26
ATOM     26  O   UNK A   0       6.157  -5.369  30.286  0.00  0.00    -0.303 OA
ATOM     27  H   UNK A   0       5.600  -4.573  30.329  0.00  0.00    +0.222 HD
ENDBRANCH  24  26
BRANCH  24  28
ATOM     28  O   UNK A   0       6.777  -7.526  29.309  0.00  0.00    -0.303 OA
ATOM     29  H   UNK A   0       6.410  -8.384  29.036  0.00  0.00    +0.222 HD
ENDBRANCH  24  28
ENDBRANCH  23  24
ENDBRANCH  22  23
ENDBRANCH   2  22
TORSDOF 13
ENDMDL
MODEL 5
REMARK VINA RESULT:      -5.6      2.277      5.215
REMARK  Name = 
REMARK  16 active torsions:
REMARK  status: ('A' for Active; 'I' for Inactive)
REMARK    1  A    between atoms: CD1_1  and  CG1_2
REMARK    2  A    between atoms: CG1_2  and  CB_3
REMARK    3  A    between atoms: CB_3  and  CG2_5
REMARK    4  A    between atoms: CB_3  and  CA_6
REMARK    5  A    between atoms: CA_6  and  N_8
REMARK    6  A    between atoms: CA_6  and  C_24
REMARK    7  A    between atoms: N_8  and  C_9
REMARK    8  A    between atoms: C_9  and  C_10
REMARK    9  A    between atoms: C_11  and  O_12
REMARK   10  A    between atoms: C_13  and  C_14
REMARK   11  A    between atoms: C_17  and  C_18
REMARK   12  A    between atoms: C_18  and  O_19
REMARK   13  A    between atoms: O_19  and  P_20
REMARK   14  A    between atoms: P_20  and  O_21
REMARK   15  A    between atoms: P_20  and  O_22
REMARK   16  A    between atoms: C_24  and  O_25
REMARK                            x       y       z     vdW  Elec       q    Type
REMARK                         _______ _______ _______ _____ _____    ______ ____
ROOT
ATOM      1  C   UNK A   0       6.075  -2.611  24.244  0.00  0.00    +0.016 A 
ATOM      2  C   UNK A   0       6.085  -3.946  24.735  0.00  0.00    +0.005 A 
ATOM      3  C   UNK A   0       5.458  -4.176  25.970  0.00  0.00    +0.117 A 
ATOM      4  N   UNK A   0       4.853  -3.248  26.739  0.00  0.00    -0.256 NA
ATOM      5  C   UNK A   0       4.837  -1.984  26.269  0.00  0.00    +0.080 A 
ATOM      6  C   UNK A   0       4.135  -0.976  27.133  0.00  0.00    +0.069 C 
ATOM      7  C   UNK A   0       5.408  -1.641  25.040  0.00  0.00    +0.142 A 
ENDROOT
BRANCH   7   8
ATOM      8  O   UNK A   0       5.276  -0.337  24.652  0.00  0.00    -0.505 OA
ATOM      9  H   UNK A   0       4.692  -0.294  23.874  0.00  0.00    +0.292 HD
ENDBRANCH   7   8
BRANCH   1  10
ATOM     10  C   UNK A   0       6.713  -2.165  22.924  0.00  0.00    +0.121 C 
BRANCH  10  11
ATOM     11  N   ILE A   1       8.167  -2.072  23.040  0.00  0.00    -0.300 NA
ATOM     12  H   ILE A   1       8.603  -2.768  23.646  0.00  0.00    +0.123 HD
BRANCH  11  13
ATOM     13  CA  ILE A   1       8.799  -0.747  23.201  0.00  0.00    +0.166 C 
BRANCH  13  14
ATOM     14  CB  ILE A   1       9.742  -0.507  24.429  0.00  0.00    +0.014 C 
ATOM     15  CG2 ILE A   1       8.987  -0.774  25.747  0.00  0.00    +0.009 C 
BRANCH  14  17
ATOM     16  CD1 ILE A   1       9.413   2.057  24.522  0.00  0.00    +0.004 C 
ATOM     17  CG1 ILE A   1      10.397   0.892  24.465  0.00  0.00    +0.002 C 
ENDBRANCH  14  17
ENDBRANCH  13  14
BRANCH  13  18
ATOM     18  C   ILE A   1       9.572  -0.484  21.881  0.00  0.00    +0.322 C 
ATOM     19  OXT ILE A   1       9.438   0.520  21.194  0.00  0.00    -0.249 OA
BRANCH  18  20
ATOM     20  O   ILE A   1      10.430  -1.478  21.525  0.00  0.00    -0.480 OA
ATOM     21  H   ILE A   1      11.055  -1.219  20.826  0.00  0.00    +0.295 HD
ENDBRANCH  18  20
ENDBRANCH  13  18
ENDBRANCH  11  13
ENDBRANCH  10  11
ENDBRANCH   1  10
BRANCH   2  22
ATOM     22  C   UNK A   0       6.609  -5.194  24.048  0.00  0.00    +0.209 C 
BRANCH  22  23
ATOM     23  O   UNK A   0       8.004  -5.197  23.958  0.00  0.00    -0.282 OA
BRANCH  23  24
ATOM     24  P   UNK A   0       8.941  -4.885  25.379  0.00  0.00    +0.473 P 
ATOM     25  O   UNK A   0       9.780  -4.606  26.651  0.00  0.00    -0.228 OA
BRANCH  24  26
ATOM     26  O   UNK A   0       9.901  -3.960  24.428  0.00  0.00    -0.303 OA
ATOM     27  H   UNK A   0       9.444  -3.734  23.599  0.00  0.00    +0.222 HD
ENDBRANCH  24  26
BRANCH  24  28
ATOM     28  O   UNK A   0       9.683  -6.313  25.068  0.00  0.00    -0.303 OA
ATOM     29  H   UNK A   0      10.381  -6.198  24.400  0.00  0.00    +0.222 HD
ENDBRANCH  24  28
ENDBRANCH  23  24
ENDBRANCH  22  23
ENDBRANCH   2  22
TORSDOF 13
ENDMDL
MODEL 6
REMARK VINA RESULT:      -5.5      2.549      5.809
REMARK  Name = 
REMARK  16 active torsions:
REMARK  status: ('A' for Active; 'I' for Inactive)
REMARK    1  A    between atoms: CD1_1  and  CG1_2
REMARK    2  A    between atoms: CG1_2  and  CB_3
REMARK    3  A    between atoms: CB_3  and  CG2_5
REMARK    4  A    between atoms: CB_3  and  CA_6
REMARK    5  A    between atoms: CA_6  and  N_8
REMARK    6  A    between atoms: CA_6  and  C_24
REMARK    7  A    between atoms: N_8  and  C_9
REMARK    8  A    between atoms: C_9  and  C_10
REMARK    9  A    between atoms: C_11  and  O_12
REMARK   10  A    between atoms: C_13  and  C_14
REMARK   11  A    between atoms: C_17  and  C_18
REMARK   12  A    between atoms: C_18  and  O_19
REMARK   13  A    between atoms: O_19  and  P_20
REMARK   14  A    between atoms: P_20  and  O_21
REMARK   15  A    between atoms: P_20  and  O_22
REMARK   16  A    between atoms: C_24  and  O_25
REMARK                            x       y       z     vdW  Elec       q    Type
REMARK                         _______ _______ _______ _____ _____    ______ ____
ROOT
ATOM      1  C   UNK A   0       6.657  -3.503  24.297  0.00  0.00    +0.016 A 
ATOM      2  C   UNK A   0       6.106  -4.435  25.219  0.00  0.00    +0.005 A 
ATOM      3  C   UNK A   0       5.689  -5.673  24.702  0.00  0.00    +0.117 A 
ATOM      4  N   UNK A   0       5.755  -6.059  23.412  0.00  0.00    -0.256 NA
ATOM      5  C   UNK A   0       6.285  -5.177  22.539  0.00  0.00    +0.080 A 
ATOM      6  C   UNK A   0       6.370  -5.642  21.114  0.00  0.00    +0.069 C 
ATOM      7  C   UNK A   0       6.757  -3.924  22.943  0.00  0.00    +0.142 A 
ENDROOT
BRANCH   7   8
ATOM      8  O   UNK A   0       7.322  -3.147  21.971  0.00  0.00    -0.505 OA
ATOM      9  H   UNK A   0       8.284  -3.291  21.968  0.00  0.00    +0.292 HD
ENDBRANCH   7   8
BRANCH   1  10
ATOM     10  C   UNK A   0       7.158  -2.103  24.670  0.00  0.00    +0.121 C 
BRANCH  10  11
ATOM     11  N   ILE A   1       8.616  -2.069  24.770  0.00  0.00    -0.300 NA
ATOM     12  H   ILE A   1       8.991  -2.147  25.716  0.00  0.00    +0.123 HD
BRANCH  11  13
ATOM     13  CA  ILE A   1       9.376  -1.089  23.968  0.00  0.00    +0.166 C 
BRANCH  13  14
ATOM     14  CB  ILE A   1       8.614  -0.250  22.886  0.00  0.00    +0.014 C 
ATOM     15  CG2 ILE A   1       9.446  -0.163  21.591  0.00  0.00    +0.009 C 
BRANCH  14  17
ATOM     16  CD1 ILE A   1       8.622   2.293  22.414  0.00  0.00    +0.004 C 
ATOM     17  CG1 ILE A   1       8.203   1.165  23.351  0.00  0.00    +0.002 C 
ENDBRANCH  14  17
ENDBRANCH  13  14
BRANCH  13  18
ATOM     18  C   ILE A   1      10.054  -0.140  24.993  0.00  0.00    +0.322 C 
ATOM     19  OXT ILE A   1      11.049   0.532  24.753  0.00  0.00    -0.249 OA
BRANCH  18  20
ATOM     20  O   ILE A   1       9.453  -0.109  26.213  0.00  0.00    -0.480 OA
ATOM     21  H   ILE A   1      10.042   0.190  26.927  0.00  0.00    +0.295 HD
ENDBRANCH  18  20
ENDBRANCH  13  18
ENDBRANCH  11  13
ENDBRANCH  10  11
ENDBRANCH   1  10
BRANCH   2  22
ATOM     22  C   UNK A   0       5.992  -4.306  26.727  0.00  0.00    +0.209 C 
BRANCH  22  23
ATOM     23  O   UNK A   0       5.344  -5.404  27.300  0.00  0.00    -0.282 OA
BRANCH  23  24
ATOM     24  P   UNK A   0       5.959  -6.073  28.772  0.00  0.00    +0.473 P 
ATOM     25  O   UNK A   0       6.510  -6.671  30.090  0.00  0.00    -0.228 OA
BRANCH  24  26
ATOM     26  O   UNK A   0       7.407  -6.167  28.014  0.00  0.00    -0.303 OA
ATOM     27  H   UNK A   0       8.083  -5.671  28.507  0.00  0.00    +0.222 HD
ENDBRANCH  24  26
BRANCH  24  28
ATOM     28  O   UNK A   0       5.370  -7.505  28.238  0.00  0.00    -0.303 OA
ATOM     29  H   UNK A   0       6.054  -7.998  27.752  0.00  0.00    +0.222 HD
ENDBRANCH  24  28
ENDBRANCH  23  24
ENDBRANCH  22  23
ENDBRANCH   2  22
TORSDOF 13
ENDMDL
MODEL 7
REMARK VINA RESULT:      -5.5      3.155      4.753
REMARK  Name = 
REMARK  16 active torsions:
REMARK  status: ('A' for Active; 'I' for Inactive)
REMARK    1  A    between atoms: CD1_1  and  CG1_2
REMARK    2  A    between atoms: CG1_2  and  CB_3
REMARK    3  A    between atoms: CB_3  and  CG2_5
REMARK    4  A    between atoms: CB_3  and  CA_6
REMARK    5  A    between atoms: CA_6  and  N_8
REMARK    6  A    between atoms: CA_6  and  C_24
REMARK    7  A    between atoms: N_8  and  C_9
REMARK    8  A    between atoms: C_9  and  C_10
REMARK    9  A    between atoms: C_11  and  O_12
REMARK   10  A    between atoms: C_13  and  C_14
REMARK   11  A    between atoms: C_17  and  C_18
REMARK   12  A    between atoms: C_18  and  O_19
REMARK   13  A    between atoms: O_19  and  P_20
REMARK   14  A    between atoms: P_20  and  O_21
REMARK   15  A    between atoms: P_20  and  O_22
REMARK   16  A    between atoms: C_24  and  O_25
REMARK                            x       y       z     vdW  Elec       q    Type
REMARK                         _______ _______ _______ _____ _____    ______ ____
ROOT
ATOM      1  C   UNK A   0       7.221  -1.161  24.205  0.00  0.00    +0.016 A 
ATOM      2  C   UNK A   0       8.550  -0.758  24.512  0.00  0.00    +0.005 A 
ATOM      3  C   UNK A   0       8.794  -0.312  25.822  0.00  0.00    +0.117 A 
ATOM      4  N   UNK A   0       7.885  -0.223  26.814  0.00  0.00    -0.256 NA
ATOM      5  C   UNK A   0       6.627  -0.613  26.523  0.00  0.00    +0.080 A 
ATOM      6  C   UNK A   0       5.641  -0.529  27.653  0.00  0.00    +0.069 C 
ATOM      7  C   UNK A   0       6.272  -1.099  25.261  0.00  0.00    +0.142 A 
ENDROOT
BRANCH   7   8
ATOM      8  O   UNK A   0       4.979  -1.514  25.111  0.00  0.00    -0.505 OA
ATOM      9  H   UNK A   0       4.636  -1.188  24.261  0.00  0.00    +0.292 HD
ENDBRANCH   7   8
BRANCH   1  10
ATOM     10  C   UNK A   0       6.762  -1.667  22.833  0.00  0.00    +0.121 C 
BRANCH  10  11
ATOM     11  N   ILE A   1       6.272  -3.042  22.910  0.00  0.00    -0.300 NA
ATOM     12  H   ILE A   1       5.556  -3.212  23.616  0.00  0.00    +0.123 HD
BRANCH  11  13
ATOM     13  CA  ILE A   1       7.234  -4.160  22.838  0.00  0.00    +0.166 C 
BRANCH  13  14
ATOM     14  CB  ILE A   1       7.584  -4.938  24.153  0.00  0.00    +0.014 C 
ATOM     15  CG2 ILE A   1       6.402  -4.881  25.141  0.00  0.00    +0.009 C 
BRANCH  14  17
ATOM     16  CD1 ILE A   1       8.711  -4.050  26.305  0.00  0.00    +0.004 C 
ATOM     17  CG1 ILE A   1       8.881  -4.463  24.847  0.00  0.00    +0.002 C 
ENDBRANCH  14  17
ENDBRANCH  13  14
BRANCH  13  18
ATOM     18  C   ILE A   1       6.663  -5.142  21.779  0.00  0.00    +0.322 C 
ATOM     19  OXT ILE A   1       5.885  -4.819  20.892  0.00  0.00    -0.249 OA
BRANCH  18  20
ATOM     20  O   ILE A   1       7.096  -6.425  21.912  0.00  0.00    -0.480 OA
ATOM     21  H   ILE A   1       6.724  -6.881  22.686  0.00  0.00    +0.295 HD
ENDBRANCH  18  20
ENDBRANCH  13  18
ENDBRANCH  11  13
ENDBRANCH  10  11
ENDBRANCH   1  10
BRANCH   2  22
ATOM     22  C   UNK A   0       9.782  -0.833  23.628  0.00  0.00    +0.209 C 
BRANCH  22  23
ATOM     23  O   UNK A   0      10.159   0.423  23.145  0.00  0.00    -0.282 OA
BRANCH  23  24
ATOM     24  P   UNK A   0       9.038   1.330  22.189  0.00  0.00    +0.473 P 
ATOM     25  O   UNK A   0       8.034   2.142  21.333  0.00  0.00    -0.228 OA
BRANCH  24  26
ATOM     26  O   UNK A   0       9.211   0.166  21.051  0.00  0.00    -0.303 OA
ATOM     27  H   UNK A   0       8.434   0.143  20.466  0.00  0.00    +0.222 HD
ENDBRANCH  24  26
BRANCH  24  28
ATOM     28  O   UNK A   0      10.327   2.234  21.736  0.00  0.00    -0.303 OA
ATOM     29  H   UNK A   0      10.679   2.734  22.493  0.00  0.00    +0.222 HD
ENDBRANCH  24  28
ENDBRANCH  23  24
ENDBRANCH  22  23
ENDBRANCH   2  22
TORSDOF 13
ENDMDL
MODEL 8
REMARK VINA RESULT:      -5.4      2.870      5.513
REMARK  Name = 
REMARK  16 active torsions:
REMARK  status: ('A' for Active; 'I' for Inactive)
REMARK    1  A    between atoms: CD1_1  and  CG1_2
REMARK    2  A    between atoms: CG1_2  and  CB_3
REMARK    3  A    between atoms: CB_3  and  CG2_5
REMARK    4  A    between atoms: CB_3  and  CA_6
REMARK    5  A    between atoms: CA_6  and  N_8
REMARK    6  A    between atoms: CA_6  and  C_24
REMARK    7  A    between atoms: N_8  and  C_9
REMARK    8  A    between atoms: C_9  and  C_10
REMARK    9  A    between atoms: C_11  and  O_12
REMARK   10  A    between atoms: C_13  and  C_14
REMARK   11  A    between atoms: C_17  and  C_18
REMARK   12  A    between atoms: C_18  and  O_19
REMARK   13  A    between atoms: O_19  and  P_20
REMARK   14  A    between atoms: P_20  and  O_21
REMARK   15  A    between atoms: P_20  and  O_22
REMARK   16  A    between atoms: C_24  and  O_25
REMARK                            x       y       z     vdW  Elec       q    Type
REMARK                         _______ _______ _______ _____ _____    ______ ____
ROOT
ATOM      1  C   UNK A   0       7.973  -0.656  25.273  0.00  0.00    +0.016 A 
ATOM      2  C   UNK A   0       7.103  -1.667  24.779  0.00  0.00    +0.005 A 
ATOM      3  C   UNK A   0       5.727  -1.387  24.794  0.00  0.00    +0.117 A 
ATOM      4  N   UNK A   0       5.151  -0.252  25.241  0.00  0.00    -0.256 NA
ATOM      5  C   UNK A   0       5.978   0.709  25.703  0.00  0.00    +0.080 A 
ATOM      6  C   UNK A   0       5.313   1.972  26.169  0.00  0.00    +0.069 C 
ATOM      7  C   UNK A   0       7.367   0.552  25.712  0.00  0.00    +0.142 A 
ENDROOT
BRANCH   7   8
ATOM      8  O   UNK A   0       8.096   1.621  26.153  0.00  0.00    -0.505 OA
ATOM      9  H   UNK A   0       8.875   1.297  26.638  0.00  0.00    +0.292 HD
ENDBRANCH   7   8
BRANCH   1  10
ATOM     10  C   UNK A   0       9.499  -0.781  25.344  0.00  0.00    +0.121 C 
BRANCH  10  11
ATOM     11  N   ILE A   1      10.147   0.018  24.306  0.00  0.00    -0.300 NA
ATOM     12  H   ILE A   1      10.575   0.887  24.626  0.00  0.00    +0.123 HD
BRANCH  11  13
ATOM     13  CA  ILE A   1       9.476   0.196  23.003  0.00  0.00    +0.166 C 
BRANCH  13  14
ATOM     14  CB  ILE A   1       9.645   1.560  22.249  0.00  0.00    +0.014 C 
ATOM     15  CG2 ILE A   1      10.428   2.562  23.122  0.00  0.00    +0.009 C 
BRANCH  14  17
ATOM     16  CD1 ILE A   1       7.060   1.481  22.257  0.00  0.00    +0.004 C 
ATOM     17  CG1 ILE A   1       8.319   2.193  21.772  0.00  0.00    +0.002 C 
ENDBRANCH  14  17
ENDBRANCH  13  14
BRANCH  13  18
ATOM     18  C   ILE A   1       9.975  -0.969  22.107  0.00  0.00    +0.322 C 
ATOM     19  OXT ILE A   1      10.718  -1.862  22.491  0.00  0.00    -0.249 OA
BRANCH  18  20
ATOM     20  O   ILE A   1       9.521  -0.927  20.825  0.00  0.00    -0.480 OA
ATOM     21  H   ILE A   1       9.049  -0.104  20.609  0.00  0.00    +0.295 HD
ENDBRANCH  18  20
ENDBRANCH  13  18
ENDBRANCH  11  13
ENDBRANCH  10  11
ENDBRANCH   1  10
BRANCH   2  22
ATOM     22  C   UNK A   0       7.473  -2.993  24.139  0.00  0.00    +0.209 C 
BRANCH  22  23
ATOM     23  O   UNK A   0       7.195  -3.010  22.769  0.00  0.00    -0.282 OA
BRANCH  23  24
ATOM     24  P   UNK A   0       6.574  -4.458  22.053  0.00  0.00    +0.473 P 
ATOM     25  O   UNK A   0       6.018  -5.754  21.412  0.00  0.00    -0.228 OA
BRANCH  24  26
ATOM     26  O   UNK A   0       5.136  -3.681  21.955  0.00  0.00    -0.303 OA
ATOM     27  H   UNK A   0       5.052  -3.226  21.099  0.00  0.00    +0.222 HD
ENDBRANCH  24  26
BRANCH  24  28
ATOM     28  O   UNK A   0       6.392  -5.005  23.587  0.00  0.00    -0.303 OA
ATOM     29  H   UNK A   0       6.899  -4.456  24.210  0.00  0.00    +0.222 HD
ENDBRANCH  24  28
ENDBRANCH  23  24
ENDBRANCH  22  23
ENDBRANCH   2  22
TORSDOF 13
ENDMDL
MODEL 9
REMARK VINA RESULT:      -5.4      2.455      5.732
REMARK  Name = 
REMARK  16 active torsions:
REMARK  status: ('A' for Active; 'I' for Inactive)
REMARK    1  A    between atoms: CD1_1  and  CG1_2
REMARK    2  A    between atoms: CG1_2  and  CB_3
REMARK    3  A    between atoms: CB_3  and  CG2_5
REMARK    4  A    between atoms: CB_3  and  CA_6
REMARK    5  A    between atoms: CA_6  and  N_8
REMARK    6  A    between atoms: CA_6  and  C_24
REMARK    7  A    between atoms: N_8  and  C_9
REMARK    8  A    between atoms: C_9  and  C_10
REMARK    9  A    between atoms: C_11  and  O_12
REMARK   10  A    between atoms: C_13  and  C_14
REMARK   11  A    between atoms: C_17  and  C_18
REMARK   12  A    between atoms: C_18  and  O_19
REMARK   13  A    between atoms: O_19  and  P_20
REMARK   14  A    between atoms: P_20  and  O_21
REMARK   15  A    between atoms: P_20  and  O_22
REMARK   16  A    between atoms: C_24  and  O_25
REMARK                            x       y       z     vdW  Elec       q    Type
REMARK                         _______ _______ _______ _____ _____    ______ ____
ROOT
ATOM      1  C   UNK A   0       7.980  -3.087  23.485  0.00  0.00    +0.016 A 
ATOM      2  C   UNK A   0       6.667  -3.451  23.890  0.00  0.00    +0.005 A 
ATOM      3  C   UNK A   0       6.550  -4.206  25.069  0.00  0.00    +0.117 A 
ATOM      4  N   UNK A   0       7.567  -4.625  25.850  0.00  0.00    -0.256 NA
ATOM      5  C   UNK A   0       8.812  -4.272  25.468  0.00  0.00    +0.080 A 
ATOM      6  C   UNK A   0       9.923  -4.729  26.369  0.00  0.00    +0.069 C 
ATOM      7  C   UNK A   0       9.048  -3.500  24.327  0.00  0.00    +0.142 A 
ENDROOT
BRANCH   7   8
ATOM      8  O   UNK A   0      10.350  -3.164  24.081  0.00  0.00    -0.505 OA
ATOM      9  H   UNK A   0      10.451  -2.200  24.168  0.00  0.00    +0.292 HD
ENDBRANCH   7   8
BRANCH   1  10
ATOM     10  C   UNK A   0       8.308  -2.275  22.227  0.00  0.00    +0.121 C 
BRANCH  10  11
ATOM     11  N   ILE A   1       9.075  -1.074  22.554  0.00  0.00    -0.300 NA
ATOM     12  H   ILE A   1       9.982  -1.240  22.992  0.00  0.00    +0.123 HD
BRANCH  11  13
ATOM     13  CA  ILE A   1       8.387   0.083  23.162  0.00  0.00    +0.166 C 
BRANCH  13  14
ATOM     14  CB  ILE A   1       8.749   0.485  24.633  0.00  0.00    +0.014 C 
ATOM     15  CG2 ILE A   1      10.239   0.209  24.914  0.00  0.00    +0.009 C 
BRANCH  14  17
ATOM     16  CD1 ILE A   1       8.644  -0.840  26.852  0.00  0.00    +0.004 C 
ATOM     17  CG1 ILE A   1       7.870  -0.187  25.711  0.00  0.00    +0.002 C 
ENDBRANCH  14  17
ENDBRANCH  13  14
BRANCH  13  18
ATOM     18  C   ILE A   1       8.647   1.279  22.207  0.00  0.00    +0.322 C 
ATOM     19  OXT ILE A   1       8.516   2.453  22.525  0.00  0.00    -0.249 OA
BRANCH  18  20
ATOM     20  O   ILE A   1       9.038   0.922  20.954  0.00  0.00    -0.480 OA
ATOM     21  H   ILE A   1       9.511   1.627  20.480  0.00  0.00    +0.295 HD
ENDBRANCH  18  20
ENDBRANCH  13  18
ENDBRANCH  11  13
ENDBRANCH  10  11
ENDBRANCH   1  10
BRANCH   2  22
ATOM     22  C   UNK A   0       5.346  -3.049  23.261  0.00  0.00    +0.209 C 
BRANCH  22  23
ATOM     23  O   UNK A   0       4.965  -3.919  22.236  0.00  0.00    -0.282 OA
BRANCH  23  24
ATOM     24  P   UNK A   0       5.829  -5.404  22.026  0.00  0.00    +0.473 P 
ATOM     25  O   UNK A   0       6.602  -6.732  21.839  0.00  0.00    -0.228 OA
BRANCH  24  26
ATOM     26  O   UNK A   0       5.802  -5.083  20.421  0.00  0.00    -0.303 OA
ATOM     27  H   UNK A   0       5.579  -5.885  19.917  0.00  0.00    +0.222 HD
ENDBRANCH  24  26
BRANCH  24  28
ATOM     28  O   UNK A   0       4.365  -6.136  22.100  0.00  0.00    -0.303 OA
ATOM     29  H   UNK A   0       3.767  -5.776  21.423  0.00  0.00    +0.222 HD
ENDBRANCH  24  28
ENDBRANCH  23  24
ENDBRANCH  22  23
ENDBRANCH   2  22
TORSDOF 13
ENDMDL
