MODEL 1
REMARK VINA RESULT:      -4.4      0.000      0.000
REMARK  Name = 
REMARK  6 active torsions:
REMARK  status: ('A' for Active; 'I' for Inactive)
REMARK    1  A    between atoms: O_1  and  C_2
REMARK    2  A    between atoms: C_2  and  CA_3
REMARK    3  A    between atoms: CA_6  and  C_8
REMARK    4  A    between atoms: C_8  and  O_9
REMARK    5  A    between atoms: CG2_10  and  O_12
REMARK    6  A    between atoms: CB_13  and  OG1_15
REMARK                            x       y       z     vdW  Elec       q    Type
REMARK                         _______ _______ _______ _____ _____    ______ ____
ROOT
ATOM      1  CA  UNL     1       9.652   1.180  23.582  0.00  0.00    +0.111 C 
ATOM      2  CB  UNL     1       9.921   0.897  22.089  0.00  0.00    +0.164 C 
ATOM      3  CG2 UNL     1       9.233  -0.450  21.799  0.00  0.00    +0.164 C 
ATOM      4  CA  UNL     1       8.558  -0.831  23.120  0.00  0.00    +0.111 C 
ATOM      5  N   UNL     1       8.411   0.425  23.897  0.00  0.00    -0.302 NA
ATOM      6  H   UNL     1       7.616   0.950  23.525  0.00  0.00    +0.123 HD
ENDROOT
BRANCH   2   7
ATOM      7  OG1 UNL     1       9.312   1.902  21.259  0.00  0.00    -0.388 OA
ATOM      8  HG1 UNL     1       9.807   2.730  21.363  0.00  0.00    +0.210 HD
ENDBRANCH   2   7
BRANCH   3   9
ATOM      9  O   UNL     1      10.200  -1.431  21.429  0.00  0.00    -0.388 OA
ATOM     10  H   UNL     1      10.619  -1.138  20.602  0.00  0.00    +0.210 HD
ENDBRANCH   3   9
BRANCH   1  11
ATOM     11  C   UNL     1      10.817   0.742  24.488  0.00  0.00    +0.177 C 
BRANCH  11  12
ATOM     12  O   UNL     1      10.328   0.400  25.781  0.00  0.00    -0.393 OA
ATOM     13  H   UNL     1       9.362   0.303  25.700  0.00  0.00    +0.209 HD
ENDBRANCH  11  12
ENDBRANCH   1  11
BRANCH   4  14
ATOM     14  C   UNL     1       7.204  -1.519  22.924  0.00  0.00    +0.177 C 
BRANCH  14  15
ATOM     15  O   UNL     1       7.357  -2.646  22.064  0.00  0.00    -0.393 OA
ATOM     16  H   UNL     1       8.204  -2.513  21.593  0.00  0.00    +0.209 HD
ENDBRANCH  14  15
ENDBRANCH   4  14
TORSDOF 6
ENDMDL
MODEL 2
REMARK VINA RESULT:      -4.3      1.626      3.285
REMARK  Name = 
REMARK  6 active torsions:
REMARK  status: ('A' for Active; 'I' for Inactive)
REMARK    1  A    between atoms: O_1  and  C_2
REMARK    2  A    between atoms: C_2  and  CA_3
REMARK    3  A    between atoms: CA_6  and  C_8
REMARK    4  A    between atoms: C_8  and  O_9
REMARK    5  A    between atoms: CG2_10  and  O_12
REMARK    6  A    between atoms: CB_13  and  OG1_15
REMARK                            x       y       z     vdW  Elec       q    Type
REMARK                         _______ _______ _______ _____ _____    ______ ____
ROOT
ATOM      1  CA  UNL     1       8.773   0.100  21.995  0.00  0.00    +0.111 C 
ATOM      2  CB  UNL     1      10.202  -0.334  22.386  0.00  0.00    +0.164 C 
ATOM      3  CG2 UNL     1      10.248  -0.248  23.922  0.00  0.00    +0.164 C 
ATOM      4  CA  UNL     1       8.832   0.169  24.329  0.00  0.00    +0.111 C 
ATOM      5  N   UNL     1       7.943  -0.189  23.194  0.00  0.00    -0.302 NA
ATOM      6  H   UNL     1       7.766  -1.196  23.222  0.00  0.00    +0.123 HD
ENDROOT
BRANCH   2   7
ATOM      7  OG1 UNL     1      10.445  -1.700  22.004  0.00  0.00    -0.388 OA
ATOM      8  HG1 UNL     1      11.351  -1.935  22.260  0.00  0.00    +0.210 HD
ENDBRANCH   2   7
BRANCH   3   9
ATOM      9  O   UNL     1      11.196   0.734  24.336  0.00  0.00    -0.388 OA
ATOM     10  H   UNL     1      12.062   0.297  24.412  0.00  0.00    +0.210 HD
ENDBRANCH   3   9
BRANCH   1  11
ATOM     11  C   UNL     1       8.692   1.587  21.605  0.00  0.00    +0.177 C 
BRANCH  11  12
ATOM     12  O   UNL     1       9.995   2.159  21.587  0.00  0.00    -0.393 OA
ATOM     13  H   UNL     1      10.400   1.912  20.737  0.00  0.00    +0.209 HD
ENDBRANCH  11  12
ENDBRANCH   1  11
BRANCH   4  14
ATOM     14  C   UNL     1       8.360  -0.494  25.627  0.00  0.00    +0.177 C 
BRANCH  14  15
ATOM     15  O   UNL     1       9.341  -0.308  26.646  0.00  0.00    -0.393 OA
ATOM     16  H   UNL     1       9.333   0.646  26.857  0.00  0.00    +0.209 HD
ENDBRANCH  14  15
ENDBRANCH   4  14
TORSDOF 6
ENDMDL
MODEL 3
REMARK VINA RESULT:      -4.3      1.629      3.603
REMARK  Name = 
REMARK  6 active torsions:
REMARK  status: ('A' for Active; 'I' for Inactive)
REMARK    1  A    between atoms: O_1  and  C_2
REMARK    2  A    between atoms: C_2  and  CA_3
REMARK    3  A    between atoms: CA_6  and  C_8
REMARK    4  A    between atoms: C_8  and  O_9
REMARK    5  A    between atoms: CG2_10  and  O_12
REMARK    6  A    between atoms: CB_13  and  OG1_15
REMARK                            x       y       z     vdW  Elec       q    Type
REMARK                         _______ _______ _______ _____ _____    ______ ____
ROOT
ATOM      1  CA  UNL     1       8.829  -0.363  23.221  0.00  0.00    +0.111 C 
ATOM      2  CB  UNL     1       9.963   0.667  23.407  0.00  0.00    +0.164 C 
ATOM      3  CG2 UNL     1       9.481   1.938  22.683  0.00  0.00    +0.164 C 
ATOM      4  CA  UNL     1       8.079   1.587  22.177  0.00  0.00    +0.111 C 
ATOM      5  N   UNL     1       7.603   0.451  23.006  0.00  0.00    -0.302 NA
ATOM      6  H   UNL     1       7.298   0.811  23.913  0.00  0.00    +0.123 HD
ENDROOT
BRANCH   2   7
ATOM      7  OG1 UNL     1      10.144   0.983  24.799  0.00  0.00    -0.388 OA
ATOM      8  HG1 UNL     1       9.676   0.319  25.330  0.00  0.00    +0.210 HD
ENDBRANCH   2   7
BRANCH   3   9
ATOM      9  O   UNL     1      10.346   2.243  21.590  0.00  0.00    -0.388 OA
ATOM     10  H   UNL     1      11.230   1.900  21.805  0.00  0.00    +0.210 HD
ENDBRANCH   3   9
BRANCH   1  11
ATOM     11  C   UNL     1       9.081  -1.315  22.037  0.00  0.00    +0.177 C 
BRANCH  11  12
ATOM     12  O   UNL     1      10.477  -1.561  21.898  0.00  0.00    -0.393 OA
ATOM     13  H   UNL     1      10.690  -1.451  20.955  0.00  0.00    +0.209 HD
ENDBRANCH  11  12
ENDBRANCH   1  11
BRANCH   4  14
ATOM     14  C   UNL     1       7.104   2.766  22.249  0.00  0.00    +0.177 C 
BRANCH  14  15
ATOM     15  O   UNL     1       7.810   3.988  22.040  0.00  0.00    -0.393 OA
ATOM     16  H   UNL     1       8.025   4.015  21.086  0.00  0.00    +0.209 HD
ENDBRANCH  14  15
ENDBRANCH   4  14
TORSDOF 6
ENDMDL
MODEL 4
REMARK VINA RESULT:      -4.3      1.703      3.736
REMARK  Name = 
REMARK  6 active torsions:
REMARK  status: ('A' for Active; 'I' for Inactive)
REMARK    1  A    between atoms: O_1  and  C_2
REMARK    2  A    between atoms: C_2  and  CA_3
REMARK    3  A    between atoms: CA_6  and  C_8
REMARK    4  A    between atoms: C_8  and  O_9
REMARK    5  A    between atoms: CG2_10  and  O_12
REMARK    6  A    between atoms: CB_13  and  OG1_15
REMARK                            x       y       z     vdW  Elec       q    Type
REMARK                         _______ _______ _______ _____ _____    ______ ____
ROOT
ATOM      1  CA  UNL     1       8.838  -0.944  23.450  0.00  0.00    +0.111 C 
ATOM      2  CB  UNL     1       9.121  -0.703  21.953  0.00  0.00    +0.164 C 
ATOM      3  CG2 UNL     1       9.548   0.773  21.852  0.00  0.00    +0.164 C 
ATOM      4  CA  UNL     1       9.546   1.276  23.298  0.00  0.00    +0.111 C 
ATOM      5  N   UNL     1       9.652   0.074  24.164  0.00  0.00    -0.302 NA
ATOM      6  H   UNL     1      10.625  -0.243  24.167  0.00  0.00    +0.123 HD
ENDROOT
BRANCH   2   7
ATOM      7  OG1 UNL     1      10.215  -1.521  21.500  0.00  0.00    -0.388 OA
ATOM      8  HG1 UNL     1      11.047  -1.094  21.759  0.00  0.00    +0.210 HD
ENDBRANCH   2   7
BRANCH   3   9
ATOM      9  O   UNL     1       8.613   1.508  21.065  0.00  0.00    -0.388 OA
ATOM     10  H   UNL     1       7.726   1.350  21.433  0.00  0.00    +0.210 HD
ENDBRANCH   3   9
BRANCH   1  11
ATOM     11  C   UNL     1       7.344  -0.809  23.800  0.00  0.00    +0.177 C 
BRANCH  11  12
ATOM     12  O   UNL     1       6.602  -0.450  22.640  0.00  0.00    -0.393 OA
ATOM     13  H   UNL     1       7.215  -0.501  21.885  0.00  0.00    +0.209 HD
ENDBRANCH  11  12
ENDBRANCH   1  11
BRANCH   4  14
ATOM     14  C   UNL     1      10.678   2.266  23.591  0.00  0.00    +0.177 C 
BRANCH  14  15
ATOM     15  O   UNL     1      10.773   3.214  22.529  0.00  0.00    -0.393 OA
ATOM     16  H   UNL     1      11.394   2.830  21.879  0.00  0.00    +0.209 HD
ENDBRANCH  14  15
ENDBRANCH   4  14
TORSDOF 6
ENDMDL
MODEL 5
REMARK VINA RESULT:      -4.2      1.887      2.403
REMARK  Name = 
REMARK  6 active torsions:
REMARK  status: ('A' for Active; 'I' for Inactive)
REMARK    1  A    between atoms: O_1  and  C_2
REMARK    2  A    between atoms: C_2  and  CA_3
REMARK    3  A    between atoms: CA_6  and  C_8
REMARK    4  A    between atoms: C_8  and  O_9
REMARK    5  A    between atoms: CG2_10  and  O_12
REMARK    6  A    between atoms: CB_13  and  OG1_15
REMARK                            x       y       z     vdW  Elec       q    Type
REMARK                         _______ _______ _______ _____ _____    ______ ____
ROOT
ATOM      1  CA  UNL     1       8.753   1.612  23.450  0.00  0.00    +0.111 C 
ATOM      2  CB  UNL     1       8.099   0.824  22.296  0.00  0.00    +0.164 C 
ATOM      3  CG2 UNL     1       8.694  -0.594  22.384  0.00  0.00    +0.164 C 
ATOM      4  CA  UNL     1       9.604  -0.556  23.615  0.00  0.00    +0.111 C 
ATOM      5  N   UNL     1       9.139   0.581  24.449  0.00  0.00    -0.302 NA
ATOM      6  H   UNL     1       8.296   0.296  24.953  0.00  0.00    +0.123 HD
ENDROOT
BRANCH   2   7
ATOM      7  OG1 UNL     1       6.676   0.727  22.482  0.00  0.00    -0.388 OA
ATOM      8  HG1 UNL     1       6.292   0.289  21.706  0.00  0.00    +0.210 HD
ENDBRANCH   2   7
BRANCH   3   9
ATOM      9  O   UNL     1       9.451  -0.888  21.211  0.00  0.00    -0.388 OA
ATOM     10  H   UNL     1      10.388  -0.942  21.468  0.00  0.00    +0.210 HD
ENDBRANCH   3   9
BRANCH   1  11
ATOM     11  C   UNL     1       9.974   2.430  22.992  0.00  0.00    +0.177 C 
BRANCH  11  12
ATOM     12  O   UNL     1      10.178   2.261  21.593  0.00  0.00    -0.393 OA
ATOM     13  H   UNL     1      10.704   1.450  21.481  0.00  0.00    +0.209 HD
ENDBRANCH  11  12
ENDBRANCH   1  11
BRANCH   4  14
ATOM     14  C   UNL     1       9.588  -1.865  24.413  0.00  0.00    +0.177 C 
BRANCH  14  15
ATOM     15  O   UNL     1      10.198  -2.902  23.646  0.00  0.00    -0.393 OA
ATOM     16  H   UNL     1      11.080  -2.566  23.392  0.00  0.00    +0.209 HD
ENDBRANCH  14  15
ENDBRANCH   4  14
TORSDOF 6
ENDMDL
MODEL 6
REMARK VINA RESULT:      -4.2      4.400      5.742
REMARK  Name = 
REMARK  6 active torsions:
REMARK  status: ('A' for Active; 'I' for Inactive)
REMARK    1  A    between atoms: O_1  and  C_2
REMARK    2  A    between atoms: C_2  and  CA_3
REMARK    3  A    between atoms: CA_6  and  C_8
REMARK    4  A    between atoms: C_8  and  O_9
REMARK    5  A    between atoms: CG2_10  and  O_12
REMARK    6  A    between atoms: CB_13  and  OG1_15
REMARK                            x       y       z     vdW  Elec       q    Type
REMARK                         _______ _______ _______ _____ _____    ______ ____
ROOT
ATOM      1  CA  UNL     1       8.595  -4.690  26.676  0.00  0.00    +0.111 C 
ATOM      2  CB  UNL     1       9.075  -5.357  25.370  0.00  0.00    +0.164 C 
ATOM      3  CG2 UNL     1       8.668  -4.388  24.245  0.00  0.00    +0.164 C 
ATOM      4  CA  UNL     1       8.036  -3.197  24.970  0.00  0.00    +0.111 C 
ATOM      5  N   UNL     1       8.538  -3.237  26.367  0.00  0.00    -0.302 NA
ATOM      6  H   UNL     1       9.493  -2.872  26.383  0.00  0.00    +0.123 HD
ENDROOT
BRANCH   2   7
ATOM      7  OG1 UNL     1      10.508  -5.486  25.358  0.00  0.00    -0.388 OA
ATOM      8  HG1 UNL     1      10.749  -6.189  24.733  0.00  0.00    +0.210 HD
ENDBRANCH   2   7
BRANCH   3   9
ATOM      9  O   UNL     1       7.720  -5.006  23.377  0.00  0.00    -0.388 OA
ATOM     10  H   UNL     1       8.198  -5.320  22.590  0.00  0.00    +0.210 HD
ENDBRANCH   3   9
BRANCH   1  11
ATOM     11  C   UNL     1       7.224  -5.216  27.141  0.00  0.00    +0.177 C 
BRANCH  11  12
ATOM     12  O   UNL     1       7.399  -6.252  28.102  0.00  0.00    -0.393 OA
ATOM     13  H   UNL     1       7.295  -7.096  27.628  0.00  0.00    +0.209 HD
ENDBRANCH  11  12
ENDBRANCH   1  11
BRANCH   4  14
ATOM     14  C   UNL     1       8.357  -1.853  24.309  0.00  0.00    +0.177 C 
BRANCH  14  15
ATOM     15  O   UNL     1       8.928  -2.075  23.021  0.00  0.00    -0.393 OA
ATOM     16  H   UNL     1       9.620  -2.755  23.146  0.00  0.00    +0.209 HD
ENDBRANCH  14  15
ENDBRANCH   4  14
TORSDOF 6
ENDMDL
MODEL 7
REMARK VINA RESULT:      -4.1      1.634      2.388
REMARK  Name = 
REMARK  6 active torsions:
REMARK  status: ('A' for Active; 'I' for Inactive)
REMARK    1  A    between atoms: O_1  and  C_2
REMARK    2  A    between atoms: C_2  and  CA_3
REMARK    3  A    between atoms: CA_6  and  C_8
REMARK    4  A    between atoms: C_8  and  O_9
REMARK    5  A    between atoms: CG2_10  and  O_12
REMARK    6  A    between atoms: CB_13  and  OG1_15
REMARK                            x       y       z     vdW  Elec       q    Type
REMARK                         _______ _______ _______ _____ _____    ______ ____
ROOT
ATOM      1  CA  UNL     1       8.251   1.574  23.082  0.00  0.00    +0.111 C 
ATOM      2  CB  UNL     1       9.759   1.887  23.003  0.00  0.00    +0.164 C 
ATOM      3  CG2 UNL     1      10.469   0.560  23.328  0.00  0.00    +0.164 C 
ATOM      4  CA  UNL     1       9.333  -0.450  23.513  0.00  0.00    +0.111 C 
ATOM      5  N   UNL     1       8.148   0.114  22.818  0.00  0.00    -0.302 NA
ATOM      6  H   UNL     1       8.255  -0.035  21.812  0.00  0.00    +0.123 HD
ENDROOT
BRANCH   2   7
ATOM      7  OG1 UNL     1      10.132   2.283  21.671  0.00  0.00    -0.388 OA
ATOM      8  HG1 UNL     1      10.906   1.765  21.400  0.00  0.00    +0.210 HD
ENDBRANCH   2   7
BRANCH   3   9
ATOM      9  O   UNL     1      11.228   0.684  24.528  0.00  0.00    -0.388 OA
ATOM     10  H   UNL     1      11.803   1.463  24.437  0.00  0.00    +0.210 HD
ENDBRANCH   3   9
BRANCH   1  11
ATOM     11  C   UNL     1       7.640   1.939  24.447  0.00  0.00    +0.177 C 
BRANCH  11  12
ATOM     12  O   UNL     1       8.648   2.455  25.310  0.00  0.00    -0.393 OA
ATOM     13  H   UNL     1       8.932   1.720  25.883  0.00  0.00    +0.209 HD
ENDBRANCH  11  12
ENDBRANCH   1  11
BRANCH   4  14
ATOM     14  C   UNL     1       9.674  -1.843  22.972  0.00  0.00    +0.177 C 
BRANCH  14  15
ATOM     15  O   UNL     1      10.413  -1.719  21.758  0.00  0.00    -0.393 OA
ATOM     16  H   UNL     1      10.872  -2.573  21.634  0.00  0.00    +0.209 HD
ENDBRANCH  14  15
ENDBRANCH   4  14
TORSDOF 6
ENDMDL
MODEL 8
REMARK VINA RESULT:      -4.1      1.886      3.425
REMARK  Name = 
REMARK  6 active torsions:
REMARK  status: ('A' for Active; 'I' for Inactive)
REMARK    1  A    between atoms: O_1  and  C_2
REMARK    2  A    between atoms: C_2  and  CA_3
REMARK    3  A    between atoms: CA_6  and  C_8
REMARK    4  A    between atoms: C_8  and  O_9
REMARK    5  A    between atoms: CG2_10  and  O_12
REMARK    6  A    between atoms: CB_13  and  OG1_15
REMARK                            x       y       z     vdW  Elec       q    Type
REMARK                         _______ _______ _______ _____ _____    ______ ____
ROOT
ATOM      1  CA  UNL     1       9.803  -0.608  25.219  0.00  0.00    +0.111 C 
ATOM      2  CB  UNL     1       9.305  -1.095  23.842  0.00  0.00    +0.164 C 
ATOM      3  CG2 UNL     1       9.147   0.180  22.993  0.00  0.00    +0.164 C 
ATOM      4  CA  UNL     1       9.621   1.314  23.906  0.00  0.00    +0.111 C 
ATOM      5  N   UNL     1      10.475   0.690  24.947  0.00  0.00    -0.302 NA
ATOM      6  H   UNL     1      11.394   0.492  24.543  0.00  0.00    +0.123 HD
ENDROOT
BRANCH   2   7
ATOM      7  OG1 UNL     1      10.284  -1.939  23.211  0.00  0.00    -0.388 OA
ATOM      8  HG1 UNL     1      10.281  -1.756  22.258  0.00  0.00    +0.210 HD
ENDBRANCH   2   7
BRANCH   3   9
ATOM      9  O   UNL     1       7.781   0.368  22.629  0.00  0.00    -0.388 OA
ATOM     10  H   UNL     1       7.761   0.879  21.801  0.00  0.00    +0.210 HD
ENDBRANCH   3   9
BRANCH   1  11
ATOM     11  C   UNL     1       8.661  -0.442  26.238  0.00  0.00    +0.177 C 
BRANCH  11  12
ATOM     12  O   UNL     1       9.185  -0.445  27.563  0.00  0.00    -0.393 OA
ATOM     13  H   UNL     1       8.477  -0.118  28.146  0.00  0.00    +0.209 HD
ENDBRANCH  11  12
ENDBRANCH   1  11
BRANCH   4  14
ATOM     14  C   UNL     1      10.383   2.410  23.154  0.00  0.00    +0.177 C 
BRANCH  14  15
ATOM     15  O   UNL     1      10.167   2.271  21.751  0.00  0.00    -0.393 OA
ATOM     16  H   UNL     1      10.718   1.514  21.467  0.00  0.00    +0.209 HD
ENDBRANCH  14  15
ENDBRANCH   4  14
TORSDOF 6
ENDMDL
MODEL 9
REMARK VINA RESULT:      -4.1      4.335      5.549
REMARK  Name = 
REMARK  6 active torsions:
REMARK  status: ('A' for Active; 'I' for Inactive)
REMARK    1  A    between atoms: O_1  and  C_2
REMARK    2  A    between atoms: C_2  and  CA_3
REMARK    3  A    between atoms: CA_6  and  C_8
REMARK    4  A    between atoms: C_8  and  O_9
REMARK    5  A    between atoms: CG2_10  and  O_12
REMARK    6  A    between atoms: CB_13  and  OG1_15
REMARK                            x       y       z     vdW  Elec       q    Type
REMARK                         _______ _______ _______ _____ _____    ______ ____
ROOT
ATOM      1  CA  UNL     1       8.003  -3.201  24.362  0.00  0.00    +0.111 C 
ATOM      2  CB  UNL     1       8.492  -4.633  24.059  0.00  0.00    +0.164 C 
ATOM      3  CG2 UNL     1       8.462  -5.367  25.412  0.00  0.00    +0.164 C 
ATOM      4  CA  UNL     1       7.902  -4.339  26.399  0.00  0.00    +0.111 C 
ATOM      5  N   UNL     1       7.174  -3.330  25.589  0.00  0.00    -0.302 NA
ATOM      6  H   UNL     1       6.267  -3.718  25.319  0.00  0.00    +0.123 HD
ENDROOT
BRANCH   2   7
ATOM      7  OG1 UNL     1       7.590  -5.303  23.162  0.00  0.00    -0.388 OA
ATOM      8  HG1 UNL     1       8.051  -5.464  22.323  0.00  0.00    +0.210 HD
ENDBRANCH   2   7
BRANCH   3   9
ATOM      9  O   UNL     1       9.780  -5.760  25.793  0.00  0.00    -0.388 OA
ATOM     10  H   UNL     1      10.284  -4.952  25.993  0.00  0.00    +0.210 HD
ENDBRANCH   3   9
BRANCH   1  11
ATOM     11  C   UNL     1       9.163  -2.211  24.575  0.00  0.00    +0.177 C 
BRANCH  11  12
ATOM     12  O   UNL     1      10.158  -2.402  23.573  0.00  0.00    -0.393 OA
ATOM     13  H   UNL     1      10.570  -1.534  23.417  0.00  0.00    +0.209 HD
ENDBRANCH  11  12
ENDBRANCH   1  11
BRANCH   4  14
ATOM     14  C   UNL     1       6.984  -4.961  27.457  0.00  0.00    +0.177 C 
BRANCH  14  15
ATOM     15  O   UNL     1       7.539  -6.195  27.908  0.00  0.00    -0.393 OA
ATOM     16  H   UNL     1       6.835  -6.864  27.799  0.00  0.00    +0.209 HD
ENDBRANCH  14  15
ENDBRANCH   4  14
TORSDOF 6
ENDMDL
