MODEL 1
REMARK VINA RESULT:      -6.2      0.000      0.000
REMARK  Name = 
REMARK  11 active torsions:
REMARK  status: ('A' for Active; 'I' for Inactive)
REMARK    1  A    between atoms: C_1  and  C_2
REMARK    2  A    between atoms: C_2  and  O_3
REMARK    3  A    between atoms: O_3  and  C_4
REMARK    4  A    between atoms: C_6  and  O_7
REMARK    5  A    between atoms: O_7  and  C_8
REMARK    6  A    between atoms: C_11  and  C_12
REMARK    7  A    between atoms: C_14  and  C_37
REMARK    8  A    between atoms: C_16  and  C_30
REMARK    9  A    between atoms: N_24  and  C_25
REMARK   10  A    between atoms: C_25  and  C_26
REMARK   11  A    between atoms: C_26  and  O_27
REMARK                            x       y       z     vdW  Elec       q    Type
REMARK                         _______ _______ _______ _____ _____    ______ ____
ROOT
ATOM      1  C   UNL     1       7.665   3.117  23.871  0.00  0.00    +0.328 C 
ATOM      2  N   UNL     1       7.205   2.670  25.152  0.00  0.00    -0.128 N 
ATOM      3  C   UNL     1       7.356   3.281  26.409  0.00  0.00    +0.397 C 
ATOM      4  N   UNL     1       6.751   2.726  27.559  0.00  0.00    -0.263 N 
ATOM      5  C   UNL     1       6.532   3.637  28.699  0.00  0.00    +0.127 C 
ATOM      6  C   UNL     1       6.298   2.916  30.058  0.00  0.00    +0.103 C 
ATOM      7  N   UNL     1       5.333   1.781  30.051  0.00  0.00    -0.297 NA
ATOM      8  C   UNL     1       5.787   0.858  29.009  0.00  0.00    +0.103 C 
ATOM      9  C   UNL     1       5.933   1.516  27.640  0.00  0.00    +0.127 C 
ATOM     10  O   UNL     1       8.002   4.329  26.524  0.00  0.00    -0.223 OA
ATOM     11  C   UNL     1       6.268   1.625  24.798  0.00  0.00    +0.261 C 
ATOM     12  C   UNL     1       5.751   2.061  23.423  0.00  0.00    +0.303 C 
ATOM     13  N   UNL     1       6.920   2.751  22.862  0.00  0.00    -0.069 NA
ENDROOT
BRANCH  11  14
ATOM     14  C   UNL     1       6.879   0.217  24.789  0.00  0.00    +0.000 A 
ATOM     15  C   UNL     1       6.122  -0.836  24.249  0.00  0.00    +0.009 A 
ATOM     16  C   UNL     1       6.621  -2.139  24.228  0.00  0.00    +0.015 A 
ATOM     17  C   UNL     1       7.877  -2.407  24.767  0.00  0.00    +0.018 A 
ATOM     18 BR   UNL     1       8.584  -4.155  24.664  0.00  0.00    -0.050 Br
ATOM     19  C   UNL     1       8.615  -1.394  25.369  0.00  0.00    +0.015 A 
ATOM     20  C   UNL     1       8.118  -0.087  25.384  0.00  0.00    +0.009 A 
ENDBRANCH  11  14
BRANCH  12  21
ATOM     21  C   UNL     1       4.494   2.929  23.550  0.00  0.00    +0.005 A 
ATOM     22  C   UNL     1       4.022   3.673  22.450  0.00  0.00    +0.009 A 
ATOM     23  C   UNL     1       2.851   4.432  22.532  0.00  0.00    +0.016 A 
ATOM     24  C   UNL     1       2.155   4.485  23.735  0.00  0.00    +0.018 A 
ATOM     25 BR   UNL     1       0.583   5.526  23.861  0.00  0.00    -0.050 Br
ATOM     26  C   UNL     1       2.615   3.782  24.845  0.00  0.00    +0.016 A 
ATOM     27  C   UNL     1       3.774   3.011  24.757  0.00  0.00    +0.009 A 
ENDBRANCH  12  21
BRANCH   1  29
ATOM     28  C   UNL     1      10.155   3.116  23.421  0.00  0.00    +0.139 A 
ATOM     29  C   UNL     1       8.951   3.841  23.611  0.00  0.00    +0.107 A 
ATOM     30  C   UNL     1       9.039   5.232  23.759  0.00  0.00    +0.023 A 
ATOM     31  C   UNL     1      10.280   5.886  23.680  0.00  0.00    +0.047 A 
ATOM     32  C   UNL     1      11.458   5.168  23.466  0.00  0.00    +0.124 A 
ATOM     33  C   UNL     1      11.385   3.788  23.318  0.00  0.00    +0.092 A 
BRANCH  32  34
ATOM     34  O   UNL     1      12.603   5.916  23.435  0.00  0.00    -0.495 OA
ATOM     35  C   UNL     1      13.497   5.677  22.351  0.00  0.00    +0.277 C 
ENDBRANCH  32  34
BRANCH  28  36
ATOM     36  O   UNL     1      10.106   1.746  23.296  0.00  0.00    -0.491 OA
BRANCH  36  38
ATOM     37  C   UNL     1       9.183   0.055  21.855  0.00  0.00    +0.048 C 
ATOM     38  C   UNL     1      10.134   1.236  21.959  0.00  0.00    +0.226 C 
ENDBRANCH  36  38
ENDBRANCH  28  36
ENDBRANCH   1  29
BRANCH   7  39
ATOM     39  C   UNL     1       3.939   2.249  29.867  0.00  0.00    +0.112 C 
BRANCH  39  40
ATOM     40  C   UNL     1       2.899   1.114  29.736  0.00  0.00    +0.171 C 
BRANCH  40  41
ATOM     41  O   UNL     1       2.213   1.182  28.492  0.00  0.00    -0.394 OA
ATOM     42  H   UNL     1       2.740   1.782  27.928  0.00  0.00    +0.209 HD
ENDBRANCH  40  41
ENDBRANCH  39  40
ENDBRANCH   7  39
TORSDOF 9
ENDMDL
MODEL 2
REMARK VINA RESULT:      -5.5      2.730      6.562
REMARK  Name = 
REMARK  11 active torsions:
REMARK  status: ('A' for Active; 'I' for Inactive)
REMARK    1  A    between atoms: C_1  and  C_2
REMARK    2  A    between atoms: C_2  and  O_3
REMARK    3  A    between atoms: O_3  and  C_4
REMARK    4  A    between atoms: C_6  and  O_7
REMARK    5  A    between atoms: O_7  and  C_8
REMARK    6  A    between atoms: C_11  and  C_12
REMARK    7  A    between atoms: C_14  and  C_37
REMARK    8  A    between atoms: C_16  and  C_30
REMARK    9  A    between atoms: N_24  and  C_25
REMARK   10  A    between atoms: C_25  and  C_26
REMARK   11  A    between atoms: C_26  and  O_27
REMARK                            x       y       z     vdW  Elec       q    Type
REMARK                         _______ _______ _______ _____ _____    ______ ____
ROOT
ATOM      1  C   UNL     1       7.021   0.945  24.261  0.00  0.00    +0.328 C 
ATOM      2  N   UNL     1       6.591   1.989  25.142  0.00  0.00    -0.128 N 
ATOM      3  C   UNL     1       6.701   2.066  26.543  0.00  0.00    +0.397 C 
ATOM      4  N   UNL     1       6.292   3.228  27.235  0.00  0.00    -0.263 N 
ATOM      5  C   UNL     1       6.870   3.439  28.576  0.00  0.00    +0.127 C 
ATOM      6  C   UNL     1       6.079   4.443  29.463  0.00  0.00    +0.103 C 
ATOM      7  N   UNL     1       5.672   5.722  28.818  0.00  0.00    -0.297 NA
ATOM      8  C   UNL     1       4.934   5.359  27.606  0.00  0.00    +0.103 C 
ATOM      9  C   UNL     1       5.724   4.451  26.668  0.00  0.00    +0.127 C 
ATOM     10  O   UNL     1       7.181   1.127  27.187  0.00  0.00    -0.223 OA
ATOM     11  C   UNL     1       6.326   3.079  24.228  0.00  0.00    +0.261 C 
ATOM     12  C   UNL     1       7.289   2.810  23.066  0.00  0.00    +0.303 C 
ATOM     13  N   UNL     1       7.364   1.344  23.065  0.00  0.00    -0.069 NA
ENDROOT
BRANCH  11  14
ATOM     14  C   UNL     1       4.861   3.176  23.781  0.00  0.00    +0.000 A 
ATOM     15  C   UNL     1       4.588   3.617  22.475  0.00  0.00    +0.009 A 
ATOM     16  C   UNL     1       3.275   3.738  22.021  0.00  0.00    +0.015 A 
ATOM     17  C   UNL     1       2.217   3.438  22.875  0.00  0.00    +0.018 A 
ATOM     18 BR   UNL     1       0.443   3.524  22.231  0.00  0.00    -0.050 Br
ATOM     19  C   UNL     1       2.460   3.064  24.192  0.00  0.00    +0.015 A 
ATOM     20  C   UNL     1       3.776   2.937  24.646  0.00  0.00    +0.009 A 
ENDBRANCH  11  14
BRANCH  12  21
ATOM     21  C   UNL     1       8.630   3.521  23.278  0.00  0.00    +0.005 A 
ATOM     22  C   UNL     1       9.840   2.801  23.230  0.00  0.00    +0.009 A 
ATOM     23  C   UNL     1      11.075   3.439  23.373  0.00  0.00    +0.016 A 
ATOM     24  C   UNL     1      11.112   4.810  23.605  0.00  0.00    +0.018 A 
ATOM     25 BR   UNL     1      12.777   5.677  23.821  0.00  0.00    -0.050 Br
ATOM     26  C   UNL     1       9.931   5.541  23.685  0.00  0.00    +0.016 A 
ATOM     27  C   UNL     1       8.698   4.906  23.525  0.00  0.00    +0.009 A 
ENDBRANCH  12  21
BRANCH   1  29
ATOM     28  C   UNL     1       8.132  -1.328  24.329  0.00  0.00    +0.139 A 
ATOM     29  C   UNL     1       6.989  -0.522  24.566  0.00  0.00    +0.107 A 
ATOM     30  C   UNL     1       5.786  -1.167  24.883  0.00  0.00    +0.023 A 
ATOM     31  C   UNL     1       5.729  -2.565  25.002  0.00  0.00    +0.047 A 
ATOM     32  C   UNL     1       6.865  -3.351  24.794  0.00  0.00    +0.124 A 
ATOM     33  C   UNL     1       8.065  -2.724  24.479  0.00  0.00    +0.092 A 
BRANCH  32  34
ATOM     34  O   UNL     1       6.676  -4.700  24.913  0.00  0.00    -0.495 OA
ATOM     35  C   UNL     1       5.380  -5.133  25.319  0.00  0.00    +0.277 C 
ENDBRANCH  32  34
BRANCH  28  36
ATOM     36  O   UNL     1       9.324  -0.727  23.993  0.00  0.00    -0.491 OA
BRANCH  36  38
ATOM     37  C   UNL     1       9.920  -0.554  21.669  0.00  0.00    +0.048 C 
ATOM     38  C   UNL     1      10.073  -1.358  22.950  0.00  0.00    +0.226 C 
ENDBRANCH  36  38
ENDBRANCH  28  36
ENDBRANCH   1  29
BRANCH   7  39
ATOM     39  C   UNL     1       6.836   6.603  28.566  0.00  0.00    +0.112 C 
BRANCH  39  40
ATOM     40  C   UNL     1       7.712   6.873  29.810  0.00  0.00    +0.171 C 
BRANCH  40  41
ATOM     41  O   UNL     1       9.097   6.809  29.491  0.00  0.00    -0.394 OA
ATOM     42  H   UNL     1       9.341   5.864  29.544  0.00  0.00    +0.209 HD
ENDBRANCH  40  41
ENDBRANCH  39  40
ENDBRANCH   7  39
TORSDOF 9
ENDMDL
MODEL 3
REMARK VINA RESULT:      -5.4      3.364      7.360
REMARK  Name = 
REMARK  11 active torsions:
REMARK  status: ('A' for Active; 'I' for Inactive)
REMARK    1  A    between atoms: C_1  and  C_2
REMARK    2  A    between atoms: C_2  and  O_3
REMARK    3  A    between atoms: O_3  and  C_4
REMARK    4  A    between atoms: C_6  and  O_7
REMARK    5  A    between atoms: O_7  and  C_8
REMARK    6  A    between atoms: C_11  and  C_12
REMARK    7  A    between atoms: C_14  and  C_37
REMARK    8  A    between atoms: C_16  and  C_30
REMARK    9  A    between atoms: N_24  and  C_25
REMARK   10  A    between atoms: C_25  and  C_26
REMARK   11  A    between atoms: C_26  and  O_27
REMARK                            x       y       z     vdW  Elec       q    Type
REMARK                         _______ _______ _______ _____ _____    ______ ____
ROOT
ATOM      1  C   UNL     1       5.957   5.253  24.211  0.00  0.00    +0.328 C 
ATOM      2  N   UNL     1       6.303   3.869  24.332  0.00  0.00    -0.128 N 
ATOM      3  C   UNL     1       6.222   2.849  23.366  0.00  0.00    +0.397 C 
ATOM      4  N   UNL     1       6.697   1.549  23.649  0.00  0.00    -0.263 N 
ATOM      5  C   UNL     1       7.034   0.699  22.491  0.00  0.00    +0.127 C 
ATOM      6  C   UNL     1       7.109  -0.821  22.813  0.00  0.00    +0.103 C 
ATOM      7  N   UNL     1       7.872  -1.205  24.033  0.00  0.00    -0.297 NA
ATOM      8  C   UNL     1       7.299  -0.436  25.140  0.00  0.00    +0.103 C 
ATOM      9  C   UNL     1       7.300   1.070  24.892  0.00  0.00    +0.127 C 
ATOM     10  O   UNL     1       5.756   3.082  22.245  0.00  0.00    -0.223 OA
ATOM     11  C   UNL     1       7.062   3.844  25.563  0.00  0.00    +0.261 C 
ATOM     12  C   UNL     1       7.680   5.245  25.629  0.00  0.00    +0.303 C 
ATOM     13  N   UNL     1       6.657   6.061  24.963  0.00  0.00    -0.069 NA
ENDROOT
BRANCH  11  14
ATOM     14  C   UNL     1       6.227   3.499  26.804  0.00  0.00    +0.000 A 
ATOM     15  C   UNL     1       5.124   2.643  26.651  0.00  0.00    +0.009 A 
ATOM     16  C   UNL     1       4.322   2.307  27.741  0.00  0.00    +0.015 A 
ATOM     17  C   UNL     1       4.601   2.841  28.996  0.00  0.00    +0.018 A 
ATOM     18 BR   UNL     1       3.562   2.320  30.485  0.00  0.00    -0.050 Br
ATOM     19  C   UNL     1       5.645   3.745  29.160  0.00  0.00    +0.015 A 
ATOM     20  C   UNL     1       6.454   4.076  28.068  0.00  0.00    +0.009 A 
ENDBRANCH  11  14
BRANCH  12  21
ATOM     21  C   UNL     1       9.060   5.276  24.962  0.00  0.00    +0.005 A 
ATOM     22  C   UNL     1       9.504   4.191  24.181  0.00  0.00    +0.009 A 
ATOM     23  C   UNL     1      10.738   4.221  23.525  0.00  0.00    +0.016 A 
ATOM     24  C   UNL     1      11.563   5.331  23.675  0.00  0.00    +0.018 A 
ATOM     25 BR   UNL     1      13.243   5.371  22.809  0.00  0.00    -0.050 Br
ATOM     26  C   UNL     1      11.161   6.405  24.463  0.00  0.00    +0.016 A 
ATOM     27  C   UNL     1       9.921   6.381  25.103  0.00  0.00    +0.009 A 
ENDBRANCH  12  21
BRANCH   1  29
ATOM     28  C   UNL     1       3.492   5.353  23.649  0.00  0.00    +0.139 A 
ATOM     29  C   UNL     1       4.815   5.800  23.408  0.00  0.00    +0.107 A 
ATOM     30  C   UNL     1       5.046   6.591  22.274  0.00  0.00    +0.023 A 
ATOM     31  C   UNL     1       3.986   6.960  21.429  0.00  0.00    +0.047 A 
ATOM     32  C   UNL     1       2.680   6.539  21.688  0.00  0.00    +0.124 A 
ATOM     33  C   UNL     1       2.438   5.754  22.809  0.00  0.00    +0.092 A 
BRANCH  32  34
ATOM     34  O   UNL     1       1.742   6.944  20.778  0.00  0.00    -0.495 OA
ATOM     35  C   UNL     1       2.052   6.741  19.402  0.00  0.00    +0.277 C 
ENDBRANCH  32  34
BRANCH  28  36
ATOM     36  O   UNL     1       3.236   4.556  24.742  0.00  0.00    -0.491 OA
BRANCH  36  38
ATOM     37  C   UNL     1       3.176   5.792  26.805  0.00  0.00    +0.048 C 
ATOM     38  C   UNL     1       2.354   5.103  25.727  0.00  0.00    +0.226 C 
ENDBRANCH  36  38
ENDBRANCH  28  36
ENDBRANCH   1  29
BRANCH   7  39
ATOM     39  C   UNL     1       9.329  -0.999  23.856  0.00  0.00    +0.112 C 
BRANCH  39  40
ATOM     40  C   UNL     1      10.027  -2.084  23.005  0.00  0.00    +0.171 C 
BRANCH  40  41
ATOM     41  O   UNL     1      10.476  -1.557  21.763  0.00  0.00    -0.394 OA
ATOM     42  H   UNL     1       9.741  -1.010  21.422  0.00  0.00    +0.209 HD
ENDBRANCH  40  41
ENDBRANCH  39  40
ENDBRANCH   7  39
TORSDOF 9
ENDMDL
MODEL 4
REMARK VINA RESULT:      -4.9      3.248      6.734
REMARK  Name = 
REMARK  11 active torsions:
REMARK  status: ('A' for Active; 'I' for Inactive)
REMARK    1  A    between atoms: C_1  and  C_2
REMARK    2  A    between atoms: C_2  and  O_3
REMARK    3  A    between atoms: O_3  and  C_4
REMARK    4  A    between atoms: C_6  and  O_7
REMARK    5  A    between atoms: O_7  and  C_8
REMARK    6  A    between atoms: C_11  and  C_12
REMARK    7  A    between atoms: C_14  and  C_37
REMARK    8  A    between atoms: C_16  and  C_30
REMARK    9  A    between atoms: N_24  and  C_25
REMARK   10  A    between atoms: C_25  and  C_26
REMARK   11  A    between atoms: C_26  and  O_27
REMARK                            x       y       z     vdW  Elec       q    Type
REMARK                         _______ _______ _______ _____ _____    ______ ____
ROOT
ATOM      1  C   UNL     1       7.399   0.978  24.639  0.00  0.00    +0.328 C 
ATOM      2  N   UNL     1       6.943   2.276  24.244  0.00  0.00    -0.128 N 
ATOM      3  C   UNL     1       5.841   2.620  23.440  0.00  0.00    +0.397 C 
ATOM      4  N   UNL     1       5.496   3.974  23.230  0.00  0.00    -0.263 N 
ATOM      5  C   UNL     1       4.106   4.248  22.816  0.00  0.00    +0.127 C 
ATOM      6  C   UNL     1       3.895   5.648  22.172  0.00  0.00    +0.103 C 
ATOM      7  N   UNL     1       4.509   6.805  22.881  0.00  0.00    -0.297 NA
ATOM      8  C   UNL     1       5.928   6.484  23.046  0.00  0.00    +0.103 C 
ATOM      9  C   UNL     1       6.168   5.159  23.763  0.00  0.00    +0.127 C 
ATOM     10  O   UNL     1       5.143   1.741  22.922  0.00  0.00    -0.223 OA
ATOM     11  C   UNL     1       7.676   3.149  25.136  0.00  0.00    +0.261 C 
ATOM     12  C   UNL     1       7.896   2.282  26.381  0.00  0.00    +0.303 C 
ATOM     13  N   UNL     1       7.996   0.936  25.801  0.00  0.00    -0.069 NA
ENDROOT
BRANCH  11  14
ATOM     14  C   UNL     1       8.985   3.689  24.544  0.00  0.00    +0.000 A 
ATOM     15  C   UNL     1       9.270   5.057  24.687  0.00  0.00    +0.009 A 
ATOM     16  C   UNL     1      10.437   5.604  24.157  0.00  0.00    +0.015 A 
ATOM     17  C   UNL     1      11.326   4.793  23.457  0.00  0.00    +0.018 A 
ATOM     18 BR   UNL     1      12.945   5.520  22.810  0.00  0.00    -0.050 Br
ATOM     19  C   UNL     1      11.034   3.450  23.242  0.00  0.00    +0.015 A 
ATOM     20  C   UNL     1       9.867   2.900  23.780  0.00  0.00    +0.009 A 
ENDBRANCH  11  14
BRANCH  12  21
ATOM     21  C   UNL     1       6.759   2.462  27.392  0.00  0.00    +0.005 A 
ATOM     22  C   UNL     1       5.974   3.633  27.389  0.00  0.00    +0.009 A 
ATOM     23  C   UNL     1       4.902   3.794  28.271  0.00  0.00    +0.016 A 
ATOM     24  C   UNL     1       4.625   2.796  29.198  0.00  0.00    +0.018 A 
ATOM     25 BR   UNL     1       3.190   3.015  30.409  0.00  0.00    -0.050 Br
ATOM     26  C   UNL     1       5.401   1.642  29.242  0.00  0.00    +0.016 A 
ATOM     27  C   UNL     1       6.460   1.473  28.349  0.00  0.00    +0.009 A 
ENDBRANCH  12  21
BRANCH   1  29
ATOM     28  C   UNL     1       6.334  -1.227  23.999  0.00  0.00    +0.139 A 
ATOM     29  C   UNL     1       7.350  -0.259  23.794  0.00  0.00    +0.107 A 
ATOM     30  C   UNL     1       8.410  -0.591  22.940  0.00  0.00    +0.023 A 
ATOM     31  C   UNL     1       8.438  -1.830  22.278  0.00  0.00    +0.047 A 
ATOM     32  C   UNL     1       7.420  -2.768  22.465  0.00  0.00    +0.124 A 
ATOM     33  C   UNL     1       6.363  -2.451  23.309  0.00  0.00    +0.092 A 
BRANCH  32  34
ATOM     34  O   UNL     1       7.575  -3.945  21.785  0.00  0.00    -0.495 OA
ATOM     35  C   UNL     1       7.186  -5.136  22.466  0.00  0.00    +0.277 C 
ENDBRANCH  32  34
BRANCH  28  36
ATOM     36  O   UNL     1       5.291  -0.940  24.851  0.00  0.00    -0.491 OA
BRANCH  36  38
ATOM     37  C   UNL     1       6.120  -1.986  26.852  0.00  0.00    +0.048 C 
ATOM     38  C   UNL     1       4.991  -1.935  25.835  0.00  0.00    +0.226 C 
ENDBRANCH  36  38
ENDBRANCH  28  36
ENDBRANCH   1  29
BRANCH   7  39
ATOM     39  C   UNL     1       3.812   7.100  24.155  0.00  0.00    +0.112 C 
BRANCH  39  40
ATOM     40  C   UNL     1       2.270   7.079  24.057  0.00  0.00    +0.171 C 
BRANCH  40  41
ATOM     41  O   UNL     1       1.671   7.023  25.346  0.00  0.00    -0.394 OA
ATOM     42  H   UNL     1       1.698   7.936  25.694  0.00  0.00    +0.209 HD
ENDBRANCH  40  41
ENDBRANCH  39  40
ENDBRANCH   7  39
TORSDOF 9
ENDMDL
MODEL 5
REMARK VINA RESULT:      -4.8      2.995      6.134
REMARK  Name = 
REMARK  11 active torsions:
REMARK  status: ('A' for Active; 'I' for Inactive)
REMARK    1  A    between atoms: C_1  and  C_2
REMARK    2  A    between atoms: C_2  and  O_3
REMARK    3  A    between atoms: O_3  and  C_4
REMARK    4  A    between atoms: C_6  and  O_7
REMARK    5  A    between atoms: O_7  and  C_8
REMARK    6  A    between atoms: C_11  and  C_12
REMARK    7  A    between atoms: C_14  and  C_37
REMARK    8  A    between atoms: C_16  and  C_30
REMARK    9  A    between atoms: N_24  and  C_25
REMARK   10  A    between atoms: C_25  and  C_26
REMARK   11  A    between atoms: C_26  and  O_27
REMARK                            x       y       z     vdW  Elec       q    Type
REMARK                         _______ _______ _______ _____ _____    ______ ____
ROOT
ATOM      1  C   UNL     1       5.353   3.070  23.253  0.00  0.00    +0.328 C 
ATOM      2  N   UNL     1       5.711   3.176  24.635  0.00  0.00    -0.128 N 
ATOM      3  C   UNL     1       4.904   3.521  25.734  0.00  0.00    +0.397 C 
ATOM      4  N   UNL     1       5.421   3.487  27.048  0.00  0.00    -0.263 N 
ATOM      5  C   UNL     1       4.441   3.373  28.145  0.00  0.00    +0.127 C 
ATOM      6  C   UNL     1       4.991   3.788  29.540  0.00  0.00    +0.103 C 
ATOM      7  N   UNL     1       6.324   3.242  29.918  0.00  0.00    -0.297 NA
ATOM      8  C   UNL     1       7.242   3.603  28.836  0.00  0.00    +0.103 C 
ATOM      9  C   UNL     1       6.776   3.123  27.464  0.00  0.00    +0.127 C 
ATOM     10  O   UNL     1       3.720   3.836  25.569  0.00  0.00    -0.223 OA
ATOM     11  C   UNL     1       7.002   2.523  24.673  0.00  0.00    +0.261 C 
ATOM     12  C   UNL     1       6.920   1.506  23.530  0.00  0.00    +0.303 C 
ATOM     13  N   UNL     1       6.043   2.192  22.573  0.00  0.00    -0.069 NA
ENDROOT
BRANCH  11  14
ATOM     14  C   UNL     1       8.191   3.484  24.536  0.00  0.00    +0.000 A 
ATOM     15  C   UNL     1       9.320   3.052  23.820  0.00  0.00    +0.009 A 
ATOM     16  C   UNL     1      10.435   3.878  23.676  0.00  0.00    +0.015 A 
ATOM     17  C   UNL     1      10.441   5.140  24.264  0.00  0.00    +0.018 A 
ATOM     18 BR   UNL     1      11.918   6.287  23.998  0.00  0.00    -0.050 Br
ATOM     19  C   UNL     1       9.364   5.563  25.035  0.00  0.00    +0.015 A 
ATOM     20  C   UNL     1       8.244   4.738  25.173  0.00  0.00    +0.009 A 
ENDBRANCH  11  14
BRANCH  12  21
ATOM     21  C   UNL     1       6.396   0.153  24.025  0.00  0.00    +0.005 A 
ATOM     22  C   UNL     1       6.504  -0.997  23.217  0.00  0.00    +0.009 A 
ATOM     23  C   UNL     1       6.076  -2.248  23.670  0.00  0.00    +0.016 A 
ATOM     24  C   UNL     1       5.497  -2.357  24.930  0.00  0.00    +0.018 A 
ATOM     25 BR   UNL     1       4.896  -4.041  25.541  0.00  0.00    -0.050 Br
ATOM     26  C   UNL     1       5.353  -1.232  25.736  0.00  0.00    +0.016 A 
ATOM     27  C   UNL     1       5.796   0.014  25.291  0.00  0.00    +0.009 A 
ENDBRANCH  12  21
BRANCH   1  29
ATOM     28  C   UNL     1       4.457   5.356  22.640  0.00  0.00    +0.139 A 
ATOM     29  C   UNL     1       4.368   3.945  22.536  0.00  0.00    +0.107 A 
ATOM     30  C   UNL     1       3.227   3.402  21.933  0.00  0.00    +0.023 A 
ATOM     31  C   UNL     1       2.223   4.236  21.412  0.00  0.00    +0.047 A 
ATOM     32  C   UNL     1       2.330   5.626  21.494  0.00  0.00    +0.124 A 
ATOM     33  C   UNL     1       3.458   6.178  22.090  0.00  0.00    +0.092 A 
BRANCH  32  34
ATOM     34  O   UNL     1       1.277   6.327  20.973  0.00  0.00    -0.495 OA
ATOM     35  C   UNL     1       1.043   6.189  19.574  0.00  0.00    +0.277 C 
ENDBRANCH  32  34
BRANCH  28  36
ATOM     36  O   UNL     1       5.556   5.921  23.249  0.00  0.00    -0.491 OA
BRANCH  36  38
ATOM     37  C   UNL     1       7.485   6.011  21.815  0.00  0.00    +0.048 C 
ATOM     38  C   UNL     1       6.342   6.798  22.436  0.00  0.00    +0.226 C 
ENDBRANCH  36  38
ENDBRANCH  28  36
ENDBRANCH   1  29
BRANCH   7  39
ATOM     39  C   UNL     1       6.263   1.786  30.189  0.00  0.00    +0.112 C 
BRANCH  39  40
ATOM     40  C   UNL     1       7.633   1.135  30.481  0.00  0.00    +0.171 C 
BRANCH  40  41
ATOM     41  O   UNL     1       8.226   0.622  29.294  0.00  0.00    -0.394 OA
ATOM     42  H   UNL     1       8.833   1.319  28.975  0.00  0.00    +0.209 HD
ENDBRANCH  40  41
ENDBRANCH  39  40
ENDBRANCH   7  39
TORSDOF 9
ENDMDL
MODEL 6
REMARK VINA RESULT:      -4.7      3.311      6.737
REMARK  Name = 
REMARK  11 active torsions:
REMARK  status: ('A' for Active; 'I' for Inactive)
REMARK    1  A    between atoms: C_1  and  C_2
REMARK    2  A    between atoms: C_2  and  O_3
REMARK    3  A    between atoms: O_3  and  C_4
REMARK    4  A    between atoms: C_6  and  O_7
REMARK    5  A    between atoms: O_7  and  C_8
REMARK    6  A    between atoms: C_11  and  C_12
REMARK    7  A    between atoms: C_14  and  C_37
REMARK    8  A    between atoms: C_16  and  C_30
REMARK    9  A    between atoms: N_24  and  C_25
REMARK   10  A    between atoms: C_25  and  C_26
REMARK   11  A    between atoms: C_26  and  O_27
REMARK                            x       y       z     vdW  Elec       q    Type
REMARK                         _______ _______ _______ _____ _____    ______ ____
ROOT
ATOM      1  C   UNL     1       6.726   1.879  26.760  0.00  0.00    +0.328 C 
ATOM      2  N   UNL     1       6.186   2.732  25.745  0.00  0.00    -0.128 N 
ATOM      3  C   UNL     1       5.160   2.467  24.820  0.00  0.00    +0.397 C 
ATOM      4  N   UNL     1       4.700   3.475  23.944  0.00  0.00    -0.263 N 
ATOM      5  C   UNL     1       3.350   3.296  23.376  0.00  0.00    +0.127 C 
ATOM      6  C   UNL     1       3.070   4.153  22.108  0.00  0.00    +0.103 C 
ATOM      7  N   UNL     1       3.466   5.587  22.174  0.00  0.00    -0.297 NA
ATOM      8  C   UNL     1       4.881   5.609  22.552  0.00  0.00    +0.103 C 
ATOM      9  C   UNL     1       5.172   4.856  23.847  0.00  0.00    +0.127 C 
ATOM     10  O   UNL     1       4.628   1.352  24.775  0.00  0.00    -0.223 OA
ATOM     11  C   UNL     1       6.708   4.029  26.119  0.00  0.00    +0.261 C 
ATOM     12  C   UNL     1       6.866   3.925  27.639  0.00  0.00    +0.303 C 
ATOM     13  N   UNL     1       7.178   2.501  27.816  0.00  0.00    -0.069 NA
ENDROOT
BRANCH  11  14
ATOM     14  C   UNL     1       8.014   4.405  25.405  0.00  0.00    +0.000 A 
ATOM     15  C   UNL     1       8.601   5.647  25.696  0.00  0.00    +0.009 A 
ATOM     16  C   UNL     1       9.781   6.046  25.067  0.00  0.00    +0.015 A 
ATOM     17  C   UNL     1      10.376   5.214  24.123  0.00  0.00    +0.018 A 
ATOM     18 BR   UNL     1      12.016   5.721  23.333  0.00  0.00    -0.050 Br
ATOM     19  C   UNL     1       9.777   4.010  23.768  0.00  0.00    +0.015 A 
ATOM     20  C   UNL     1       8.599   3.608  24.403  0.00  0.00    +0.009 A 
ENDBRANCH  11  14
BRANCH  12  21
ATOM     21  C   UNL     1       5.601   4.399  28.364  0.00  0.00    +0.005 A 
ATOM     22  C   UNL     1       5.147   5.725  28.220  0.00  0.00    +0.009 A 
ATOM     23  C   UNL     1       3.970   6.163  28.834  0.00  0.00    +0.016 A 
ATOM     24  C   UNL     1       3.249   5.283  29.635  0.00  0.00    +0.018 A 
ATOM     25 BR   UNL     1       1.668   5.872  30.485  0.00  0.00    -0.050 Br
ATOM     26  C   UNL     1       3.691   3.976  29.816  0.00  0.00    +0.016 A 
ATOM     27  C   UNL     1       4.857   3.534  29.189  0.00  0.00    +0.009 A 
ENDBRANCH  12  21
BRANCH   1  29
ATOM     28  C   UNL     1       7.933  -0.135  25.816  0.00  0.00    +0.139 A 
ATOM     29  C   UNL     1       6.912   0.396  26.645  0.00  0.00    +0.107 A 
ATOM     30  C   UNL     1       5.965  -0.492  27.171  0.00  0.00    +0.023 A 
ATOM     31  C   UNL     1       6.053  -1.871  26.916  0.00  0.00    +0.047 A 
ATOM     32  C   UNL     1       7.077  -2.391  26.121  0.00  0.00    +0.124 A 
ATOM     33  C   UNL     1       8.024  -1.520  25.593  0.00  0.00    +0.092 A 
BRANCH  32  34
ATOM     34  O   UNL     1       7.040  -3.745  25.927  0.00  0.00    -0.495 OA
ATOM     35  C   UNL     1       7.926  -4.532  26.718  0.00  0.00    +0.277 C 
ENDBRANCH  32  34
BRANCH  28  36
ATOM     36  O   UNL     1       8.865   0.714  25.264  0.00  0.00    -0.491 OA
BRANCH  36  38
ATOM     37  C   UNL     1      10.599   0.342  23.638  0.00  0.00    +0.048 C 
ATOM     38  C   UNL     1      10.180   0.176  25.090  0.00  0.00    +0.226 C 
ENDBRANCH  36  38
ENDBRANCH  28  36
ENDBRANCH   1  29
BRANCH   7  39
ATOM     39  C   UNL     1       2.592   6.355  23.091  0.00  0.00    +0.112 C 
BRANCH  39  40
ATOM     40  C   UNL     1       1.087   6.277  22.752  0.00  0.00    +0.171 C 
BRANCH  40  41
ATOM     41  O   UNL     1       0.815   6.842  21.476  0.00  0.00    -0.394 OA
ATOM     42  H   UNL     1      -0.076   6.527  21.227  0.00  0.00    +0.209 HD
ENDBRANCH  40  41
ENDBRANCH  39  40
ENDBRANCH   7  39
TORSDOF 9
ENDMDL
MODEL 7
REMARK VINA RESULT:      -4.4      3.198      6.782
REMARK  Name = 
REMARK  11 active torsions:
REMARK  status: ('A' for Active; 'I' for Inactive)
REMARK    1  A    between atoms: C_1  and  C_2
REMARK    2  A    between atoms: C_2  and  O_3
REMARK    3  A    between atoms: O_3  and  C_4
REMARK    4  A    between atoms: C_6  and  O_7
REMARK    5  A    between atoms: O_7  and  C_8
REMARK    6  A    between atoms: C_11  and  C_12
REMARK    7  A    between atoms: C_14  and  C_37
REMARK    8  A    between atoms: C_16  and  C_30
REMARK    9  A    between atoms: N_24  and  C_25
REMARK   10  A    between atoms: C_25  and  C_26
REMARK   11  A    between atoms: C_26  and  O_27
REMARK                            x       y       z     vdW  Elec       q    Type
REMARK                         _______ _______ _______ _____ _____    ______ ____
ROOT
ATOM      1  C   UNL     1       7.008   1.817  26.336  0.00  0.00    +0.328 C 
ATOM      2  N   UNL     1       6.433   2.753  25.418  0.00  0.00    -0.128 N 
ATOM      3  C   UNL     1       5.412   2.550  24.472  0.00  0.00    +0.397 C 
ATOM      4  N   UNL     1       4.912   3.628  23.708  0.00  0.00    -0.263 N 
ATOM      5  C   UNL     1       3.566   3.462  23.126  0.00  0.00    +0.127 C 
ATOM      6  C   UNL     1       3.250   4.437  21.956  0.00  0.00    +0.103 C 
ATOM      7  N   UNL     1       3.596   5.869  22.173  0.00  0.00    -0.297 NA
ATOM      8  C   UNL     1       5.011   5.901  22.548  0.00  0.00    +0.103 C 
ATOM      9  C   UNL     1       5.335   5.028  23.756  0.00  0.00    +0.127 C 
ATOM     10  O   UNL     1       4.919   1.428  24.311  0.00  0.00    -0.223 OA
ATOM     11  C   UNL     1       6.911   4.021  25.926  0.00  0.00    +0.261 C 
ATOM     12  C   UNL     1       7.080   3.763  27.426  0.00  0.00    +0.303 C 
ATOM     13  N   UNL     1       7.444   2.340  27.452  0.00  0.00    -0.069 NA
ENDROOT
BRANCH  11  14
ATOM     14  C   UNL     1       8.199   4.516  25.254  0.00  0.00    +0.000 A 
ATOM     15  C   UNL     1       8.905   3.627  24.425  0.00  0.00    +0.009 A 
ATOM     16  C   UNL     1      10.089   4.018  23.801  0.00  0.00    +0.015 A 
ATOM     17  C   UNL     1      10.593   5.298  24.013  0.00  0.00    +0.018 A 
ATOM     18 BR   UNL     1      12.152   5.851  23.102  0.00  0.00    -0.050 Br
ATOM     19  C   UNL     1       9.950   6.172  24.883  0.00  0.00    +0.015 A 
ATOM     20  C   UNL     1       8.759   5.783  25.504  0.00  0.00    +0.009 A 
ENDBRANCH  11  14
BRANCH  12  21
ATOM     21  C   UNL     1       5.804   4.113  28.199  0.00  0.00    +0.005 A 
ATOM     22  C   UNL     1       4.906   5.077  27.701  0.00  0.00    +0.009 A 
ATOM     23  C   UNL     1       3.713   5.375  28.366  0.00  0.00    +0.016 A 
ATOM     24  C   UNL     1       3.421   4.733  29.565  0.00  0.00    +0.018 A 
ATOM     25 BR   UNL     1       1.821   5.145  30.482  0.00  0.00    -0.050 Br
ATOM     26  C   UNL     1       4.305   3.797  30.094  0.00  0.00    +0.016 A 
ATOM     27  C   UNL     1       5.487   3.487  29.420  0.00  0.00    +0.009 A 
ENDBRANCH  12  21
BRANCH   1  29
ATOM     28  C   UNL     1       6.584  -0.627  26.836  0.00  0.00    +0.139 A 
ATOM     29  C   UNL     1       7.246   0.362  26.065  0.00  0.00    +0.107 A 
ATOM     30  C   UNL     1       8.271  -0.053  25.205  0.00  0.00    +0.023 A 
ATOM     31  C   UNL     1       8.601  -1.414  25.084  0.00  0.00    +0.047 A 
ATOM     32  C   UNL     1       7.926  -2.385  25.826  0.00  0.00    +0.124 A 
ATOM     33  C   UNL     1       6.907  -1.987  26.683  0.00  0.00    +0.092 A 
BRANCH  32  34
ATOM     34  O   UNL     1       8.356  -3.670  25.639  0.00  0.00    -0.495 OA
ATOM     35  C   UNL     1       9.096  -3.933  24.449  0.00  0.00    +0.277 C 
ENDBRANCH  32  34
BRANCH  28  36
ATOM     36  O   UNL     1       5.588  -0.249  27.708  0.00  0.00    -0.491 OA
BRANCH  36  38
ATOM     37  C   UNL     1       3.509   0.938  27.470  0.00  0.00    +0.048 C 
ATOM     38  C   UNL     1       4.247  -0.367  27.219  0.00  0.00    +0.226 C 
ENDBRANCH  36  38
ENDBRANCH  28  36
ENDBRANCH   1  29
BRANCH   7  39
ATOM     39  C   UNL     1       2.700   6.505  23.167  0.00  0.00    +0.112 C 
BRANCH  39  40
ATOM     40  C   UNL     1       1.194   6.356  22.856  0.00  0.00    +0.171 C 
BRANCH  40  41
ATOM     41  O   UNL     1       0.459   5.995  24.018  0.00  0.00    -0.394 OA
ATOM     42  H   UNL     1       0.930   5.232  24.408  0.00  0.00    +0.209 HD
ENDBRANCH  40  41
ENDBRANCH  39  40
ENDBRANCH   7  39
TORSDOF 9
ENDMDL
MODEL 8
REMARK VINA RESULT:      -4.1      3.436      7.514
REMARK  Name = 
REMARK  11 active torsions:
REMARK  status: ('A' for Active; 'I' for Inactive)
REMARK    1  A    between atoms: C_1  and  C_2
REMARK    2  A    between atoms: C_2  and  O_3
REMARK    3  A    between atoms: O_3  and  C_4
REMARK    4  A    between atoms: C_6  and  O_7
REMARK    5  A    between atoms: O_7  and  C_8
REMARK    6  A    between atoms: C_11  and  C_12
REMARK    7  A    between atoms: C_14  and  C_37
REMARK    8  A    between atoms: C_16  and  C_30
REMARK    9  A    between atoms: N_24  and  C_25
REMARK   10  A    between atoms: C_25  and  C_26
REMARK   11  A    between atoms: C_26  and  O_27
REMARK                            x       y       z     vdW  Elec       q    Type
REMARK                         _______ _______ _______ _____ _____    ______ ____
ROOT
ATOM      1  C   UNL     1       5.417   0.316  27.573  0.00  0.00    +0.328 C 
ATOM      2  N   UNL     1       5.223   1.163  26.436  0.00  0.00    -0.128 N 
ATOM      3  C   UNL     1       4.021   1.640  25.883  0.00  0.00    +0.397 C 
ATOM      4  N   UNL     1       4.035   2.547  24.799  0.00  0.00    -0.263 N 
ATOM      5  C   UNL     1       2.821   3.363  24.600  0.00  0.00    +0.127 C 
ATOM      6  C   UNL     1       2.698   3.989  23.182  0.00  0.00    +0.103 C 
ATOM      7  N   UNL     1       3.916   4.652  22.639  0.00  0.00    -0.297 NA
ATOM      8  C   UNL     1       4.993   3.661  22.711  0.00  0.00    +0.103 C 
ATOM      9  C   UNL     1       5.203   3.099  24.113  0.00  0.00    +0.127 C 
ATOM     10  O   UNL     1       2.932   1.293  26.354  0.00  0.00    -0.223 OA
ATOM     11  C   UNL     1       6.555   1.677  26.199  0.00  0.00    +0.261 C 
ATOM     12  C   UNL     1       7.193   1.667  27.593  0.00  0.00    +0.303 C 
ATOM     13  N   UNL     1       6.534   0.515  28.221  0.00  0.00    -0.069 NA
ENDROOT
BRANCH  11  14
ATOM     14  C   UNL     1       7.359   0.874  25.167  0.00  0.00    +0.000 A 
ATOM     15  C   UNL     1       8.760   0.872  25.266  0.00  0.00    +0.009 A 
ATOM     16  C   UNL     1       9.542   0.172  24.347  0.00  0.00    +0.015 A 
ATOM     17  C   UNL     1       8.931  -0.519  23.305  0.00  0.00    +0.018 A 
ATOM     18 BR   UNL     1       9.986  -1.533  22.111  0.00  0.00    -0.050 Br
ATOM     19  C   UNL     1       7.550  -0.476  23.146  0.00  0.00    +0.015 A 
ATOM     20  C   UNL     1       6.766   0.220  24.071  0.00  0.00    +0.009 A 
ENDBRANCH  11  14
BRANCH  12  21
ATOM     21  C   UNL     1       6.975   3.002  28.314  0.00  0.00    +0.005 A 
ATOM     22  C   UNL     1       6.825   4.197  27.582  0.00  0.00    +0.009 A 
ATOM     23  C   UNL     1       6.577   5.416  28.219  0.00  0.00    +0.016 A 
ATOM     24  C   UNL     1       6.513   5.460  29.607  0.00  0.00    +0.018 A 
ATOM     25 BR   UNL     1       6.200   7.108  30.478  0.00  0.00    -0.050 Br
ATOM     26  C   UNL     1       6.685   4.300  30.356  0.00  0.00    +0.016 A 
ATOM     27  C   UNL     1       6.916   3.080  29.718  0.00  0.00    +0.009 A 
ENDBRANCH  12  21
BRANCH   1  29
ATOM     28  C   UNL     1       4.460  -1.997  27.198  0.00  0.00    +0.139 A 
ATOM     29  C   UNL     1       4.523  -0.816  27.981  0.00  0.00    +0.107 A 
ATOM     30  C   UNL     1       3.582  -0.657  29.007  0.00  0.00    +0.023 A 
ATOM     31  C   UNL     1       2.633  -1.659  29.273  0.00  0.00    +0.047 A 
ATOM     32  C   UNL     1       2.594  -2.831  28.515  0.00  0.00    +0.124 A 
ATOM     33  C   UNL     1       3.522  -3.001  27.494  0.00  0.00    +0.092 A 
BRANCH  32  34
ATOM     34  O   UNL     1       1.609  -3.717  28.856  0.00  0.00    -0.495 OA
ATOM     35  C   UNL     1       1.832  -5.085  28.521  0.00  0.00    +0.277 C 
ENDBRANCH  32  34
BRANCH  28  36
ATOM     36  O   UNL     1       5.355  -2.172  26.168  0.00  0.00    -0.491 OA
BRANCH  36  38
ATOM     37  C   UNL     1       7.124  -3.472  25.184  0.00  0.00    +0.048 C 
ATOM     38  C   UNL     1       6.524  -2.940  26.475  0.00  0.00    +0.226 C 
ENDBRANCH  36  38
ENDBRANCH  28  36
ENDBRANCH   1  29
BRANCH   7  39
ATOM     39  C   UNL     1       4.218   5.914  23.354  0.00  0.00    +0.112 C 
BRANCH  39  40
ATOM     40  C   UNL     1       5.477   6.650  22.843  0.00  0.00    +0.171 C 
BRANCH  40  41
ATOM     41  O   UNL     1       5.342   7.016  21.475  0.00  0.00    -0.394 OA
ATOM     42  H   UNL     1       6.025   6.509  20.993  0.00  0.00    +0.209 HD
ENDBRANCH  40  41
ENDBRANCH  39  40
ENDBRANCH   7  39
TORSDOF 9
ENDMDL
MODEL 9
REMARK VINA RESULT:      -4.0      2.164      8.009
REMARK  Name = 
REMARK  11 active torsions:
REMARK  status: ('A' for Active; 'I' for Inactive)
REMARK    1  A    between atoms: C_1  and  C_2
REMARK    2  A    between atoms: C_2  and  O_3
REMARK    3  A    between atoms: O_3  and  C_4
REMARK    4  A    between atoms: C_6  and  O_7
REMARK    5  A    between atoms: O_7  and  C_8
REMARK    6  A    between atoms: C_11  and  C_12
REMARK    7  A    between atoms: C_14  and  C_37
REMARK    8  A    between atoms: C_16  and  C_30
REMARK    9  A    between atoms: N_24  and  C_25
REMARK   10  A    between atoms: C_25  and  C_26
REMARK   11  A    between atoms: C_26  and  O_27
REMARK                            x       y       z     vdW  Elec       q    Type
REMARK                         _______ _______ _______ _____ _____    ______ ____
ROOT
ATOM      1  C   UNL     1       4.936   2.490  25.639  0.00  0.00    +0.328 C 
ATOM      2  N   UNL     1       5.842   3.499  25.181  0.00  0.00    -0.128 N 
ATOM      3  C   UNL     1       6.806   4.219  25.909  0.00  0.00    +0.397 C 
ATOM      4  N   UNL     1       7.676   5.122  25.257  0.00  0.00    -0.263 N 
ATOM      5  C   UNL     1       8.935   5.451  25.954  0.00  0.00    +0.127 C 
ATOM      6  C   UNL     1       9.625   6.749  25.446  0.00  0.00    +0.103 C 
ATOM      7  N   UNL     1       9.742   6.907  23.970  0.00  0.00    -0.297 NA
ATOM      8  C   UNL     1       8.389   6.757  23.429  0.00  0.00    +0.103 C 
ATOM      9  C   UNL     1       7.721   5.446  23.831  0.00  0.00    +0.127 C 
ATOM     10  O   UNL     1       6.925   4.055  27.128  0.00  0.00    -0.223 OA
ATOM     11  C   UNL     1       5.761   3.359  23.743  0.00  0.00    +0.261 C 
ATOM     12  C   UNL     1       5.415   1.879  23.547  0.00  0.00    +0.303 C 
ATOM     13  N   UNL     1       4.615   1.593  24.745  0.00  0.00    -0.069 NA
ENDROOT
BRANCH  11  14
ATOM     14  C   UNL     1       4.747   4.303  23.081  0.00  0.00    +0.000 A 
ATOM     15  C   UNL     1       3.722   3.743  22.301  0.00  0.00    +0.009 A 
ATOM     16  C   UNL     1       2.783   4.554  21.664  0.00  0.00    +0.015 A 
ATOM     17  C   UNL     1       2.869   5.938  21.784  0.00  0.00    +0.018 A 
ATOM     18 BR   UNL     1       1.548   7.029  20.990  0.00  0.00    -0.050 Br
ATOM     19  C   UNL     1       3.914   6.519  22.495  0.00  0.00    +0.015 A 
ATOM     20  C   UNL     1       4.852   5.706  23.138  0.00  0.00    +0.009 A 
ENDBRANCH  11  14
BRANCH  12  21
ATOM     21  C   UNL     1       6.680   1.027  23.402  0.00  0.00    +0.005 A 
ATOM     22  C   UNL     1       7.939   1.635  23.224  0.00  0.00    +0.009 A 
ATOM     23  C   UNL     1       9.109   0.876  23.138  0.00  0.00    +0.016 A 
ATOM     24  C   UNL     1       9.029  -0.511  23.193  0.00  0.00    +0.018 A 
ATOM     25 BR   UNL     1      10.605  -1.545  23.056  0.00  0.00    -0.050 Br
ATOM     26  C   UNL     1       7.796  -1.138  23.340  0.00  0.00    +0.016 A 
ATOM     27  C   UNL     1       6.629  -0.380  23.443  0.00  0.00    +0.009 A 
ENDBRANCH  12  21
BRANCH   1  29
ATOM     28  C   UNL     1       4.573   1.444  27.916  0.00  0.00    +0.139 A 
ATOM     29  C   UNL     1       4.264   2.464  26.980  0.00  0.00    +0.107 A 
ATOM     30  C   UNL     1       3.177   3.303  27.258  0.00  0.00    +0.023 A 
ATOM     31  C   UNL     1       2.445   3.159  28.448  0.00  0.00    +0.047 A 
ATOM     32  C   UNL     1       2.772   2.170  29.378  0.00  0.00    +0.124 A 
ATOM     33  C   UNL     1       3.848   1.331  29.115  0.00  0.00    +0.092 A 
BRANCH  32  34
ATOM     34  O   UNL     1       1.968   2.116  30.484  0.00  0.00    -0.495 OA
ATOM     35  C   UNL     1       0.671   1.552  30.309  0.00  0.00    +0.277 C 
ENDBRANCH  32  34
BRANCH  28  36
ATOM     36  O   UNL     1       5.621   0.589  27.661  0.00  0.00    -0.491 OA
BRANCH  36  38
ATOM     37  C   UNL     1       6.480  -1.525  26.898  0.00  0.00    +0.048 C 
ATOM     38  C   UNL     1       5.275  -0.785  27.456  0.00  0.00    +0.226 C 
ENDBRANCH  36  38
ENDBRANCH  28  36
ENDBRANCH   1  29
BRANCH   7  39
ATOM     39  C   UNL     1      10.723   5.959  23.393  0.00  0.00    +0.112 C 
BRANCH  39  40
ATOM     40  C   UNL     1      12.111   5.987  24.072  0.00  0.00    +0.171 C 
BRANCH  40  41
ATOM     41  O   UNL     1      12.987   5.025  23.498  0.00  0.00    -0.394 OA
ATOM     42  H   UNL     1      13.545   5.516  22.862  0.00  0.00    +0.209 HD
ENDBRANCH  40  41
ENDBRANCH  39  40
ENDBRANCH   7  39
TORSDOF 9
ENDMDL
