MODEL 1
REMARK VINA RESULT:      -6.2      0.000      0.000
REMARK  Name = 
REMARK  16 active torsions:
REMARK  status: ('A' for Active; 'I' for Inactive)
REMARK    1  A    between atoms: C_2  and  C_3
REMARK    2  A    between atoms: C_2  and  O_8
REMARK    3  A    between atoms: C_2  and  C_10
REMARK    4  A    between atoms: C_3  and  C_4
REMARK    5  A    between atoms: C_4  and  C_5
REMARK    6  A    between atoms: C_5  and  C_6
REMARK    7  A    between atoms: C_6  and  C_7
REMARK    8  A    between atoms: O_8  and  O_9
REMARK    9  A    between atoms: C_11  and  C_12
REMARK   10  A    between atoms: C_21  and  C_23
REMARK   11  A    between atoms: C_23  and  C_24
REMARK   12  A    between atoms: C_25  and  C_26
REMARK   13  A    between atoms: C_26  and  C_27
REMARK   14  A    between atoms: C_27  and  C_28
REMARK   15  A    between atoms: C_28  and  C_29
REMARK   16  A    between atoms: C_29  and  O_30
REMARK                            x       y       z     vdW  Elec       q    Type
REMARK                         _______ _______ _______ _____ _____    ______ ____
ROOT
ATOM      1  C   UNL     1       9.173   1.844  23.617  0.00  0.00    +0.049 C 
ATOM      2  C   UNL     1      10.169   0.742  23.148  0.00  0.00    +0.034 C 
ATOM      3  C   UNL     1       9.458   0.190  21.894  0.00  0.00    +0.163 C 
ATOM      4  O   UNL     1       8.291  -0.537  22.317  0.00  0.00    -0.231 OA
ATOM      5  O   UNL     1       7.362   0.526  22.772  0.00  0.00    -0.230 OA
ATOM      6  C   UNL     1       8.831   1.399  21.249  0.00  0.00    +0.070 C 
ATOM      7  C   UNL     1       8.092   1.747  22.519  0.00  0.00    +0.166 C 
ENDROOT
BRANCH   1   9
ATOM      8  C   UNL     1      11.143   3.460  23.439  0.00  0.00    +0.003 C 
ATOM      9  C   UNL     1       9.876   3.175  23.786  0.00  0.00    -0.022 C 
BRANCH   8  10
ATOM     10  C   UNL     1      11.834   4.785  23.636  0.00  0.00    +0.179 C 
BRANCH  10  11
ATOM     11  O   UNL     1      12.762   4.902  22.543  0.00  0.00    -0.230 OA
BRANCH  11  12
ATOM     12  O   UNL     1      14.084   5.074  23.127  0.00  0.00    -0.250 OA
ATOM     13  H   UNL     1      13.846   5.827  23.700  0.00  0.00    +0.253 HD
ENDBRANCH  11  12
ENDBRANCH  10  11
BRANCH  10  14
ATOM     14  C   UNL     1      10.833   5.949  23.588  0.00  0.00    +0.039 C 
BRANCH  14  15
ATOM     15  C   UNL     1      10.663   6.650  24.938  0.00  0.00    +0.003 C 
BRANCH  15  16
ATOM     16  C   UNL     1       9.197   6.981  25.200  0.00  0.00    -0.000 C 
BRANCH  16  17
ATOM     17  C   UNL     1       8.494   5.841  25.933  0.00  0.00    -0.003 C 
ATOM     18  C   UNL     1       7.258   5.386  25.175  0.00  0.00    +0.004 C 
ENDBRANCH  16  17
ENDBRANCH  15  16
ENDBRANCH  14  15
ENDBRANCH  10  14
ENDBRANCH   8  10
ENDBRANCH   1   9
BRANCH   2  19
ATOM     19  C   UNL     1      10.415  -0.319  24.226  0.00  0.00    +0.033 C 
BRANCH  19  20
ATOM     20  C   UNL     1       9.619  -0.050  25.478  0.00  0.00    -0.031 C 
ATOM     21  C   UNL     1       8.728  -0.874  26.050  0.00  0.00    -0.031 C 
BRANCH  21  22
ATOM     22  C   UNL     1       8.352  -2.232  25.540  0.00  0.00    +0.027 C 
BRANCH  22  23
ATOM     23  C   UNL     1       8.721  -3.358  26.504  0.00  0.00    +0.015 C 
BRANCH  23  24
ATOM     24  C   UNL     1       8.151  -4.677  25.993  0.00  0.00    +0.121 C 
BRANCH  24  25
ATOM     25  C   UNL     1       9.008  -5.311  24.928  0.00  0.00    +0.305 C 
ATOM     26  O   UNL     1       8.666  -5.525  23.776  0.00  0.00    -0.251 OA
BRANCH  25  27
ATOM     27  O   UNL     1      10.238  -5.634  25.389  0.00  0.00    -0.481 OA
ATOM     28  H   UNL     1      10.231  -6.051  26.271  0.00  0.00    +0.295 HD
ENDBRANCH  25  27
ENDBRANCH  24  25
ENDBRANCH  23  24
ENDBRANCH  22  23
ENDBRANCH  21  22
ENDBRANCH  19  20
ENDBRANCH   2  19
TORSDOF 15
ENDMDL
MODEL 2
REMARK VINA RESULT:      -6.1      1.116      1.620
REMARK  Name = 
REMARK  16 active torsions:
REMARK  status: ('A' for Active; 'I' for Inactive)
REMARK    1  A    between atoms: C_2  and  C_3
REMARK    2  A    between atoms: C_2  and  O_8
REMARK    3  A    between atoms: C_2  and  C_10
REMARK    4  A    between atoms: C_3  and  C_4
REMARK    5  A    between atoms: C_4  and  C_5
REMARK    6  A    between atoms: C_5  and  C_6
REMARK    7  A    between atoms: C_6  and  C_7
REMARK    8  A    between atoms: O_8  and  O_9
REMARK    9  A    between atoms: C_11  and  C_12
REMARK   10  A    between atoms: C_21  and  C_23
REMARK   11  A    between atoms: C_23  and  C_24
REMARK   12  A    between atoms: C_25  and  C_26
REMARK   13  A    between atoms: C_26  and  C_27
REMARK   14  A    between atoms: C_27  and  C_28
REMARK   15  A    between atoms: C_28  and  C_29
REMARK   16  A    between atoms: C_29  and  O_30
REMARK                            x       y       z     vdW  Elec       q    Type
REMARK                         _______ _______ _______ _____ _____    ______ ____
ROOT
ATOM      1  C   UNL     1       9.170   1.975  23.642  0.00  0.00    +0.049 C 
ATOM      2  C   UNL     1       9.369   1.559  22.155  0.00  0.00    +0.034 C 
ATOM      3  C   UNL     1       7.964   1.808  21.569  0.00  0.00    +0.163 C 
ATOM      4  O   UNL     1       7.067   0.818  22.102  0.00  0.00    -0.231 OA
ATOM      5  O   UNL     1       6.901   1.223  23.519  0.00  0.00    -0.230 OA
ATOM      6  C   UNL     1       7.475   3.051  22.266  0.00  0.00    +0.070 C 
ATOM      7  C   UNL     1       7.693   2.427  23.624  0.00  0.00    +0.166 C 
ENDROOT
BRANCH   1   9
ATOM      8  C   UNL     1      10.985   3.729  23.248  0.00  0.00    +0.003 C 
ATOM      9  C   UNL     1      10.205   2.998  24.064  0.00  0.00    -0.022 C 
BRANCH   8  10
ATOM     10  C   UNL     1      12.026   4.727  23.686  0.00  0.00    +0.179 C 
BRANCH  10  11
ATOM     11  O   UNL     1      12.887   4.908  22.549  0.00  0.00    -0.230 OA
BRANCH  11  12
ATOM     12  O   UNL     1      14.235   5.101  23.064  0.00  0.00    -0.250 OA
ATOM     13  H   UNL     1      14.638   4.357  22.578  0.00  0.00    +0.253 HD
ENDBRANCH  11  12
ENDBRANCH  10  11
BRANCH  10  14
ATOM     14  C   UNL     1      11.388   6.069  24.069  0.00  0.00    +0.039 C 
BRANCH  14  15
ATOM     15  C   UNL     1       9.996   6.267  23.466  0.00  0.00    +0.003 C 
BRANCH  15  16
ATOM     16  C   UNL     1       9.045   6.896  24.480  0.00  0.00    -0.000 C 
BRANCH  16  17
ATOM     17  C   UNL     1       7.861   5.977  24.774  0.00  0.00    -0.003 C 
ATOM     18  C   UNL     1       8.043   5.262  26.102  0.00  0.00    +0.004 C 
ENDBRANCH  16  17
ENDBRANCH  15  16
ENDBRANCH  14  15
ENDBRANCH  10  14
ENDBRANCH   8  10
ENDBRANCH   1   9
BRANCH   2  19
ATOM     19  C   UNL     1       9.840   0.107  22.015  0.00  0.00    +0.033 C 
BRANCH  19  20
ATOM     20  C   UNL     1      10.423  -0.427  23.299  0.00  0.00    -0.031 C 
ATOM     21  C   UNL     1       9.843  -1.298  24.138  0.00  0.00    -0.031 C 
BRANCH  21  22
ATOM     22  C   UNL     1       8.487  -1.908  23.952  0.00  0.00    +0.027 C 
BRANCH  22  23
ATOM     23  C   UNL     1       8.540  -3.332  23.402  0.00  0.00    +0.015 C 
BRANCH  23  24
ATOM     24  C   UNL     1       8.020  -4.307  24.453  0.00  0.00    +0.121 C 
BRANCH  24  25
ATOM     25  C   UNL     1       9.081  -4.723  25.439  0.00  0.00    +0.305 C 
ATOM     26  O   UNL     1       9.155  -4.354  26.601  0.00  0.00    -0.251 OA
BRANCH  25  27
ATOM     27  O   UNL     1       9.977  -5.577  24.893  0.00  0.00    -0.481 OA
ATOM     28  H   UNL     1      10.609  -5.950  25.538  0.00  0.00    +0.295 HD
ENDBRANCH  25  27
ENDBRANCH  24  25
ENDBRANCH  23  24
ENDBRANCH  22  23
ENDBRANCH  21  22
ENDBRANCH  19  20
ENDBRANCH   2  19
TORSDOF 15
ENDMDL
MODEL 3
REMARK VINA RESULT:      -6.0      2.920      5.830
REMARK  Name = 
REMARK  16 active torsions:
REMARK  status: ('A' for Active; 'I' for Inactive)
REMARK    1  A    between atoms: C_2  and  C_3
REMARK    2  A    between atoms: C_2  and  O_8
REMARK    3  A    between atoms: C_2  and  C_10
REMARK    4  A    between atoms: C_3  and  C_4
REMARK    5  A    between atoms: C_4  and  C_5
REMARK    6  A    between atoms: C_5  and  C_6
REMARK    7  A    between atoms: C_6  and  C_7
REMARK    8  A    between atoms: O_8  and  O_9
REMARK    9  A    between atoms: C_11  and  C_12
REMARK   10  A    between atoms: C_21  and  C_23
REMARK   11  A    between atoms: C_23  and  C_24
REMARK   12  A    between atoms: C_25  and  C_26
REMARK   13  A    between atoms: C_26  and  C_27
REMARK   14  A    between atoms: C_27  and  C_28
REMARK   15  A    between atoms: C_28  and  C_29
REMARK   16  A    between atoms: C_29  and  O_30
REMARK                            x       y       z     vdW  Elec       q    Type
REMARK                         _______ _______ _______ _____ _____    ______ ____
ROOT
ATOM      1  C   UNL     1       6.080  -3.662  22.586  0.00  0.00    +0.049 C 
ATOM      2  C   UNL     1       6.079  -4.428  23.942  0.00  0.00    +0.034 C 
ATOM      3  C   UNL     1       6.267  -5.888  23.477  0.00  0.00    +0.163 C 
ATOM      4  O   UNL     1       5.060  -6.316  22.823  0.00  0.00    -0.231 OA
ATOM      5  O   UNL     1       5.072  -5.566  21.543  0.00  0.00    -0.230 OA
ATOM      6  C   UNL     1       7.216  -5.796  22.311  0.00  0.00    +0.070 C 
ATOM      7  C   UNL     1       6.310  -4.823  21.594  0.00  0.00    +0.166 C 
ENDROOT
BRANCH   1   9
ATOM      8  C   UNL     1       7.190  -1.551  23.500  0.00  0.00    +0.003 C 
ATOM      9  C   UNL     1       7.099  -2.542  22.596  0.00  0.00    -0.022 C 
BRANCH   8  10
ATOM     10  C   UNL     1       8.198  -0.431  23.480  0.00  0.00    +0.179 C 
BRANCH  10  11
ATOM     11  O   UNL     1       8.783  -0.417  24.794  0.00  0.00    -0.230 OA
BRANCH  11  12
ATOM     12  O   UNL     1      10.190  -0.757  24.636  0.00  0.00    -0.250 OA
ATOM     13  H   UNL     1      10.209  -0.664  23.665  0.00  0.00    +0.253 HD
ENDBRANCH  11  12
ENDBRANCH  10  11
BRANCH  10  14
ATOM     14  C   UNL     1       9.291  -0.681  22.432  0.00  0.00    +0.039 C 
BRANCH  14  15
ATOM     15  C   UNL     1       9.323   0.381  21.331  0.00  0.00    +0.003 C 
BRANCH  15  16
ATOM     16  C   UNL     1       9.034   1.767  21.900  0.00  0.00    -0.000 C 
BRANCH  16  17
ATOM     17  C   UNL     1      10.256   2.340  22.612  0.00  0.00    -0.003 C 
ATOM     18  C   UNL     1       9.856   3.053  23.893  0.00  0.00    +0.004 C 
ENDBRANCH  16  17
ENDBRANCH  15  16
ENDBRANCH  14  15
ENDBRANCH  10  14
ENDBRANCH   8  10
ENDBRANCH   1   9
BRANCH   2  19
ATOM     19  C   UNL     1       4.788  -4.203  24.738  0.00  0.00    +0.033 C 
BRANCH  19  20
ATOM     20  C   UNL     1       4.602  -5.236  25.821  0.00  0.00    -0.031 C 
ATOM     21  C   UNL     1       5.346  -5.374  26.929  0.00  0.00    -0.031 C 
BRANCH  21  22
ATOM     22  C   UNL     1       6.518  -4.515  27.298  0.00  0.00    +0.027 C 
BRANCH  22  23
ATOM     23  C   UNL     1       7.860  -5.141  26.926  0.00  0.00    +0.015 C 
BRANCH  23  24
ATOM     24  C   UNL     1       8.804  -4.060  26.411  0.00  0.00    +0.121 C 
BRANCH  24  25
ATOM     25  C   UNL     1       9.572  -4.488  25.188  0.00  0.00    +0.305 C 
ATOM     26  O   UNL     1       9.920  -3.755  24.275  0.00  0.00    -0.251 OA
BRANCH  25  27
ATOM     27  O   UNL     1       9.848  -5.813  25.197  0.00  0.00    -0.481 OA
ATOM     28  H   UNL     1      10.632  -6.054  24.668  0.00  0.00    +0.295 HD
ENDBRANCH  25  27
ENDBRANCH  24  25
ENDBRANCH  23  24
ENDBRANCH  22  23
ENDBRANCH  21  22
ENDBRANCH  19  20
ENDBRANCH   2  19
TORSDOF 15
ENDMDL
MODEL 4
REMARK VINA RESULT:      -6.0      3.972      7.818
REMARK  Name = 
REMARK  16 active torsions:
REMARK  status: ('A' for Active; 'I' for Inactive)
REMARK    1  A    between atoms: C_2  and  C_3
REMARK    2  A    between atoms: C_2  and  O_8
REMARK    3  A    between atoms: C_2  and  C_10
REMARK    4  A    between atoms: C_3  and  C_4
REMARK    5  A    between atoms: C_4  and  C_5
REMARK    6  A    between atoms: C_5  and  C_6
REMARK    7  A    between atoms: C_6  and  C_7
REMARK    8  A    between atoms: O_8  and  O_9
REMARK    9  A    between atoms: C_11  and  C_12
REMARK   10  A    between atoms: C_21  and  C_23
REMARK   11  A    between atoms: C_23  and  C_24
REMARK   12  A    between atoms: C_25  and  C_26
REMARK   13  A    between atoms: C_26  and  C_27
REMARK   14  A    between atoms: C_27  and  C_28
REMARK   15  A    between atoms: C_28  and  C_29
REMARK   16  A    between atoms: C_29  and  O_30
REMARK                            x       y       z     vdW  Elec       q    Type
REMARK                         _______ _______ _______ _____ _____    ______ ____
ROOT
ATOM      1  C   UNL     1       8.475  -2.385  23.004  0.00  0.00    +0.049 C 
ATOM      2  C   UNL     1       8.364  -1.177  23.981  0.00  0.00    +0.034 C 
ATOM      3  C   UNL     1       9.225  -0.115  23.264  0.00  0.00    +0.163 C 
ATOM      4  O   UNL     1      10.603  -0.516  23.345  0.00  0.00    -0.231 OA
ATOM      5  O   UNL     1      10.685  -1.674  22.421  0.00  0.00    -0.230 OA
ATOM      6  C   UNL     1       8.944  -0.324  21.798  0.00  0.00    +0.070 C 
ATOM      7  C   UNL     1       9.348  -1.777  21.885  0.00  0.00    +0.166 C 
ENDROOT
BRANCH   1   9
ATOM      8  C   UNL     1       6.678  -4.172  22.685  0.00  0.00    +0.003 C 
ATOM      9  C   UNL     1       7.104  -2.898  22.617  0.00  0.00    -0.022 C 
BRANCH   8  10
ATOM     10  C   UNL     1       5.316  -4.668  22.274  0.00  0.00    +0.179 C 
BRANCH  10  11
ATOM     11  O   UNL     1       5.560  -5.817  21.444  0.00  0.00    -0.230 OA
BRANCH  11  12
ATOM     12  O   UNL     1       5.952  -5.318  20.134  0.00  0.00    -0.250 OA
ATOM     13  H   UNL     1       6.166  -4.413  20.428  0.00  0.00    +0.253 HD
ENDBRANCH  11  12
ENDBRANCH  10  11
BRANCH  10  14
ATOM     14  C   UNL     1       4.481  -5.082  23.494  0.00  0.00    +0.039 C 
BRANCH  14  15
ATOM     15  C   UNL     1       4.740  -6.522  23.940  0.00  0.00    +0.003 C 
BRANCH  15  16
ATOM     16  C   UNL     1       4.232  -6.754  25.360  0.00  0.00    -0.000 C 
BRANCH  16  17
ATOM     17  C   UNL     1       3.432  -5.556  25.865  0.00  0.00    -0.003 C 
ATOM     18  C   UNL     1       3.449  -5.490  27.383  0.00  0.00    +0.004 C 
ENDBRANCH  16  17
ENDBRANCH  15  16
ENDBRANCH  14  15
ENDBRANCH  10  14
ENDBRANCH   8  10
ENDBRANCH   1   9
BRANCH   2  19
ATOM     19  C   UNL     1       8.865  -1.517  25.389  0.00  0.00    +0.033 C 
BRANCH  19  20
ATOM     20  C   UNL     1       7.863  -1.146  26.452  0.00  0.00    -0.031 C 
ATOM     21  C   UNL     1       6.784  -1.857  26.816  0.00  0.00    -0.031 C 
BRANCH  21  22
ATOM     22  C   UNL     1       6.370  -3.168  26.220  0.00  0.00    +0.027 C 
BRANCH  22  23
ATOM     23  C   UNL     1       6.942  -4.372  26.966  0.00  0.00    +0.015 C 
BRANCH  23  24
ATOM     24  C   UNL     1       7.601  -5.323  25.973  0.00  0.00    +0.121 C 
BRANCH  24  25
ATOM     25  C   UNL     1       9.082  -5.085  25.830  0.00  0.00    +0.305 C 
ATOM     26  O   UNL     1       9.715  -5.157  24.789  0.00  0.00    -0.251 OA
BRANCH  25  27
ATOM     27  O   UNL     1       9.664  -4.772  27.010  0.00  0.00    -0.481 OA
ATOM     28  H   UNL     1      10.566  -5.130  27.111  0.00  0.00    +0.295 HD
ENDBRANCH  25  27
ENDBRANCH  24  25
ENDBRANCH  23  24
ENDBRANCH  22  23
ENDBRANCH  21  22
ENDBRANCH  19  20
ENDBRANCH   2  19
TORSDOF 15
ENDMDL
MODEL 5
REMARK VINA RESULT:      -5.9      5.395      7.912
REMARK  Name = 
REMARK  16 active torsions:
REMARK  status: ('A' for Active; 'I' for Inactive)
REMARK    1  A    between atoms: C_2  and  C_3
REMARK    2  A    between atoms: C_2  and  O_8
REMARK    3  A    between atoms: C_2  and  C_10
REMARK    4  A    between atoms: C_3  and  C_4
REMARK    5  A    between atoms: C_4  and  C_5
REMARK    6  A    between atoms: C_5  and  C_6
REMARK    7  A    between atoms: C_6  and  C_7
REMARK    8  A    between atoms: O_8  and  O_9
REMARK    9  A    between atoms: C_11  and  C_12
REMARK   10  A    between atoms: C_21  and  C_23
REMARK   11  A    between atoms: C_23  and  C_24
REMARK   12  A    between atoms: C_25  and  C_26
REMARK   13  A    between atoms: C_26  and  C_27
REMARK   14  A    between atoms: C_27  and  C_28
REMARK   15  A    between atoms: C_28  and  C_29
REMARK   16  A    between atoms: C_29  and  O_30
REMARK                            x       y       z     vdW  Elec       q    Type
REMARK                         _______ _______ _______ _____ _____    ______ ____
ROOT
ATOM      1  C   UNL     1       5.819  -4.259  23.061  0.00  0.00    +0.049 C 
ATOM      2  C   UNL     1       5.474  -5.770  23.207  0.00  0.00    +0.034 C 
ATOM      3  C   UNL     1       6.291  -6.390  22.053  0.00  0.00    +0.163 C 
ATOM      4  O   UNL     1       5.685  -6.002  20.808  0.00  0.00    -0.231 OA
ATOM      5  O   UNL     1       6.012  -4.560  20.695  0.00  0.00    -0.230 OA
ATOM      6  C   UNL     1       7.568  -5.592  22.019  0.00  0.00    +0.070 C 
ATOM      7  C   UNL     1       6.805  -4.296  21.873  0.00  0.00    +0.166 C 
ENDROOT
BRANCH   1   9
ATOM      8  C   UNL     1       6.956  -4.367  25.346  0.00  0.00    +0.003 C 
ATOM      9  C   UNL     1       6.328  -3.689  24.370  0.00  0.00    -0.022 C 
BRANCH   8  10
ATOM     10  C   UNL     1       7.435  -3.788  26.652  0.00  0.00    +0.179 C 
BRANCH  10  11
ATOM     11  O   UNL     1       7.744  -4.919  27.485  0.00  0.00    -0.230 OA
BRANCH  11  12
ATOM     12  O   UNL     1       8.108  -6.013  26.596  0.00  0.00    -0.250 OA
ATOM     13  H   UNL     1       8.841  -6.351  27.144  0.00  0.00    +0.253 HD
ENDBRANCH  11  12
ENDBRANCH  10  11
BRANCH  10  14
ATOM     14  C   UNL     1       8.696  -2.934  26.456  0.00  0.00    +0.039 C 
BRANCH  14  15
ATOM     15  C   UNL     1       8.397  -1.436  26.353  0.00  0.00    +0.003 C 
BRANCH  15  16
ATOM     16  C   UNL     1       9.309  -0.766  25.330  0.00  0.00    -0.000 C 
BRANCH  16  17
ATOM     17  C   UNL     1       9.543  -1.668  24.121  0.00  0.00    -0.003 C 
ATOM     18  C   UNL     1       8.681  -1.238  22.946  0.00  0.00    +0.004 C 
ENDBRANCH  16  17
ENDBRANCH  15  16
ENDBRANCH  14  15
ENDBRANCH  10  14
ENDBRANCH   8  10
ENDBRANCH   1   9
BRANCH   2  19
ATOM     19  C   UNL     1       3.969  -6.037  23.100  0.00  0.00    +0.033 C 
BRANCH  19  20
ATOM     20  C   UNL     1       3.150  -4.907  23.670  0.00  0.00    -0.031 C 
ATOM     21  C   UNL     1       2.647  -4.832  24.911  0.00  0.00    -0.031 C 
BRANCH  21  22
ATOM     22  C   UNL     1       2.807  -5.876  25.975  0.00  0.00    +0.027 C 
BRANCH  22  23
ATOM     23  C   UNL     1       3.888  -5.530  26.997  0.00  0.00    +0.015 C 
BRANCH  23  24
ATOM     24  C   UNL     1       4.755  -6.756  27.260  0.00  0.00    +0.121 C 
BRANCH  24  25
ATOM     25  C   UNL     1       5.141  -6.900  28.709  0.00  0.00    +0.305 C 
ATOM     26  O   UNL     1       4.386  -6.779  29.661  0.00  0.00    -0.251 OA
BRANCH  25  27
ATOM     27  O   UNL     1       6.455  -7.185  28.861  0.00  0.00    -0.481 OA
ATOM     28  H   UNL     1       7.050  -6.534  28.443  0.00  0.00    +0.295 HD
ENDBRANCH  25  27
ENDBRANCH  24  25
ENDBRANCH  23  24
ENDBRANCH  22  23
ENDBRANCH  21  22
ENDBRANCH  19  20
ENDBRANCH   2  19
TORSDOF 15
ENDMDL
MODEL 6
REMARK VINA RESULT:      -5.9      3.533      7.080
REMARK  Name = 
REMARK  16 active torsions:
REMARK  status: ('A' for Active; 'I' for Inactive)
REMARK    1  A    between atoms: C_2  and  C_3
REMARK    2  A    between atoms: C_2  and  O_8
REMARK    3  A    between atoms: C_2  and  C_10
REMARK    4  A    between atoms: C_3  and  C_4
REMARK    5  A    between atoms: C_4  and  C_5
REMARK    6  A    between atoms: C_5  and  C_6
REMARK    7  A    between atoms: C_6  and  C_7
REMARK    8  A    between atoms: O_8  and  O_9
REMARK    9  A    between atoms: C_11  and  C_12
REMARK   10  A    between atoms: C_21  and  C_23
REMARK   11  A    between atoms: C_23  and  C_24
REMARK   12  A    between atoms: C_25  and  C_26
REMARK   13  A    between atoms: C_26  and  C_27
REMARK   14  A    between atoms: C_27  and  C_28
REMARK   15  A    between atoms: C_28  and  C_29
REMARK   16  A    between atoms: C_29  and  O_30
REMARK                            x       y       z     vdW  Elec       q    Type
REMARK                         _______ _______ _______ _____ _____    ______ ____
ROOT
ATOM      1  C   UNL     1       9.440  -1.136  24.126  0.00  0.00    +0.049 C 
ATOM      2  C   UNL     1       8.139  -0.349  23.790  0.00  0.00    +0.034 C 
ATOM      3  C   UNL     1       8.678   0.770  22.873  0.00  0.00    +0.163 C 
ATOM      4  O   UNL     1       9.451   1.680  23.673  0.00  0.00    -0.231 OA
ATOM      5  O   UNL     1      10.677   0.909  23.994  0.00  0.00    -0.230 OA
ATOM      6  C   UNL     1       9.757   0.106  22.057  0.00  0.00    +0.070 C 
ATOM      7  C   UNL     1      10.481  -0.345  23.304  0.00  0.00    +0.166 C 
ENDROOT
BRANCH   1   9
ATOM      8  C   UNL     1       8.909  -3.574  24.674  0.00  0.00    +0.003 C 
ATOM      9  C   UNL     1       9.279  -2.610  23.813  0.00  0.00    -0.022 C 
BRANCH   8  10
ATOM     10  C   UNL     1       8.776  -5.040  24.350  0.00  0.00    +0.179 C 
BRANCH  10  11
ATOM     11  O   UNL     1       9.078  -5.733  25.573  0.00  0.00    -0.230 OA
BRANCH  11  12
ATOM     12  O   UNL     1      10.487  -5.498  25.857  0.00  0.00    -0.250 OA
ATOM     13  H   UNL     1      10.831  -6.062  25.139  0.00  0.00    +0.253 HD
ENDBRANCH  11  12
ENDBRANCH  10  11
BRANCH  10  14
ATOM     14  C   UNL     1       7.350  -5.385  23.900  0.00  0.00    +0.039 C 
BRANCH  14  15
ATOM     15  C   UNL     1       7.251  -5.706  22.407  0.00  0.00    +0.003 C 
BRANCH  15  16
ATOM     16  C   UNL     1       5.915  -5.240  21.835  0.00  0.00    -0.000 C 
BRANCH  16  17
ATOM     17  C   UNL     1       6.002  -3.804  21.324  0.00  0.00    -0.003 C 
ATOM     18  C   UNL     1       5.723  -2.811  22.440  0.00  0.00    +0.004 C 
ENDBRANCH  16  17
ENDBRANCH  15  16
ENDBRANCH  14  15
ENDBRANCH  10  14
ENDBRANCH   8  10
ENDBRANCH   1   9
BRANCH   2  19
ATOM     19  C   UNL     1       7.436   0.178  25.046  0.00  0.00    +0.033 C 
BRANCH  19  20
ATOM     20  C   UNL     1       5.966  -0.155  25.056  0.00  0.00    -0.031 C 
ATOM     21  C   UNL     1       5.385  -1.185  25.690  0.00  0.00    -0.031 C 
BRANCH  21  22
ATOM     22  C   UNL     1       6.102  -2.210  26.515  0.00  0.00    +0.027 C 
BRANCH  22  23
ATOM     23  C   UNL     1       5.462  -3.594  26.441  0.00  0.00    +0.015 C 
BRANCH  23  24
ATOM     24  C   UNL     1       5.794  -4.381  27.704  0.00  0.00    +0.121 C 
BRANCH  24  25
ATOM     25  C   UNL     1       6.279  -5.777  27.413  0.00  0.00    +0.305 C 
ATOM     26  O   UNL     1       5.641  -6.646  26.840  0.00  0.00    -0.251 OA
BRANCH  25  27
ATOM     27  O   UNL     1       7.537  -5.984  27.867  0.00  0.00    -0.481 OA
ATOM     28  H   UNL     1       7.607  -5.999  28.840  0.00  0.00    +0.295 HD
ENDBRANCH  25  27
ENDBRANCH  24  25
ENDBRANCH  23  24
ENDBRANCH  22  23
ENDBRANCH  21  22
ENDBRANCH  19  20
ENDBRANCH   2  19
TORSDOF 15
ENDMDL
MODEL 7
REMARK VINA RESULT:      -5.8      4.313      6.284
REMARK  Name = 
REMARK  16 active torsions:
REMARK  status: ('A' for Active; 'I' for Inactive)
REMARK    1  A    between atoms: C_2  and  C_3
REMARK    2  A    between atoms: C_2  and  O_8
REMARK    3  A    between atoms: C_2  and  C_10
REMARK    4  A    between atoms: C_3  and  C_4
REMARK    5  A    between atoms: C_4  and  C_5
REMARK    6  A    between atoms: C_5  and  C_6
REMARK    7  A    between atoms: C_6  and  C_7
REMARK    8  A    between atoms: O_8  and  O_9
REMARK    9  A    between atoms: C_11  and  C_12
REMARK   10  A    between atoms: C_21  and  C_23
REMARK   11  A    between atoms: C_23  and  C_24
REMARK   12  A    between atoms: C_25  and  C_26
REMARK   13  A    between atoms: C_26  and  C_27
REMARK   14  A    between atoms: C_27  and  C_28
REMARK   15  A    between atoms: C_28  and  C_29
REMARK   16  A    between atoms: C_29  and  O_30
REMARK                            x       y       z     vdW  Elec       q    Type
REMARK                         _______ _______ _______ _____ _____    ______ ____
ROOT
ATOM      1  C   UNL     1       6.014  -3.808  23.656  0.00  0.00    +0.049 C 
ATOM      2  C   UNL     1       7.449  -4.160  23.165  0.00  0.00    +0.034 C 
ATOM      3  C   UNL     1       7.152  -4.965  21.882  0.00  0.00    +0.163 C 
ATOM      4  O   UNL     1       6.582  -6.230  22.261  0.00  0.00    -0.231 OA
ATOM      5  O   UNL     1       5.224  -5.872  22.738  0.00  0.00    -0.230 OA
ATOM      6  C   UNL     1       5.959  -4.278  21.269  0.00  0.00    +0.070 C 
ATOM      7  C   UNL     1       5.158  -4.443  22.539  0.00  0.00    +0.166 C 
ENDROOT
BRANCH   1   9
ATOM      8  C   UNL     1       6.699  -1.356  23.445  0.00  0.00    +0.003 C 
ATOM      9  C   UNL     1       5.867  -2.317  23.883  0.00  0.00    -0.022 C 
BRANCH   8  10
ATOM     10  C   UNL     1       6.550   0.122  23.700  0.00  0.00    +0.179 C 
BRANCH  10  11
ATOM     11  O   UNL     1       5.509   0.238  24.686  0.00  0.00    -0.230 OA
BRANCH  11  12
ATOM     12  O   UNL     1       4.780   1.463  24.389  0.00  0.00    -0.250 OA
ATOM     13  H   UNL     1       4.163   1.063  23.748  0.00  0.00    +0.253 HD
ENDBRANCH  11  12
ENDBRANCH  10  11
BRANCH  10  14
ATOM     14  C   UNL     1       7.849   0.728  24.247  0.00  0.00    +0.039 C 
BRANCH  14  15
ATOM     15  C   UNL     1       8.645  -0.243  25.122  0.00  0.00    +0.003 C 
BRANCH  15  16
ATOM     16  C   UNL     1      10.123  -0.233  24.745  0.00  0.00    -0.000 C 
BRANCH  16  17
ATOM     17  C   UNL     1      10.309  -0.207  23.230  0.00  0.00    -0.003 C 
ATOM     18  C   UNL     1      10.312  -1.614  22.657  0.00  0.00    +0.004 C 
ENDBRANCH  16  17
ENDBRANCH  15  16
ENDBRANCH  14  15
ENDBRANCH  10  14
ENDBRANCH   8  10
ENDBRANCH   1   9
BRANCH   2  19
ATOM     19  C   UNL     1       8.245  -4.950  24.209  0.00  0.00    +0.033 C 
BRANCH  19  20
ATOM     20  C   UNL     1       8.995  -4.045  25.155  0.00  0.00    -0.031 C 
ATOM     21  C   UNL     1       8.555  -3.584  26.335  0.00  0.00    -0.031 C 
BRANCH  21  22
ATOM     22  C   UNL     1       7.217  -3.887  26.940  0.00  0.00    +0.027 C 
BRANCH  22  23
ATOM     23  C   UNL     1       7.058  -5.352  27.342  0.00  0.00    +0.015 C 
BRANCH  23  24
ATOM     24  C   UNL     1       5.726  -5.883  26.825  0.00  0.00    +0.121 C 
BRANCH  24  25
ATOM     25  C   UNL     1       5.123  -6.928  27.728  0.00  0.00    +0.305 C 
ATOM     26  O   UNL     1       5.691  -7.475  28.660  0.00  0.00    -0.251 OA
BRANCH  25  27
ATOM     27  O   UNL     1       3.844  -7.214  27.393  0.00  0.00    -0.481 OA
ATOM     28  H   UNL     1       3.692  -8.156  27.188  0.00  0.00    +0.295 HD
ENDBRANCH  25  27
ENDBRANCH  24  25
ENDBRANCH  23  24
ENDBRANCH  22  23
ENDBRANCH  21  22
ENDBRANCH  19  20
ENDBRANCH   2  19
TORSDOF 15
ENDMDL
MODEL 8
REMARK VINA RESULT:      -5.8      2.624      4.066
REMARK  Name = 
REMARK  16 active torsions:
REMARK  status: ('A' for Active; 'I' for Inactive)
REMARK    1  A    between atoms: C_2  and  C_3
REMARK    2  A    between atoms: C_2  and  O_8
REMARK    3  A    between atoms: C_2  and  C_10
REMARK    4  A    between atoms: C_3  and  C_4
REMARK    5  A    between atoms: C_4  and  C_5
REMARK    6  A    between atoms: C_5  and  C_6
REMARK    7  A    between atoms: C_6  and  C_7
REMARK    8  A    between atoms: O_8  and  O_9
REMARK    9  A    between atoms: C_11  and  C_12
REMARK   10  A    between atoms: C_21  and  C_23
REMARK   11  A    between atoms: C_23  and  C_24
REMARK   12  A    between atoms: C_25  and  C_26
REMARK   13  A    between atoms: C_26  and  C_27
REMARK   14  A    between atoms: C_27  and  C_28
REMARK   15  A    between atoms: C_28  and  C_29
REMARK   16  A    between atoms: C_29  and  O_30
REMARK                            x       y       z     vdW  Elec       q    Type
REMARK                         _______ _______ _______ _____ _____    ______ ____
ROOT
ATOM      1  C   UNL     1       8.644  -0.411  22.224  0.00  0.00    +0.049 C 
ATOM      2  C   UNL     1       8.120  -1.005  23.565  0.00  0.00    +0.034 C 
ATOM      3  C   UNL     1       9.438  -1.309  24.309  0.00  0.00    +0.163 C 
ATOM      4  O   UNL     1      10.084  -2.415  23.654  0.00  0.00    -0.231 OA
ATOM      5  O   UNL     1      10.562  -1.833  22.377  0.00  0.00    -0.230 OA
ATOM      6  C   UNL     1      10.355  -0.172  23.938  0.00  0.00    +0.070 C 
ATOM      7  C   UNL     1      10.168  -0.446  22.464  0.00  0.00    +0.166 C 
ENDROOT
BRANCH   1   9
ATOM      8  C   UNL     1       7.005   1.507  22.630  0.00  0.00    +0.003 C 
ATOM      9  C   UNL     1       8.014   0.938  21.946  0.00  0.00    -0.022 C 
BRANCH   8  10
ATOM     10  C   UNL     1       6.375   2.841  22.324  0.00  0.00    +0.179 C 
BRANCH  10  11
ATOM     11  O   UNL     1       5.115   2.840  23.016  0.00  0.00    -0.230 OA
BRANCH  11  12
ATOM     12  O   UNL     1       5.087   1.642  23.843  0.00  0.00    -0.250 OA
ATOM     13  H   UNL     1       5.466   1.044  23.172  0.00  0.00    +0.253 HD
ENDBRANCH  11  12
ENDBRANCH  10  11
BRANCH  10  14
ATOM     14  C   UNL     1       7.243   3.999  22.836  0.00  0.00    +0.039 C 
BRANCH  14  15
ATOM     15  C   UNL     1       7.781   3.768  24.250  0.00  0.00    +0.003 C 
BRANCH  15  16
ATOM     16  C   UNL     1       9.213   4.276  24.380  0.00  0.00    -0.000 C 
BRANCH  16  17
ATOM     17  C   UNL     1      10.174   3.449  23.529  0.00  0.00    -0.003 C 
ATOM     18  C   UNL     1      11.515   4.149  23.384  0.00  0.00    +0.004 C 
ENDBRANCH  16  17
ENDBRANCH  15  16
ENDBRANCH  14  15
ENDBRANCH  10  14
ENDBRANCH   8  10
ENDBRANCH   1   9
BRANCH   2  19
ATOM     19  C   UNL     1       7.242  -2.243  23.350  0.00  0.00    +0.033 C 
BRANCH  19  20
ATOM     20  C   UNL     1       5.965  -2.179  24.150  0.00  0.00    -0.031 C 
ATOM     21  C   UNL     1       5.784  -2.629  25.401  0.00  0.00    -0.031 C 
BRANCH  21  22
ATOM     22  C   UNL     1       6.831  -3.290  26.245  0.00  0.00    +0.027 C 
BRANCH  22  23
ATOM     23  C   UNL     1       6.844  -4.810  26.103  0.00  0.00    +0.015 C 
BRANCH  23  24
ATOM     24  C   UNL     1       8.274  -5.325  26.233  0.00  0.00    +0.121 C 
BRANCH  24  25
ATOM     25  C   UNL     1       9.015  -5.330  24.921  0.00  0.00    +0.305 C 
ATOM     26  O   UNL     1       8.513  -5.500  23.822  0.00  0.00    -0.251 OA
BRANCH  25  27
ATOM     27  O   UNL     1      10.342  -5.120  25.085  0.00  0.00    -0.481 OA
ATOM     28  H   UNL     1      10.720  -4.481  24.452  0.00  0.00    +0.295 HD
ENDBRANCH  25  27
ENDBRANCH  24  25
ENDBRANCH  23  24
ENDBRANCH  22  23
ENDBRANCH  21  22
ENDBRANCH  19  20
ENDBRANCH   2  19
TORSDOF 15
ENDMDL
MODEL 9
REMARK VINA RESULT:      -5.8      2.267      8.834
REMARK  Name = 
REMARK  16 active torsions:
REMARK  status: ('A' for Active; 'I' for Inactive)
REMARK    1  A    between atoms: C_2  and  C_3
REMARK    2  A    between atoms: C_2  and  O_8
REMARK    3  A    between atoms: C_2  and  C_10
REMARK    4  A    between atoms: C_3  and  C_4
REMARK    5  A    between atoms: C_4  and  C_5
REMARK    6  A    between atoms: C_5  and  C_6
REMARK    7  A    between atoms: C_6  and  C_7
REMARK    8  A    between atoms: O_8  and  O_9
REMARK    9  A    between atoms: C_11  and  C_12
REMARK   10  A    between atoms: C_21  and  C_23
REMARK   11  A    between atoms: C_23  and  C_24
REMARK   12  A    between atoms: C_25  and  C_26
REMARK   13  A    between atoms: C_26  and  C_27
REMARK   14  A    between atoms: C_27  and  C_28
REMARK   15  A    between atoms: C_28  and  C_29
REMARK   16  A    between atoms: C_29  and  O_30
REMARK                            x       y       z     vdW  Elec       q    Type
REMARK                         _______ _______ _______ _____ _____    ______ ____
ROOT
ATOM      1  C   UNL     1       9.414  -1.908  24.309  0.00  0.00    +0.049 C 
ATOM      2  C   UNL     1       8.709  -0.530  24.142  0.00  0.00    +0.034 C 
ATOM      3  C   UNL     1       8.695  -0.369  22.607  0.00  0.00    +0.163 C 
ATOM      4  O   UNL     1      10.043  -0.139  22.162  0.00  0.00    -0.231 OA
ATOM      5  O   UNL     1      10.700  -1.457  22.342  0.00  0.00    -0.230 OA
ATOM      6  C   UNL     1       8.445  -1.759  22.082  0.00  0.00    +0.070 C 
ATOM      7  C   UNL     1       9.638  -2.303  22.834  0.00  0.00    +0.166 C 
ENDROOT
BRANCH   1   9
ATOM      8  C   UNL     1       8.350  -4.147  24.926  0.00  0.00    +0.003 C 
ATOM      9  C   UNL     1       8.583  -2.844  25.163  0.00  0.00    -0.022 C 
BRANCH   8  10
ATOM     10  C   UNL     1       7.501  -5.058  25.775  0.00  0.00    +0.179 C 
BRANCH  10  11
ATOM     11  O   UNL     1       7.983  -4.890  27.120  0.00  0.00    -0.230 OA
BRANCH  11  12
ATOM     12  O   UNL     1       7.564  -6.065  27.870  0.00  0.00    -0.250 OA
ATOM     13  H   UNL     1       6.815  -6.296  27.290  0.00  0.00    +0.253 HD
ENDBRANCH  11  12
ENDBRANCH  10  11
BRANCH  10  14
ATOM     14  C   UNL     1       6.019  -4.664  25.706  0.00  0.00    +0.039 C 
BRANCH  14  15
ATOM     15  C   UNL     1       5.128  -5.773  25.141  0.00  0.00    +0.003 C 
BRANCH  15  16
ATOM     16  C   UNL     1       5.383  -5.972  23.650  0.00  0.00    -0.000 C 
BRANCH  16  17
ATOM     17  C   UNL     1       5.276  -4.653  22.889  0.00  0.00    -0.003 C 
ATOM     18  C   UNL     1       6.168  -4.660  21.658  0.00  0.00    +0.004 C 
ENDBRANCH  16  17
ENDBRANCH  15  16
ENDBRANCH  14  15
ENDBRANCH  10  14
ENDBRANCH   8  10
ENDBRANCH   1   9
BRANCH   2  19
ATOM     19  C   UNL     1       9.455   0.597  24.866  0.00  0.00    +0.033 C 
BRANCH  19  20
ATOM     20  C   UNL     1       8.582   1.808  25.080  0.00  0.00    -0.031 C 
ATOM     21  C   UNL     1       8.586   2.934  24.350  0.00  0.00    -0.031 C 
BRANCH  21  22
ATOM     22  C   UNL     1       9.471   3.199  23.171  0.00  0.00    +0.027 C 
BRANCH  22  23
ATOM     23  C   UNL     1      10.909   3.534  23.563  0.00  0.00    +0.015 C 
BRANCH  23  24
ATOM     24  C   UNL     1      11.051   5.040  23.753  0.00  0.00    +0.121 C 
BRANCH  24  25
ATOM     25  C   UNL     1      12.461   5.525  23.543  0.00  0.00    +0.305 C 
ATOM     26  O   UNL     1      13.175   5.245  22.593  0.00  0.00    -0.251 OA
BRANCH  25  27
ATOM     27  O   UNL     1      12.877   6.332  24.547  0.00  0.00    -0.481 OA
ATOM     28  H   UNL     1      13.811   6.605  24.471  0.00  0.00    +0.295 HD
ENDBRANCH  25  27
ENDBRANCH  24  25
ENDBRANCH  23  24
ENDBRANCH  22  23
ENDBRANCH  21  22
ENDBRANCH  19  20
ENDBRANCH   2  19
TORSDOF 15
ENDMDL
