MODEL 1
REMARK VINA RESULT:      -5.5      0.000      0.000
REMARK  Name = 
REMARK  6 active torsions:
REMARK  status: ('A' for Active; 'I' for Inactive)
REMARK    1  A    between atoms: C_1  and  O_2
REMARK    2  A    between atoms: O_2  and  C_3
REMARK    3  A    between atoms: C_8  and  C_9
REMARK    4  A    between atoms: C_10  and  C_11
REMARK    5  A    between atoms: C_11  and  C_13
REMARK    6  A    between atoms: C_13  and  O_14
REMARK                            x       y       z     vdW  Elec       q    Type
REMARK                         _______ _______ _______ _____ _____    ______ ____
ROOT
ATOM      1  C   UNL     1       9.803   0.052  24.254  0.00  0.00    +0.127 A 
ATOM      2  C   UNL     1       9.789  -1.040  23.361  0.00  0.00    +0.017 A 
ATOM      3  C   UNL     1       9.707  -0.777  21.982  0.00  0.00    +0.011 A 
ATOM      4  C   UNL     1       9.674   0.533  21.498  0.00  0.00    +0.001 A 
ATOM      5  C   UNL     1       9.734   1.601  22.385  0.00  0.00    +0.004 A 
ATOM      6  C   UNL     1       9.809   1.362  23.756  0.00  0.00    +0.046 A 
ENDROOT
BRANCH   1   8
ATOM      7  C   UNL     1       8.567  -0.166  26.261  0.00  0.00    +0.277 C 
ATOM      8  O   UNL     1       9.829  -0.220  25.601  0.00  0.00    -0.495 OA
ENDBRANCH   1   8
BRANCH   2   9
ATOM      9  C   UNL     1       9.740  -2.457  23.779  0.00  0.00    +0.015 C 
ATOM     10  C   UNL     1       8.613  -3.171  23.921  0.00  0.00    +0.059 C 
BRANCH  10  11
ATOM     11  C   UNL     1       8.679  -4.616  24.253  0.00  0.00    +0.262 C 
ATOM     12  O   UNL     1       8.239  -5.520  23.548  0.00  0.00    -0.280 OA
BRANCH  11  13
ATOM     13  C   UNL     1       9.284  -5.004  25.604  0.00  0.00    +0.377 C 
ATOM     14  O   UNL     1       8.714  -4.875  26.668  0.00  0.00    -0.241 OA
BRANCH  13  15
ATOM     15  O   UNL     1      10.522  -5.513  25.435  0.00  0.00    -0.475 OA
ATOM     16  H   UNL     1      10.780  -5.423  24.487  0.00  0.00    +0.296 HD
ENDBRANCH  13  15
ENDBRANCH  11  13
ENDBRANCH  10  11
ENDBRANCH   2   9
TORSDOF 5
ENDMDL
MODEL 2
REMARK VINA RESULT:      -5.3      3.490      6.950
REMARK  Name = 
REMARK  6 active torsions:
REMARK  status: ('A' for Active; 'I' for Inactive)
REMARK    1  A    between atoms: C_1  and  O_2
REMARK    2  A    between atoms: O_2  and  C_3
REMARK    3  A    between atoms: C_8  and  C_9
REMARK    4  A    between atoms: C_10  and  C_11
REMARK    5  A    between atoms: C_11  and  C_13
REMARK    6  A    between atoms: C_13  and  O_14
REMARK                            x       y       z     vdW  Elec       q    Type
REMARK                         _______ _______ _______ _____ _____    ______ ____
ROOT
ATOM      1  C   UNL     1       9.840   0.019  24.091  0.00  0.00    +0.127 A 
ATOM      2  C   UNL     1       9.983   1.181  23.302  0.00  0.00    +0.017 A 
ATOM      3  C   UNL     1       9.843   1.066  21.908  0.00  0.00    +0.011 A 
ATOM      4  C   UNL     1       9.535  -0.159  21.312  0.00  0.00    +0.001 A 
ATOM      5  C   UNL     1       9.352  -1.288  22.102  0.00  0.00    +0.004 A 
ATOM      6  C   UNL     1       9.493  -1.197  23.487  0.00  0.00    +0.046 A 
ENDROOT
BRANCH   1   8
ATOM      7  C   UNL     1       9.089  -0.559  26.259  0.00  0.00    +0.277 C 
ATOM      8  O   UNL     1      10.032   0.135  25.447  0.00  0.00    -0.495 OA
ENDBRANCH   1   8
BRANCH   2   9
ATOM      9  C   UNL     1      10.385   2.502  23.831  0.00  0.00    +0.015 C 
ATOM     10  C   UNL     1      10.914   3.489  23.093  0.00  0.00    +0.059 C 
BRANCH  10  11
ATOM     11  C   UNL     1      11.195   4.812  23.704  0.00  0.00    +0.262 C 
ATOM     12  O   UNL     1      10.355   5.533  24.236  0.00  0.00    -0.280 OA
BRANCH  11  13
ATOM     13  C   UNL     1      12.626   5.346  23.607  0.00  0.00    +0.377 C 
ATOM     14  O   UNL     1      13.419   5.018  22.748  0.00  0.00    -0.241 OA
BRANCH  13  15
ATOM     15  O   UNL     1      12.865   6.229  24.598  0.00  0.00    -0.475 OA
ATOM     16  H   UNL     1      12.332   7.044  24.438  0.00  0.00    +0.296 HD
ENDBRANCH  13  15
ENDBRANCH  11  13
ENDBRANCH  10  11
ENDBRANCH   2   9
TORSDOF 5
ENDMDL
MODEL 3
REMARK VINA RESULT:      -5.3      1.947      2.538
REMARK  Name = 
REMARK  6 active torsions:
REMARK  status: ('A' for Active; 'I' for Inactive)
REMARK    1  A    between atoms: C_1  and  O_2
REMARK    2  A    between atoms: O_2  and  C_3
REMARK    3  A    between atoms: C_8  and  C_9
REMARK    4  A    between atoms: C_10  and  C_11
REMARK    5  A    between atoms: C_11  and  C_13
REMARK    6  A    between atoms: C_13  and  O_14
REMARK                            x       y       z     vdW  Elec       q    Type
REMARK                         _______ _______ _______ _____ _____    ______ ____
ROOT
ATOM      1  C   UNL     1       9.686  -0.445  23.882  0.00  0.00    +0.127 A 
ATOM      2  C   UNL     1       9.217  -0.710  22.578  0.00  0.00    +0.017 A 
ATOM      3  C   UNL     1       9.301   0.311  21.615  0.00  0.00    +0.011 A 
ATOM      4  C   UNL     1       9.867   1.551  21.924  0.00  0.00    +0.001 A 
ATOM      5  C   UNL     1      10.368   1.785  23.200  0.00  0.00    +0.004 A 
ATOM      6  C   UNL     1      10.287   0.788  24.171  0.00  0.00    +0.046 A 
ENDROOT
BRANCH   1   8
ATOM      7  C   UNL     1       8.708  -1.108  25.933  0.00  0.00    +0.277 C 
ATOM      8  O   UNL     1       9.549  -1.432  24.828  0.00  0.00    -0.495 OA
ENDBRANCH   1   8
BRANCH   2   9
ATOM      9  C   UNL     1       8.532  -1.957  22.177  0.00  0.00    +0.015 C 
ATOM     10  C   UNL     1       7.287  -2.295  22.546  0.00  0.00    +0.059 C 
BRANCH  10  11
ATOM     11  C   UNL     1       6.655  -3.526  22.010  0.00  0.00    +0.262 C 
ATOM     12  O   UNL     1       5.654  -3.550  21.299  0.00  0.00    -0.280 OA
BRANCH  11  13
ATOM     13  C   UNL     1       7.260  -4.869  22.426  0.00  0.00    +0.377 C 
ATOM     14  O   UNL     1       7.776  -5.080  23.504  0.00  0.00    -0.241 OA
BRANCH  13  15
ATOM     15  O   UNL     1       7.126  -5.772  21.432  0.00  0.00    -0.475 OA
ATOM     16  H   UNL     1       6.166  -5.901  21.243  0.00  0.00    +0.296 HD
ENDBRANCH  13  15
ENDBRANCH  11  13
ENDBRANCH  10  11
ENDBRANCH   2   9
TORSDOF 5
ENDMDL
MODEL 4
REMARK VINA RESULT:      -5.2      1.703      1.784
REMARK  Name = 
REMARK  6 active torsions:
REMARK  status: ('A' for Active; 'I' for Inactive)
REMARK    1  A    between atoms: C_1  and  O_2
REMARK    2  A    between atoms: O_2  and  C_3
REMARK    3  A    between atoms: C_8  and  C_9
REMARK    4  A    between atoms: C_10  and  C_11
REMARK    5  A    between atoms: C_11  and  C_13
REMARK    6  A    between atoms: C_13  and  O_14
REMARK                            x       y       z     vdW  Elec       q    Type
REMARK                         _______ _______ _______ _____ _____    ______ ____
ROOT
ATOM      1  C   UNL     1       7.380  -0.309  22.965  0.00  0.00    +0.127 A 
ATOM      2  C   UNL     1       8.373  -1.243  22.599  0.00  0.00    +0.017 A 
ATOM      3  C   UNL     1       9.487  -0.787  21.874  0.00  0.00    +0.011 A 
ATOM      4  C   UNL     1       9.633   0.564  21.549  0.00  0.00    +0.001 A 
ATOM      5  C   UNL     1       8.672   1.482  21.954  0.00  0.00    +0.004 A 
ATOM      6  C   UNL     1       7.555   1.049  22.668  0.00  0.00    +0.046 A 
ENDROOT
BRANCH   1   8
ATOM      7  C   UNL     1       6.124  -0.326  24.971  0.00  0.00    +0.277 C 
ATOM      8  O   UNL     1       6.270  -0.777  23.626  0.00  0.00    -0.495 OA
ENDBRANCH   1   8
BRANCH   2   9
ATOM      9  C   UNL     1       8.269  -2.700  22.827  0.00  0.00    +0.015 C 
ATOM     10  C   UNL     1       8.621  -3.321  23.962  0.00  0.00    +0.059 C 
BRANCH  10  11
ATOM     11  C   UNL     1       8.387  -4.778  24.123  0.00  0.00    +0.262 C 
ATOM     12  O   UNL     1       7.786  -5.486  23.319  0.00  0.00    -0.280 OA
BRANCH  11  13
ATOM     13  C   UNL     1       8.877  -5.434  25.416  0.00  0.00    +0.377 C 
ATOM     14  O   UNL     1       8.158  -5.712  26.354  0.00  0.00    -0.241 OA
BRANCH  13  15
ATOM     15  O   UNL     1      10.205  -5.662  25.352  0.00  0.00    -0.475 OA
ATOM     16  H   UNL     1      10.678  -4.798  25.302  0.00  0.00    +0.296 HD
ENDBRANCH  13  15
ENDBRANCH  11  13
ENDBRANCH  10  11
ENDBRANCH   2   9
TORSDOF 5
ENDMDL
MODEL 5
REMARK VINA RESULT:      -5.1      2.235      5.728
REMARK  Name = 
REMARK  6 active torsions:
REMARK  status: ('A' for Active; 'I' for Inactive)
REMARK    1  A    between atoms: C_1  and  O_2
REMARK    2  A    between atoms: O_2  and  C_3
REMARK    3  A    between atoms: C_8  and  C_9
REMARK    4  A    between atoms: C_10  and  C_11
REMARK    5  A    between atoms: C_11  and  C_13
REMARK    6  A    between atoms: C_13  and  O_14
REMARK                            x       y       z     vdW  Elec       q    Type
REMARK                         _______ _______ _______ _____ _____    ______ ____
ROOT
ATOM      1  C   UNL     1       8.579  -3.652  23.762  0.00  0.00    +0.127 A 
ATOM      2  C   UNL     1       8.320  -2.288  23.510  0.00  0.00    +0.017 A 
ATOM      3  C   UNL     1       7.180  -1.949  22.761  0.00  0.00    +0.011 A 
ATOM      4  C   UNL     1       6.299  -2.933  22.303  0.00  0.00    +0.001 A 
ATOM      5  C   UNL     1       6.540  -4.270  22.596  0.00  0.00    +0.004 A 
ATOM      6  C   UNL     1       7.670  -4.627  23.331  0.00  0.00    +0.046 A 
ENDROOT
BRANCH   1   8
ATOM      7  C   UNL     1       9.577  -4.973  25.453  0.00  0.00    +0.277 C 
ATOM      8  O   UNL     1       9.726  -3.973  24.449  0.00  0.00    -0.495 OA
ENDBRANCH   1   8
BRANCH   2   9
ATOM      9  C   UNL     1       9.231  -1.185  23.883  0.00  0.00    +0.015 C 
ATOM     10  C   UNL     1       9.571  -0.171  23.074  0.00  0.00    +0.059 C 
BRANCH  10  11
ATOM     11  C   UNL     1      10.418   0.938  23.579  0.00  0.00    +0.262 C 
ATOM     12  O   UNL     1      11.093   0.897  24.604  0.00  0.00    -0.280 OA
BRANCH  11  13
ATOM     13  C   UNL     1      10.399   2.254  22.797  0.00  0.00    +0.377 C 
ATOM     14  O   UNL     1      10.783   3.317  23.241  0.00  0.00    -0.241 OA
BRANCH  13  15
ATOM     15  O   UNL     1       9.910   2.054  21.556  0.00  0.00    -0.475 OA
ATOM     16  H   UNL     1       8.974   2.364  21.526  0.00  0.00    +0.296 HD
ENDBRANCH  13  15
ENDBRANCH  11  13
ENDBRANCH  10  11
ENDBRANCH   2   9
TORSDOF 5
ENDMDL
MODEL 6
REMARK VINA RESULT:      -5.1      2.257      5.943
REMARK  Name = 
REMARK  6 active torsions:
REMARK  status: ('A' for Active; 'I' for Inactive)
REMARK    1  A    between atoms: C_1  and  O_2
REMARK    2  A    between atoms: O_2  and  C_3
REMARK    3  A    between atoms: C_8  and  C_9
REMARK    4  A    between atoms: C_10  and  C_11
REMARK    5  A    between atoms: C_11  and  C_13
REMARK    6  A    between atoms: C_13  and  O_14
REMARK                            x       y       z     vdW  Elec       q    Type
REMARK                         _______ _______ _______ _____ _____    ______ ____
ROOT
ATOM      1  C   UNL     1       7.835  -3.962  23.735  0.00  0.00    +0.127 A 
ATOM      2  C   UNL     1       8.760  -3.174  24.452  0.00  0.00    +0.017 A 
ATOM      3  C   UNL     1       8.884  -3.381  25.837  0.00  0.00    +0.011 A 
ATOM      4  C   UNL     1       8.138  -4.366  26.490  0.00  0.00    +0.001 A 
ATOM      5  C   UNL     1       7.264  -5.167  25.765  0.00  0.00    +0.004 A 
ATOM      6  C   UNL     1       7.121  -4.974  24.392  0.00  0.00    +0.046 A 
ENDROOT
BRANCH   1   8
ATOM      7  C   UNL     1       6.338  -3.637  21.931  0.00  0.00    +0.277 C 
ATOM      8  O   UNL     1       7.685  -3.714  22.391  0.00  0.00    -0.495 OA
ENDBRANCH   1   8
BRANCH   2   9
ATOM      9  C   UNL     1       9.532  -2.058  23.868  0.00  0.00    +0.015 C 
ATOM     10  C   UNL     1       9.131  -0.778  23.855  0.00  0.00    +0.059 C 
BRANCH  10  11
ATOM     11  C   UNL     1      10.026   0.283  23.327  0.00  0.00    +0.262 C 
ATOM     12  O   UNL     1      10.905   0.846  23.974  0.00  0.00    -0.280 OA
BRANCH  11  13
ATOM     13  C   UNL     1       9.795   0.752  21.890  0.00  0.00    +0.377 C 
ATOM     14  O   UNL     1       9.311   0.061  21.016  0.00  0.00    -0.241 OA
BRANCH  13  15
ATOM     15  O   UNL     1      10.194   2.033  21.744  0.00  0.00    -0.475 OA
ATOM     16  H   UNL     1       9.404   2.597  21.566  0.00  0.00    +0.296 HD
ENDBRANCH  13  15
ENDBRANCH  11  13
ENDBRANCH  10  11
ENDBRANCH   2   9
TORSDOF 5
ENDMDL
MODEL 7
REMARK VINA RESULT:      -5.1      2.493      6.156
REMARK  Name = 
REMARK  6 active torsions:
REMARK  status: ('A' for Active; 'I' for Inactive)
REMARK    1  A    between atoms: C_1  and  O_2
REMARK    2  A    between atoms: O_2  and  C_3
REMARK    3  A    between atoms: C_8  and  C_9
REMARK    4  A    between atoms: C_10  and  C_11
REMARK    5  A    between atoms: C_11  and  C_13
REMARK    6  A    between atoms: C_13  and  O_14
REMARK                            x       y       z     vdW  Elec       q    Type
REMARK                         _______ _______ _______ _____ _____    ______ ____
ROOT
ATOM      1  C   UNL     1       9.640  -2.066  24.068  0.00  0.00    +0.127 A 
ATOM      2  C   UNL     1       9.423  -1.037  25.009  0.00  0.00    +0.017 A 
ATOM      3  C   UNL     1       8.700  -1.338  26.176  0.00  0.00    +0.011 A 
ATOM      4  C   UNL     1       8.235  -2.633  26.423  0.00  0.00    +0.001 A 
ATOM      5  C   UNL     1       8.495  -3.649  25.511  0.00  0.00    +0.004 A 
ATOM      6  C   UNL     1       9.204  -3.369  24.344  0.00  0.00    +0.046 A 
ENDROOT
BRANCH   1   8
ATOM      7  C   UNL     1       9.468  -1.483  21.781  0.00  0.00    +0.277 C 
ATOM      8  O   UNL     1      10.302  -1.746  22.906  0.00  0.00    -0.495 OA
ENDBRANCH   1   8
BRANCH   2   9
ATOM      9  C   UNL     1       9.804   0.376  24.801  0.00  0.00    +0.015 C 
ATOM     10  C   UNL     1       9.046   1.285  24.170  0.00  0.00    +0.059 C 
BRANCH  10  11
ATOM     11  C   UNL     1       9.480   2.703  24.099  0.00  0.00    +0.262 C 
ATOM     12  O   UNL     1       8.981   3.624  24.739  0.00  0.00    -0.280 OA
BRANCH  11  13
ATOM     13  C   UNL     1      10.592   3.052  23.107  0.00  0.00    +0.377 C 
ATOM     14  O   UNL     1      11.557   3.737  23.377  0.00  0.00    -0.241 OA
BRANCH  13  15
ATOM     15  O   UNL     1      10.347   2.482  21.909  0.00  0.00    -0.475 OA
ATOM     16  H   UNL     1      10.804   1.609  21.868  0.00  0.00    +0.296 HD
ENDBRANCH  13  15
ENDBRANCH  11  13
ENDBRANCH  10  11
ENDBRANCH   2   9
TORSDOF 5
ENDMDL
MODEL 8
REMARK VINA RESULT:      -5.0      2.430      3.321
REMARK  Name = 
REMARK  6 active torsions:
REMARK  status: ('A' for Active; 'I' for Inactive)
REMARK    1  A    between atoms: C_1  and  O_2
REMARK    2  A    between atoms: O_2  and  C_3
REMARK    3  A    between atoms: C_8  and  C_9
REMARK    4  A    between atoms: C_10  and  C_11
REMARK    5  A    between atoms: C_11  and  C_13
REMARK    6  A    between atoms: C_13  and  O_14
REMARK                            x       y       z     vdW  Elec       q    Type
REMARK                         _______ _______ _______ _____ _____    ______ ____
ROOT
ATOM      1  C   UNL     1       8.843  -1.315  24.273  0.00  0.00    +0.127 A 
ATOM      2  C   UNL     1       8.526  -1.983  23.071  0.00  0.00    +0.017 A 
ATOM      3  C   UNL     1       9.049  -1.480  21.867  0.00  0.00    +0.011 A 
ATOM      4  C   UNL     1       9.892  -0.366  21.856  0.00  0.00    +0.001 A 
ATOM      5  C   UNL     1      10.235   0.256  23.050  0.00  0.00    +0.004 A 
ATOM      6  C   UNL     1       9.721  -0.222  24.255  0.00  0.00    +0.046 A 
ENDROOT
BRANCH   1   8
ATOM      7  C   UNL     1       8.691  -1.114  26.626  0.00  0.00    +0.277 C 
ATOM      8  O   UNL     1       8.282  -1.784  25.437  0.00  0.00    -0.495 OA
ENDBRANCH   1   8
BRANCH   2   9
ATOM      9  C   UNL     1       7.582  -3.116  22.973  0.00  0.00    +0.015 C 
ATOM     10  C   UNL     1       6.490  -3.133  22.193  0.00  0.00    +0.059 C 
BRANCH  10  11
ATOM     11  C   UNL     1       5.659  -4.359  22.094  0.00  0.00    +0.262 C 
ATOM     12  O   UNL     1       4.537  -4.489  22.576  0.00  0.00    -0.280 OA
BRANCH  11  13
ATOM     13  C   UNL     1       6.273  -5.573  21.394  0.00  0.00    +0.377 C 
ATOM     14  O   UNL     1       6.913  -6.436  21.961  0.00  0.00    -0.241 OA
BRANCH  13  15
ATOM     15  O   UNL     1       5.992  -5.546  20.075  0.00  0.00    -0.475 OA
ATOM     16  H   UNL     1       5.119  -5.105  19.942  0.00  0.00    +0.296 HD
ENDBRANCH  13  15
ENDBRANCH  11  13
ENDBRANCH  10  11
ENDBRANCH   2   9
TORSDOF 5
ENDMDL
MODEL 9
REMARK VINA RESULT:      -4.9      1.661      1.935
REMARK  Name = 
REMARK  6 active torsions:
REMARK  status: ('A' for Active; 'I' for Inactive)
REMARK    1  A    between atoms: C_1  and  O_2
REMARK    2  A    between atoms: O_2  and  C_3
REMARK    3  A    between atoms: C_8  and  C_9
REMARK    4  A    between atoms: C_10  and  C_11
REMARK    5  A    between atoms: C_11  and  C_13
REMARK    6  A    between atoms: C_13  and  O_14
REMARK                            x       y       z     vdW  Elec       q    Type
REMARK                         _______ _______ _______ _____ _____    ______ ____
ROOT
ATOM      1  C   UNL     1       8.172   0.594  23.824  0.00  0.00    +0.127 A 
ATOM      2  C   UNL     1       9.017  -0.519  24.015  0.00  0.00    +0.017 A 
ATOM      3  C   UNL     1      10.387  -0.290  24.235  0.00  0.00    +0.011 A 
ATOM      4  C   UNL     1      10.901   1.008  24.300  0.00  0.00    +0.001 A 
ATOM      5  C   UNL     1      10.050   2.097  24.156  0.00  0.00    +0.004 A 
ATOM      6  C   UNL     1       8.690   1.892  23.929  0.00  0.00    +0.046 A 
ENDROOT
BRANCH   1   8
ATOM      7  C   UNL     1       5.923   1.219  24.215  0.00  0.00    +0.277 C 
ATOM      8  O   UNL     1       6.845   0.355  23.556  0.00  0.00    -0.495 OA
ENDBRANCH   1   8
BRANCH   2   9
ATOM      9  C   UNL     1       8.584  -1.926  23.885  0.00  0.00    +0.015 C 
ATOM     10  C   UNL     1       9.192  -2.969  24.471  0.00  0.00    +0.059 C 
BRANCH  10  11
ATOM     11  C   UNL     1       8.618  -4.333  24.355  0.00  0.00    +0.262 C 
ATOM     12  O   UNL     1       7.842  -4.696  23.475  0.00  0.00    -0.280 OA
BRANCH  11  13
ATOM     13  C   UNL     1       8.972  -5.343  25.448  0.00  0.00    +0.377 C 
ATOM     14  O   UNL     1       8.179  -5.775  26.260  0.00  0.00    -0.241 OA
BRANCH  13  15
ATOM     15  O   UNL     1      10.275  -5.684  25.369  0.00  0.00    -0.475 OA
ATOM     16  H   UNL     1      10.804  -4.882  25.144  0.00  0.00    +0.296 HD
ENDBRANCH  13  15
ENDBRANCH  11  13
ENDBRANCH  10  11
ENDBRANCH   2   9
TORSDOF 5
ENDMDL
