MODEL 1
REMARK VINA RESULT:      -7.2      0.000      0.000
REMARK  Name = 
REMARK  7 active torsions:
REMARK  status: ('A' for Active; 'I' for Inactive)
REMARK    1  A    between atoms: C_2  and  N_3
REMARK    2  A    between atoms: C_2  and  C_4
REMARK    3  A    between atoms: C_2  and  C_22
REMARK    4  A    between atoms: C_4  and  O_5
REMARK    5  A    between atoms: O_5  and  C_6
REMARK    6  A    between atoms: C_10  and  C_16
REMARK    7  A    between atoms: C_22  and  C_23
REMARK                            x       y       z     vdW  Elec       q    Type
REMARK                         _______ _______ _______ _____ _____    ______ ____
ROOT
ATOM      1  O   UNL     1       8.998  -2.556  26.674  0.00  0.00    -0.488 OA
ENDROOT
BRANCH   1   2
ATOM      2  C   UNL     1       8.200  -1.432  26.493  0.00  0.00    +0.148 A 
ATOM      3  C   UNL     1       6.880  -1.343  26.944  0.00  0.00    +0.157 A 
ATOM      4  N   UNL     1       6.084  -0.261  26.803  0.00  0.00    -0.257 NA
ATOM      5  C   UNL     1       6.645   0.798  26.183  0.00  0.00    +0.139 A 
ATOM      6  C   UNL     1       7.932   0.867  25.684  0.00  0.00    +0.093 A 
ATOM      7  N   UNL     1       8.346   2.019  25.119  0.00  0.00    -0.245 NA
ATOM      8  C   UNL     1       9.599   2.099  24.618  0.00  0.00    +0.072 A 
ATOM      9  C   UNL     1      10.449   0.996  24.650  0.00  0.00    +0.029 A 
ATOM     10  C   UNL     1      10.022  -0.193  25.260  0.00  0.00    +0.016 A 
ATOM     11  C   UNL     1       8.731  -0.290  25.819  0.00  0.00    +0.045 A 
BRANCH   8  12
ATOM     12  C   UNL     1      10.012   3.439  24.136  0.00  0.00    +0.003 A 
ATOM     13  C   UNL     1       9.178   4.556  24.319  0.00  0.00    +0.030 A 
ATOM     14  C   UNL     1       9.628   5.818  23.960  0.00  0.00    +0.111 A 
ATOM     15  N   UNL     1      10.837   6.052  23.413  0.00  0.00    -0.263 NA
ATOM     16  C   UNL     1      11.615   4.972  23.197  0.00  0.00    +0.111 A 
ATOM     17  C   UNL     1      11.252   3.674  23.527  0.00  0.00    +0.030 A 
ENDBRANCH   8  12
ENDBRANCH   1   2
BRANCH   1  18
ATOM     18  C   UNL     1       8.427  -3.753  26.099  0.00  0.00    +0.247 C 
BRANCH  18  19
ATOM     19  C   UNL     1       9.058  -4.219  24.769  0.00  0.00    +0.093 C 
BRANCH  19  20
ATOM     20  N   UNL     1       9.673  -5.554  24.878  0.00  0.00    -0.324 NA
ATOM     21  H   UNL     1      10.580  -5.557  24.414  0.00  0.00    +0.119 HD
ATOM     22  H   UNL     1       9.831  -5.776  25.860  0.00  0.00    +0.119 HD
ENDBRANCH  19  20
BRANCH  19  23
ATOM     23  C   UNL     1       7.983  -4.136  23.637  0.00  0.00    +0.059 C 
BRANCH  23  24
ATOM     24  C   UNL     1       7.450  -2.759  23.314  0.00  0.00    -0.021 A 
ATOM     25  C   UNL     1       8.122  -1.681  22.632  0.00  0.00    +0.003 A 
ATOM     26  C   UNL     1       9.405  -1.504  22.068  0.00  0.00    +0.010 A 
ATOM     27  C   UNL     1       9.734  -0.287  21.450  0.00  0.00    +0.001 A 
ATOM     28  C   UNL     1       8.812   0.754  21.390  0.00  0.00    +0.002 A 
ATOM     29  C   UNL     1       7.538   0.610  21.940  0.00  0.00    +0.026 A 
ATOM     30  C   UNL     1       7.224  -0.615  22.545  0.00  0.00    +0.047 A 
ATOM     31  N   UNL     1       6.057  -1.018  23.146  0.00  0.00    -0.360 N 
ATOM     32  H   UNL     1       5.230  -0.445  23.234  0.00  0.00    +0.165 HD
ATOM     33  C   UNL     1       6.174  -2.304  23.589  0.00  0.00    +0.087 A 
ENDBRANCH  23  24
ENDBRANCH  19  23
ENDBRANCH  18  19
ENDBRANCH   1  18
TORSDOF 7
ENDMDL
MODEL 2
REMARK VINA RESULT:      -7.1      1.467      2.170
REMARK  Name = 
REMARK  7 active torsions:
REMARK  status: ('A' for Active; 'I' for Inactive)
REMARK    1  A    between atoms: C_2  and  N_3
REMARK    2  A    between atoms: C_2  and  C_4
REMARK    3  A    between atoms: C_2  and  C_22
REMARK    4  A    between atoms: C_4  and  O_5
REMARK    5  A    between atoms: O_5  and  C_6
REMARK    6  A    between atoms: C_10  and  C_16
REMARK    7  A    between atoms: C_22  and  C_23
REMARK                            x       y       z     vdW  Elec       q    Type
REMARK                         _______ _______ _______ _____ _____    ______ ____
ROOT
ATOM      1  O   UNL     1       7.555  -4.110  27.235  0.00  0.00    -0.488 OA
ENDROOT
BRANCH   1   2
ATOM      2  C   UNL     1       6.685  -3.132  26.768  0.00  0.00    +0.148 A 
ATOM      3  C   UNL     1       5.302  -3.315  26.667  0.00  0.00    +0.157 A 
ATOM      4  N   UNL     1       4.426  -2.381  26.236  0.00  0.00    -0.257 NA
ATOM      5  C   UNL     1       4.963  -1.191  25.897  0.00  0.00    +0.139 A 
ATOM      6  C   UNL     1       6.302  -0.855  25.943  0.00  0.00    +0.093 A 
ATOM      7  N   UNL     1       6.667   0.397  25.598  0.00  0.00    -0.245 NA
ATOM      8  C   UNL     1       7.975   0.738  25.629  0.00  0.00    +0.072 A 
ATOM      9  C   UNL     1       8.946  -0.197  25.980  0.00  0.00    +0.029 A 
ATOM     10  C   UNL     1       8.560  -1.491  26.361  0.00  0.00    +0.016 A 
ATOM     11  C   UNL     1       7.199  -1.861  26.368  0.00  0.00    +0.045 A 
BRANCH   8  12
ATOM     12  C   UNL     1       8.270   2.166  25.361  0.00  0.00    +0.003 A 
ATOM     13  C   UNL     1       9.249   2.533  24.420  0.00  0.00    +0.030 A 
ATOM     14  C   UNL     1       9.434   3.871  24.104  0.00  0.00    +0.111 A 
ATOM     15  N   UNL     1       8.733   4.875  24.667  0.00  0.00    -0.263 NA
ATOM     16  C   UNL     1       7.827   4.522  25.602  0.00  0.00    +0.111 A 
ATOM     17  C   UNL     1       7.571   3.211  25.980  0.00  0.00    +0.030 A 
ENDBRANCH   8  12
ENDBRANCH   1   2
BRANCH   1  18
ATOM     18  C   UNL     1       7.705  -5.218  26.320  0.00  0.00    +0.247 C 
BRANCH  18  19
ATOM     19  C   UNL     1       8.739  -5.014  25.192  0.00  0.00    +0.093 C 
BRANCH  19  20
ATOM     20  N   UNL     1       9.818  -6.017  25.234  0.00  0.00    -0.324 NA
ATOM     21  H   UNL     1      10.614  -5.648  25.754  0.00  0.00    +0.119 HD
ATOM     22  H   UNL     1       9.491  -6.848  25.725  0.00  0.00    +0.119 HD
ENDBRANCH  19  20
BRANCH  19  23
ATOM     23  C   UNL     1       7.995  -4.980  23.817  0.00  0.00    +0.059 C 
BRANCH  23  24
ATOM     24  C   UNL     1       7.592  -3.618  23.303  0.00  0.00    -0.021 A 
ATOM     25  C   UNL     1       8.444  -2.503  22.972  0.00  0.00    +0.003 A 
ATOM     26  C   UNL     1       9.837  -2.268  23.004  0.00  0.00    +0.010 A 
ATOM     27  C   UNL     1      10.345  -1.027  22.587  0.00  0.00    +0.001 A 
ATOM     28  C   UNL     1       9.492  -0.020  22.145  0.00  0.00    +0.002 A 
ATOM     29  C   UNL     1       8.112  -0.220  22.105  0.00  0.00    +0.026 A 
ATOM     30  C   UNL     1       7.623  -1.468  22.517  0.00  0.00    +0.047 A 
ATOM     31  N   UNL     1       6.330  -1.925  22.567  0.00  0.00    -0.360 N 
ATOM     32  H   UNL     1       5.519  -1.385  22.298  0.00  0.00    +0.165 HD
ATOM     33  C   UNL     1       6.302  -3.215  23.014  0.00  0.00    +0.087 A 
ENDBRANCH  23  24
ENDBRANCH  19  23
ENDBRANCH  18  19
ENDBRANCH   1  18
TORSDOF 7
ENDMDL
MODEL 3
REMARK VINA RESULT:      -7.0      2.200      3.662
REMARK  Name = 
REMARK  7 active torsions:
REMARK  status: ('A' for Active; 'I' for Inactive)
REMARK    1  A    between atoms: C_2  and  N_3
REMARK    2  A    between atoms: C_2  and  C_4
REMARK    3  A    between atoms: C_2  and  C_22
REMARK    4  A    between atoms: C_4  and  O_5
REMARK    5  A    between atoms: O_5  and  C_6
REMARK    6  A    between atoms: C_10  and  C_16
REMARK    7  A    between atoms: C_22  and  C_23
REMARK                            x       y       z     vdW  Elec       q    Type
REMARK                         _______ _______ _______ _____ _____    ______ ____
ROOT
ATOM      1  O   UNL     1       7.203  -4.592  27.523  0.00  0.00    -0.488 OA
ENDROOT
BRANCH   1   2
ATOM      2  C   UNL     1       8.099  -4.282  26.506  0.00  0.00    +0.148 A 
ATOM      3  C   UNL     1       8.751  -5.247  25.733  0.00  0.00    +0.157 A 
ATOM      4  N   UNL     1       9.612  -4.982  24.726  0.00  0.00    -0.257 NA
ATOM      5  C   UNL     1       9.823  -3.674  24.470  0.00  0.00    +0.139 A 
ATOM      6  C   UNL     1       9.255  -2.607  25.140  0.00  0.00    +0.093 A 
ATOM      7  N   UNL     1       9.552  -1.356  24.733  0.00  0.00    -0.245 NA
ATOM      8  C   UNL     1       9.012  -0.302  25.384  0.00  0.00    +0.072 A 
ATOM      9  C   UNL     1       8.183  -0.495  26.486  0.00  0.00    +0.029 A 
ATOM     10  C   UNL     1       7.859  -1.799  26.892  0.00  0.00    +0.016 A 
ATOM     11  C   UNL     1       8.384  -2.915  26.208  0.00  0.00    +0.045 A 
BRANCH   8  12
ATOM     12  C   UNL     1       9.288   1.028  24.788  0.00  0.00    +0.003 A 
ATOM     13  C   UNL     1       8.388   2.094  24.963  0.00  0.00    +0.030 A 
ATOM     14  C   UNL     1       8.716   3.357  24.492  0.00  0.00    +0.111 A 
ATOM     15  N   UNL     1       9.863   3.637  23.842  0.00  0.00    -0.263 NA
ATOM     16  C   UNL     1      10.703   2.602  23.637  0.00  0.00    +0.111 A 
ATOM     17  C   UNL     1      10.462   1.307  24.074  0.00  0.00    +0.030 A 
ENDBRANCH   8  12
ENDBRANCH   1   2
BRANCH   1  18
ATOM     18  C   UNL     1       5.856  -4.808  27.044  0.00  0.00    +0.247 C 
BRANCH  18  19
ATOM     19  C   UNL     1       5.624  -6.130  26.282  0.00  0.00    +0.093 C 
BRANCH  19  20
ATOM     20  N   UNL     1       4.928  -7.135  27.105  0.00  0.00    -0.324 NA
ATOM     21  H   UNL     1       4.095  -6.723  27.525  0.00  0.00    +0.119 HD
ATOM     22  H   UNL     1       4.622  -7.907  26.514  0.00  0.00    +0.119 HD
ENDBRANCH  19  20
BRANCH  19  23
ATOM     23  C   UNL     1       4.882  -5.824  24.941  0.00  0.00    +0.059 C 
BRANCH  23  24
ATOM     24  C   UNL     1       5.707  -5.186  23.846  0.00  0.00    -0.021 A 
ATOM     25  C   UNL     1       5.941  -3.784  23.610  0.00  0.00    +0.003 A 
ATOM     26  C   UNL     1       5.529  -2.585  24.233  0.00  0.00    +0.010 A 
ATOM     27  C   UNL     1       5.968  -1.350  23.729  0.00  0.00    +0.001 A 
ATOM     28  C   UNL     1       6.803  -1.290  22.617  0.00  0.00    +0.002 A 
ATOM     29  C   UNL     1       7.224  -2.456  21.978  0.00  0.00    +0.026 A 
ATOM     30  C   UNL     1       6.783  -3.680  22.499  0.00  0.00    +0.047 A 
ATOM     31  N   UNL     1       7.051  -4.958  22.075  0.00  0.00    -0.360 N 
ATOM     32  H   UNL     1       7.636  -5.188  21.283  0.00  0.00    +0.165 HD
ATOM     33  C   UNL     1       6.432  -5.865  22.885  0.00  0.00    +0.087 A 
ENDBRANCH  23  24
ENDBRANCH  19  23
ENDBRANCH  18  19
ENDBRANCH   1  18
TORSDOF 7
ENDMDL
MODEL 4
REMARK VINA RESULT:      -6.9      2.413      7.411
REMARK  Name = 
REMARK  7 active torsions:
REMARK  status: ('A' for Active; 'I' for Inactive)
REMARK    1  A    between atoms: C_2  and  N_3
REMARK    2  A    between atoms: C_2  and  C_4
REMARK    3  A    between atoms: C_2  and  C_22
REMARK    4  A    between atoms: C_4  and  O_5
REMARK    5  A    between atoms: O_5  and  C_6
REMARK    6  A    between atoms: C_10  and  C_16
REMARK    7  A    between atoms: C_22  and  C_23
REMARK                            x       y       z     vdW  Elec       q    Type
REMARK                         _______ _______ _______ _____ _____    ______ ____
ROOT
ATOM      1  O   UNL     1       7.607   0.723  21.783  0.00  0.00    -0.488 OA
ENDROOT
BRANCH   1   2
ATOM      2  C   UNL     1       8.387  -0.350  22.198  0.00  0.00    +0.148 A 
ATOM      3  C   UNL     1       9.754  -0.461  21.922  0.00  0.00    +0.157 A 
ATOM      4  N   UNL     1      10.545  -1.480  22.325  0.00  0.00    -0.257 NA
ATOM      5  C   UNL     1       9.936  -2.436  23.057  0.00  0.00    +0.139 A 
ATOM      6  C   UNL     1       8.602  -2.468  23.413  0.00  0.00    +0.093 A 
ATOM      7  N   UNL     1       8.161  -3.488  24.179  0.00  0.00    -0.245 NA
ATOM      8  C   UNL     1       6.856  -3.538  24.528  0.00  0.00    +0.072 A 
ATOM      9  C   UNL     1       5.962  -2.570  24.078  0.00  0.00    +0.029 A 
ATOM     10  C   UNL     1       6.429  -1.499  23.301  0.00  0.00    +0.016 A 
ATOM     11  C   UNL     1       7.792  -1.407  22.951  0.00  0.00    +0.045 A 
BRANCH   8  12
ATOM     12  C   UNL     1       6.489  -4.618  25.476  0.00  0.00    +0.003 A 
ATOM     13  C   UNL     1       7.068  -4.678  26.755  0.00  0.00    +0.030 A 
ATOM     14  C   UNL     1       6.631  -5.630  27.665  0.00  0.00    +0.111 A 
ATOM     15  N   UNL     1       5.675  -6.540  27.393  0.00  0.00    -0.263 NA
ATOM     16  C   UNL     1       5.155  -6.508  26.149  0.00  0.00    +0.111 A 
ATOM     17  C   UNL     1       5.526  -5.591  25.175  0.00  0.00    +0.030 A 
ENDBRANCH   8  12
ENDBRANCH   1   2
BRANCH   1  18
ATOM     18  C   UNL     1       8.348   1.962  21.698  0.00  0.00    +0.247 C 
BRANCH  18  19
ATOM     19  C   UNL     1       7.764   3.143  22.501  0.00  0.00    +0.093 C 
BRANCH  19  20
ATOM     20  N   UNL     1       6.338   2.951  22.822  0.00  0.00    -0.324 NA
ATOM     21  H   UNL     1       6.228   2.768  23.818  0.00  0.00    +0.119 HD
ATOM     22  H   UNL     1       5.824   3.805  22.609  0.00  0.00    +0.119 HD
ENDBRANCH  19  20
BRANCH  19  23
ATOM     23  C   UNL     1       8.645   3.382  23.771  0.00  0.00    +0.059 C 
BRANCH  23  24
ATOM     24  C   UNL     1       9.119   2.148  24.503  0.00  0.00    -0.021 A 
ATOM     25  C   UNL     1       8.353   1.260  25.342  0.00  0.00    +0.003 A 
ATOM     26  C   UNL     1       7.009   1.206  25.772  0.00  0.00    +0.010 A 
ATOM     27  C   UNL     1       6.585   0.161  26.607  0.00  0.00    +0.001 A 
ATOM     28  C   UNL     1       7.475  -0.825  27.024  0.00  0.00    +0.002 A 
ATOM     29  C   UNL     1       8.810  -0.797  26.619  0.00  0.00    +0.026 A 
ATOM     30  C   UNL     1       9.214   0.249  25.778  0.00  0.00    +0.047 A 
ATOM     31  N   UNL     1      10.448   0.505  25.233  0.00  0.00    -0.360 N 
ATOM     32  H   UNL     1      11.269  -0.065  25.382  0.00  0.00    +0.165 HD
ATOM     33  C   UNL     1      10.397   1.623  24.453  0.00  0.00    +0.087 A 
ENDBRANCH  23  24
ENDBRANCH  19  23
ENDBRANCH  18  19
ENDBRANCH   1  18
TORSDOF 7
ENDMDL
MODEL 5
REMARK VINA RESULT:      -6.8      2.993      7.752
REMARK  Name = 
REMARK  7 active torsions:
REMARK  status: ('A' for Active; 'I' for Inactive)
REMARK    1  A    between atoms: C_2  and  N_3
REMARK    2  A    between atoms: C_2  and  C_4
REMARK    3  A    between atoms: C_2  and  C_22
REMARK    4  A    between atoms: C_4  and  O_5
REMARK    5  A    between atoms: O_5  and  C_6
REMARK    6  A    between atoms: C_10  and  C_16
REMARK    7  A    between atoms: C_22  and  C_23
REMARK                            x       y       z     vdW  Elec       q    Type
REMARK                         _______ _______ _______ _____ _____    ______ ____
ROOT
ATOM      1  O   UNL     1       8.857  -1.151  21.787  0.00  0.00    -0.488 OA
ENDROOT
BRANCH   1   2
ATOM      2  C   UNL     1       8.860  -2.211  22.687  0.00  0.00    +0.148 A 
ATOM      3  C   UNL     1       9.966  -2.555  23.469  0.00  0.00    +0.157 A 
ATOM      4  N   UNL     1       9.997  -3.565  24.366  0.00  0.00    -0.257 NA
ATOM      5  C   UNL     1       8.851  -4.264  24.495  0.00  0.00    +0.139 A 
ATOM      6  C   UNL     1       7.677  -4.047  23.800  0.00  0.00    +0.093 A 
ATOM      7  N   UNL     1       6.608  -4.822  24.077  0.00  0.00    -0.245 NA
ATOM      8  C   UNL     1       5.455  -4.628  23.398  0.00  0.00    +0.072 A 
ATOM      9  C   UNL     1       5.373  -3.662  22.398  0.00  0.00    +0.029 A 
ATOM     10  C   UNL     1       6.480  -2.843  22.129  0.00  0.00    +0.016 A 
ATOM     11  C   UNL     1       7.683  -3.005  22.847  0.00  0.00    +0.045 A 
BRANCH   8  12
ATOM     12  C   UNL     1       4.299  -5.435  23.857  0.00  0.00    +0.003 A 
ATOM     13  C   UNL     1       2.989  -5.092  23.479  0.00  0.00    +0.030 A 
ATOM     14  C   UNL     1       1.932  -5.920  23.827  0.00  0.00    +0.111 A 
ATOM     15  N   UNL     1       2.076  -7.054  24.541  0.00  0.00    -0.263 NA
ATOM     16  C   UNL     1       3.328  -7.355  24.941  0.00  0.00    +0.111 A 
ATOM     17  C   UNL     1       4.446  -6.590  24.637  0.00  0.00    +0.030 A 
ENDBRANCH   8  12
ENDBRANCH   1   2
BRANCH   1  18
ATOM     18  C   UNL     1       9.985  -0.263  21.956  0.00  0.00    +0.247 C 
BRANCH  18  19
ATOM     19  C   UNL     1       9.677   1.241  21.802  0.00  0.00    +0.093 C 
BRANCH  19  20
ATOM     20  N   UNL     1       8.432   1.483  21.051  0.00  0.00    -0.324 NA
ATOM     21  H   UNL     1       8.652   1.826  20.116  0.00  0.00    +0.119 HD
ATOM     22  H   UNL     1       7.924   0.607  20.943  0.00  0.00    +0.119 HD
ENDBRANCH  19  20
BRANCH  19  23
ATOM     23  C   UNL     1       9.671   1.908  23.216  0.00  0.00    +0.059 C 
BRANCH  23  24
ATOM     24  C   UNL     1       9.339   1.008  24.384  0.00  0.00    -0.021 A 
ATOM     25  C   UNL     1       8.065   0.428  24.727  0.00  0.00    +0.003 A 
ATOM     26  C   UNL     1       6.766   0.475  24.174  0.00  0.00    +0.010 A 
ATOM     27  C   UNL     1       5.723  -0.243  24.780  0.00  0.00    +0.001 A 
ATOM     28  C   UNL     1       5.951  -1.001  25.925  0.00  0.00    +0.002 A 
ATOM     29  C   UNL     1       7.222  -1.066  26.496  0.00  0.00    +0.026 A 
ATOM     30  C   UNL     1       8.253  -0.349  25.874  0.00  0.00    +0.047 A 
ATOM     31  N   UNL     1       9.578  -0.249  26.218  0.00  0.00    -0.360 N 
ATOM     32  H   UNL     1      10.000  -0.707  27.013  0.00  0.00    +0.165 HD
ATOM     33  C   UNL     1      10.240   0.541  25.323  0.00  0.00    +0.087 A 
ENDBRANCH  23  24
ENDBRANCH  19  23
ENDBRANCH  18  19
ENDBRANCH   1  18
TORSDOF 7
ENDMDL
MODEL 6
REMARK VINA RESULT:      -6.8      3.123      8.262
REMARK  Name = 
REMARK  7 active torsions:
REMARK  status: ('A' for Active; 'I' for Inactive)
REMARK    1  A    between atoms: C_2  and  N_3
REMARK    2  A    between atoms: C_2  and  C_4
REMARK    3  A    between atoms: C_2  and  C_22
REMARK    4  A    between atoms: C_4  and  O_5
REMARK    5  A    between atoms: O_5  and  C_6
REMARK    6  A    between atoms: C_10  and  C_16
REMARK    7  A    between atoms: C_22  and  C_23
REMARK                            x       y       z     vdW  Elec       q    Type
REMARK                         _______ _______ _______ _____ _____    ______ ____
ROOT
ATOM      1  O   UNL     1       8.598  -1.379  21.964  0.00  0.00    -0.488 OA
ENDROOT
BRANCH   1   2
ATOM      2  C   UNL     1       8.649  -2.458  22.839  0.00  0.00    +0.148 A 
ATOM      3  C   UNL     1       9.749  -2.738  23.655  0.00  0.00    +0.157 A 
ATOM      4  N   UNL     1       9.824  -3.765  24.529  0.00  0.00    -0.257 NA
ATOM      5  C   UNL     1       8.731  -4.552  24.598  0.00  0.00    +0.139 A 
ATOM      6  C   UNL     1       7.570  -4.407  23.863  0.00  0.00    +0.093 A 
ATOM      7  N   UNL     1       6.555  -5.268  24.080  0.00  0.00    -0.245 NA
ATOM      8  C   UNL     1       5.416  -5.144  23.362  0.00  0.00    +0.072 A 
ATOM      9  C   UNL     1       5.297  -4.162  22.382  0.00  0.00    +0.029 A 
ATOM     10  C   UNL     1       6.346  -3.255  22.175  0.00  0.00    +0.016 A 
ATOM     11  C   UNL     1       7.531  -3.343  22.935  0.00  0.00    +0.045 A 
BRANCH   8  12
ATOM     12  C   UNL     1       4.309  -6.048  23.758  0.00  0.00    +0.003 A 
ATOM     13  C   UNL     1       4.423  -6.869  24.893  0.00  0.00    +0.030 A 
ATOM     14  C   UNL     1       3.336  -7.624  25.309  0.00  0.00    +0.111 A 
ATOM     15  N   UNL     1       2.150  -7.641  24.669  0.00  0.00    -0.263 NA
ATOM     16  C   UNL     1       2.060  -6.888  23.555  0.00  0.00    +0.111 A 
ATOM     17  C   UNL     1       3.091  -6.098  23.066  0.00  0.00    +0.030 A 
ENDBRANCH   8  12
ENDBRANCH   1   2
BRANCH   1  18
ATOM     18  C   UNL     1       9.862  -0.689  21.843  0.00  0.00    +0.247 C 
BRANCH  18  19
ATOM     19  C   UNL     1       9.806   0.841  22.038  0.00  0.00    +0.093 C 
BRANCH  19  20
ATOM     20  N   UNL     1       8.877   1.491  21.096  0.00  0.00    -0.324 NA
ATOM     21  H   UNL     1       9.341   2.274  20.637  0.00  0.00    +0.119 HD
ATOM     22  H   UNL     1       8.608   0.827  20.372  0.00  0.00    +0.119 HD
ENDBRANCH  19  20
BRANCH  19  23
ATOM     23  C   UNL     1       9.473   1.154  23.533  0.00  0.00    +0.059 C 
BRANCH  23  24
ATOM     24  C   UNL     1       9.295   2.612  23.892  0.00  0.00    -0.021 A 
ATOM     25  C   UNL     1      10.258   3.679  23.787  0.00  0.00    +0.003 A 
ATOM     26  C   UNL     1      11.603   3.771  23.364  0.00  0.00    +0.010 A 
ATOM     27  C   UNL     1      12.256   5.013  23.384  0.00  0.00    +0.001 A 
ATOM     28  C   UNL     1      11.598   6.159  23.820  0.00  0.00    +0.002 A 
ATOM     29  C   UNL     1      10.271   6.100  24.247  0.00  0.00    +0.026 A 
ATOM     30  C   UNL     1       9.631   4.853  24.213  0.00  0.00    +0.047 A 
ATOM     31  N   UNL     1       8.345   4.521  24.563  0.00  0.00    -0.360 N 
ATOM     32  H   UNL     1       7.659   5.176  24.912  0.00  0.00    +0.165 HD
ATOM     33  C   UNL     1       8.128   3.190  24.355  0.00  0.00    +0.087 A 
ENDBRANCH  23  24
ENDBRANCH  19  23
ENDBRANCH  18  19
ENDBRANCH   1  18
TORSDOF 7
ENDMDL
MODEL 7
REMARK VINA RESULT:      -6.8      2.218      4.027
REMARK  Name = 
REMARK  7 active torsions:
REMARK  status: ('A' for Active; 'I' for Inactive)
REMARK    1  A    between atoms: C_2  and  N_3
REMARK    2  A    between atoms: C_2  and  C_4
REMARK    3  A    between atoms: C_2  and  C_22
REMARK    4  A    between atoms: C_4  and  O_5
REMARK    5  A    between atoms: O_5  and  C_6
REMARK    6  A    between atoms: C_10  and  C_16
REMARK    7  A    between atoms: C_22  and  C_23
REMARK                            x       y       z     vdW  Elec       q    Type
REMARK                         _______ _______ _______ _____ _____    ______ ____
ROOT
ATOM      1  O   UNL     1       7.189  -4.493  27.505  0.00  0.00    -0.488 OA
ENDROOT
BRANCH   1   2
ATOM      2  C   UNL     1       8.004  -4.188  26.421  0.00  0.00    +0.148 A 
ATOM      3  C   UNL     1       8.552  -5.155  25.573  0.00  0.00    +0.157 A 
ATOM      4  N   UNL     1       9.332  -4.893  24.501  0.00  0.00    -0.257 NA
ATOM      5  C   UNL     1       9.567  -3.587  24.257  0.00  0.00    +0.139 A 
ATOM      6  C   UNL     1       9.098  -2.519  24.996  0.00  0.00    +0.093 A 
ATOM      7  N   UNL     1       9.403  -1.269  24.592  0.00  0.00    -0.245 NA
ATOM      8  C   UNL     1       8.959  -0.214  25.311  0.00  0.00    +0.072 A 
ATOM      9  C   UNL     1       8.222  -0.407  26.477  0.00  0.00    +0.029 A 
ATOM     10  C   UNL     1       7.887  -1.708  26.881  0.00  0.00    +0.016 A 
ATOM     11  C   UNL     1       8.311  -2.824  26.130  0.00  0.00    +0.045 A 
BRANCH   8  12
ATOM     12  C   UNL     1       9.230   1.121  24.723  0.00  0.00    +0.003 A 
ATOM     13  C   UNL     1       8.385   2.211  24.997  0.00  0.00    +0.030 A 
ATOM     14  C   UNL     1       8.716   3.474  24.527  0.00  0.00    +0.111 A 
ATOM     15  N   UNL     1       9.813   3.731  23.788  0.00  0.00    -0.263 NA
ATOM     16  C   UNL     1      10.595   2.675  23.489  0.00  0.00    +0.111 A 
ATOM     17  C   UNL     1      10.347   1.378  23.918  0.00  0.00    +0.030 A 
ENDBRANCH   8  12
ENDBRANCH   1   2
BRANCH   1  18
ATOM     18  C   UNL     1       6.084  -5.357  27.157  0.00  0.00    +0.247 C 
BRANCH  18  19
ATOM     19  C   UNL     1       4.678  -4.779  27.422  0.00  0.00    +0.093 C 
BRANCH  19  20
ATOM     20  N   UNL     1       4.723  -3.544  28.224  0.00  0.00    -0.324 NA
ATOM     21  H   UNL     1       5.106  -3.743  29.147  0.00  0.00    +0.119 HD
ATOM     22  H   UNL     1       5.341  -2.869  27.775  0.00  0.00    +0.119 HD
ENDBRANCH  19  20
BRANCH  19  23
ATOM     23  C   UNL     1       3.937  -4.591  26.058  0.00  0.00    +0.059 C 
BRANCH  23  24
ATOM     24  C   UNL     1       4.731  -3.949  24.944  0.00  0.00    -0.021 A 
ATOM     25  C   UNL     1       5.396  -4.592  23.839  0.00  0.00    +0.003 A 
ATOM     26  C   UNL     1       5.558  -5.930  23.413  0.00  0.00    +0.010 A 
ATOM     27  C   UNL     1       6.283  -6.207  22.244  0.00  0.00    +0.001 A 
ATOM     28  C   UNL     1       6.851  -5.179  21.496  0.00  0.00    +0.002 A 
ATOM     29  C   UNL     1       6.711  -3.848  21.892  0.00  0.00    +0.026 A 
ATOM     30  C   UNL     1       5.977  -3.589  23.058  0.00  0.00    +0.047 A 
ATOM     31  N   UNL     1       5.684  -2.389  23.656  0.00  0.00    -0.360 N 
ATOM     32  H   UNL     1       5.981  -1.488  23.309  0.00  0.00    +0.165 HD
ATOM     33  C   UNL     1       4.922  -2.590  24.771  0.00  0.00    +0.087 A 
ENDBRANCH  23  24
ENDBRANCH  19  23
ENDBRANCH  18  19
ENDBRANCH   1  18
TORSDOF 7
ENDMDL
MODEL 8
REMARK VINA RESULT:      -6.7      1.901      3.935
REMARK  Name = 
REMARK  7 active torsions:
REMARK  status: ('A' for Active; 'I' for Inactive)
REMARK    1  A    between atoms: C_2  and  N_3
REMARK    2  A    between atoms: C_2  and  C_4
REMARK    3  A    between atoms: C_2  and  C_22
REMARK    4  A    between atoms: C_4  and  O_5
REMARK    5  A    between atoms: O_5  and  C_6
REMARK    6  A    between atoms: C_10  and  C_16
REMARK    7  A    between atoms: C_22  and  C_23
REMARK                            x       y       z     vdW  Elec       q    Type
REMARK                         _______ _______ _______ _____ _____    ______ ____
ROOT
ATOM      1  O   UNL     1       8.656  -5.490  23.770  0.00  0.00    -0.488 OA
ENDROOT
BRANCH   1   2
ATOM      2  C   UNL     1       7.703  -4.628  23.238  0.00  0.00    +0.148 A 
ATOM      3  C   UNL     1       6.434  -5.044  22.825  0.00  0.00    +0.157 A 
ATOM      4  N   UNL     1       5.478  -4.232  22.322  0.00  0.00    -0.257 NA
ATOM      5  C   UNL     1       5.808  -2.926  22.238  0.00  0.00    +0.139 A 
ATOM      6  C   UNL     1       7.014  -2.362  22.606  0.00  0.00    +0.093 A 
ATOM      7  N   UNL     1       7.167  -1.027  22.486  0.00  0.00    -0.245 NA
ATOM      8  C   UNL     1       8.345  -0.462  22.832  0.00  0.00    +0.072 A 
ATOM      9  C   UNL     1       9.407  -1.245  23.278  0.00  0.00    +0.029 A 
ATOM     10  C   UNL     1       9.236  -2.630  23.423  0.00  0.00    +0.016 A 
ATOM     11  C   UNL     1       8.006  -3.239  23.099  0.00  0.00    +0.045 A 
BRANCH   8  12
ATOM     12  C   UNL     1       8.380   1.021  22.792  0.00  0.00    +0.003 A 
ATOM     13  C   UNL     1       7.308   1.749  22.247  0.00  0.00    +0.030 A 
ATOM     14  C   UNL     1       7.310   3.135  22.318  0.00  0.00    +0.111 A 
ATOM     15  N   UNL     1       8.307   3.852  22.872  0.00  0.00    -0.263 NA
ATOM     16  C   UNL     1       9.354   3.151  23.352  0.00  0.00    +0.111 A 
ATOM     17  C   UNL     1       9.438   1.766  23.329  0.00  0.00    +0.030 A 
ENDBRANCH   8  12
ENDBRANCH   1   2
BRANCH   1  18
ATOM     18  C   UNL     1       9.065  -5.124  25.108  0.00  0.00    +0.247 C 
BRANCH  18  19
ATOM     19  C   UNL     1       7.922  -4.964  26.132  0.00  0.00    +0.093 C 
BRANCH  19  20
ATOM     20  N   UNL     1       7.943  -6.017  27.164  0.00  0.00    -0.324 NA
ATOM     21  H   UNL     1       8.639  -5.793  27.874  0.00  0.00    +0.119 HD
ATOM     22  H   UNL     1       7.036  -6.058  27.627  0.00  0.00    +0.119 HD
ENDBRANCH  19  20
BRANCH  19  23
ATOM     23  C   UNL     1       7.974  -3.522  26.735  0.00  0.00    +0.059 C 
BRANCH  23  24
ATOM     24  C   UNL     1       6.865  -2.581  26.326  0.00  0.00    -0.021 A 
ATOM     25  C   UNL     1       6.901  -1.142  26.249  0.00  0.00    +0.003 A 
ATOM     26  C   UNL     1       7.877  -0.153  26.505  0.00  0.00    +0.010 A 
ATOM     27  C   UNL     1       7.566   1.201  26.308  0.00  0.00    +0.001 A 
ATOM     28  C   UNL     1       6.304   1.586  25.866  0.00  0.00    +0.002 A 
ATOM     29  C   UNL     1       5.318   0.634  25.606  0.00  0.00    +0.026 A 
ATOM     30  C   UNL     1       5.648  -0.715  25.800  0.00  0.00    +0.047 A 
ATOM     31  N   UNL     1       4.880  -1.837  25.614  0.00  0.00    -0.360 N 
ATOM     32  H   UNL     1       3.922  -1.830  25.295  0.00  0.00    +0.165 HD
ATOM     33  C   UNL     1       5.604  -2.958  25.904  0.00  0.00    +0.087 A 
ENDBRANCH  23  24
ENDBRANCH  19  23
ENDBRANCH  18  19
ENDBRANCH   1  18
TORSDOF 7
ENDMDL
MODEL 9
REMARK VINA RESULT:      -6.6      2.490      6.826
REMARK  Name = 
REMARK  7 active torsions:
REMARK  status: ('A' for Active; 'I' for Inactive)
REMARK    1  A    between atoms: C_2  and  N_3
REMARK    2  A    between atoms: C_2  and  C_4
REMARK    3  A    between atoms: C_2  and  C_22
REMARK    4  A    between atoms: C_4  and  O_5
REMARK    5  A    between atoms: O_5  and  C_6
REMARK    6  A    between atoms: C_10  and  C_16
REMARK    7  A    between atoms: C_22  and  C_23
REMARK                            x       y       z     vdW  Elec       q    Type
REMARK                         _______ _______ _______ _____ _____    ______ ____
ROOT
ATOM      1  O   UNL     1       7.293   2.683  23.275  0.00  0.00    -0.488 OA
ENDROOT
BRANCH   1   2
ATOM      2  C   UNL     1       6.629   1.965  24.262  0.00  0.00    +0.148 A 
ATOM      3  C   UNL     1       6.152   2.540  25.444  0.00  0.00    +0.157 A 
ATOM      4  N   UNL     1       5.487   1.877  26.415  0.00  0.00    -0.257 NA
ATOM      5  C   UNL     1       5.276   0.564  26.185  0.00  0.00    +0.139 A 
ATOM      6  C   UNL     1       5.681  -0.146  25.071  0.00  0.00    +0.093 A 
ATOM      7  N   UNL     1       5.359  -1.453  24.985  0.00  0.00    -0.245 NA
ATOM      8  C   UNL     1       5.756  -2.164  23.906  0.00  0.00    +0.072 A 
ATOM      9  C   UNL     1       6.520  -1.569  22.904  0.00  0.00    +0.029 A 
ATOM     10  C   UNL     1       6.833  -0.204  22.987  0.00  0.00    +0.016 A 
ATOM     11  C   UNL     1       6.402   0.566  24.087  0.00  0.00    +0.045 A 
BRANCH   8  12
ATOM     12  C   UNL     1       5.247  -3.555  23.833  0.00  0.00    +0.003 A 
ATOM     13  C   UNL     1       5.323  -4.285  22.634  0.00  0.00    +0.030 A 
ATOM     14  C   UNL     1       4.943  -5.619  22.614  0.00  0.00    +0.111 A 
ATOM     15  N   UNL     1       4.473  -6.277  23.693  0.00  0.00    -0.263 NA
ATOM     16  C   UNL     1       4.359  -5.560  24.829  0.00  0.00    +0.111 A 
ATOM     17  C   UNL     1       4.718  -4.225  24.944  0.00  0.00    +0.030 A 
ENDBRANCH   8  12
ENDBRANCH   1   2
BRANCH   1  18
ATOM     18  C   UNL     1       8.543   3.249  23.730  0.00  0.00    +0.247 C 
BRANCH  18  19
ATOM     19  C   UNL     1       9.815   2.490  23.293  0.00  0.00    +0.093 C 
BRANCH  19  20
ATOM     20  N   UNL     1      10.916   3.402  22.935  0.00  0.00    -0.324 NA
ATOM     21  H   UNL     1      10.927   4.198  23.571  0.00  0.00    +0.119 HD
ATOM     22  H   UNL     1      11.806   2.916  23.037  0.00  0.00    +0.119 HD
ENDBRANCH  19  20
BRANCH  19  23
ATOM     23  C   UNL     1      10.210   1.470  24.411  0.00  0.00    +0.059 C 
BRANCH  23  24
ATOM     24  C   UNL     1      10.139   0.006  24.041  0.00  0.00    -0.021 A 
ATOM     25  C   UNL     1       9.585  -1.081  24.809  0.00  0.00    +0.003 A 
ATOM     26  C   UNL     1       8.966  -1.195  26.074  0.00  0.00    +0.010 A 
ATOM     27  C   UNL     1       8.522  -2.448  26.523  0.00  0.00    +0.001 A 
ATOM     28  C   UNL     1       8.686  -3.586  25.738  0.00  0.00    +0.002 A 
ATOM     29  C   UNL     1       9.295  -3.506  24.485  0.00  0.00    +0.026 A 
ATOM     30  C   UNL     1       9.726  -2.246  24.050  0.00  0.00    +0.047 A 
ATOM     31  N   UNL     1      10.339  -1.890  22.874  0.00  0.00    -0.360 N 
ATOM     32  H   UNL     1      10.570  -2.534  22.131  0.00  0.00    +0.165 HD
ATOM     33  C   UNL     1      10.570  -0.545  22.849  0.00  0.00    +0.087 A 
ENDBRANCH  23  24
ENDBRANCH  19  23
ENDBRANCH  18  19
ENDBRANCH   1  18
TORSDOF 7
ENDMDL
