MODEL 1
REMARK VINA RESULT:      -7.8      0.000      0.000
REMARK  Name = 
REMARK  6 active torsions:
REMARK  status: ('A' for Active; 'I' for Inactive)
REMARK    1  A    between atoms: C_1  and  C_2
REMARK    2  A    between atoms: C_2  and  C_16
REMARK    3  A    between atoms: N_6  and  N_7
REMARK    4  A    between atoms: N_7  and  C_8
REMARK    5  A    between atoms: C_19  and  O_20
REMARK    6  A    between atoms: O_20  and  C_21
REMARK                            x       y       z     vdW  Elec       q    Type
REMARK                         _______ _______ _______ _____ _____    ______ ____
ROOT
ATOM      1  C   UNL     1       8.679  -4.526  25.537  0.00  0.00    +0.071 C 
ATOM      2  C   UNL     1       8.066  -4.160  24.184  0.00  0.00    +0.214 C 
ATOM      3  C   UNL     1       6.556  -4.076  24.291  0.00  0.00    +0.289 C 
ATOM      4  O   UNL     1       5.933  -3.211  24.895  0.00  0.00    -0.269 OA
ATOM      5  N   UNL     1       6.055  -5.121  23.554  0.00  0.00    -0.119 N 
ATOM      6  C   UNL     1       7.053  -5.677  22.820  0.00  0.00    +0.428 C 
ATOM      7  O   UNL     1       6.926  -6.389  21.831  0.00  0.00    -0.224 OA
ATOM      8  O   UNL     1       8.267  -5.268  23.287  0.00  0.00    -0.428 OA
ENDROOT
BRANCH   2   9
ATOM      9  C   UNL     1       8.673  -2.875  23.619  0.00  0.00    +0.005 A 
ATOM     10  C   UNL     1       9.460  -2.051  24.443  0.00  0.00    +0.011 A 
ATOM     11  C   UNL     1      10.023  -0.871  23.960  0.00  0.00    +0.046 A 
ATOM     12  C   UNL     1       9.748  -0.442  22.662  0.00  0.00    +0.128 A 
ATOM     13  C   UNL     1       9.006  -1.266  21.817  0.00  0.00    +0.046 A 
ATOM     14  C   UNL     1       8.474  -2.472  22.288  0.00  0.00    +0.011 A 
BRANCH  12  15
ATOM     15  O   UNL     1      10.192   0.748  22.125  0.00  0.00    -0.456 OA
BRANCH  15  16
ATOM     16  C   UNL     1       9.563   1.925  22.470  0.00  0.00    +0.128 A 
ATOM     17  C   UNL     1       8.316   2.320  21.975  0.00  0.00    +0.046 A 
ATOM     18  C   UNL     1       7.714   3.489  22.446  0.00  0.00    +0.004 A 
ATOM     19  C   UNL     1       8.388   4.301  23.355  0.00  0.00    +0.000 A 
ATOM     20  C   UNL     1       9.671   3.956  23.780  0.00  0.00    +0.004 A 
ATOM     21  C   UNL     1      10.258   2.768  23.339  0.00  0.00    +0.046 A 
ENDBRANCH  15  16
ENDBRANCH  12  15
ENDBRANCH   2   9
BRANCH   5  22
ATOM     22  N   UNL     1       4.763  -5.054  23.027  0.00  0.00    -0.252 N 
ATOM     23  H   UNL     1       4.693  -4.832  22.034  0.00  0.00    +0.171 HD
BRANCH  22  24
ATOM     24  C   UNL     1       3.752  -5.869  23.565  0.00  0.00    +0.045 A 
ATOM     25  C   UNL     1       2.465  -5.988  23.026  0.00  0.00    +0.024 A 
ATOM     26  C   UNL     1       1.579  -6.964  23.495  0.00  0.00    +0.002 A 
ATOM     27  C   UNL     1       1.971  -7.840  24.503  0.00  0.00    +0.000 A 
ATOM     28  C   UNL     1       3.233  -7.714  25.075  0.00  0.00    +0.002 A 
ATOM     29  C   UNL     1       4.108  -6.725  24.619  0.00  0.00    +0.024 A 
ENDBRANCH  22  24
ENDBRANCH   5  22
TORSDOF 5
ENDMDL
MODEL 2
REMARK VINA RESULT:      -7.2      3.132      9.012
REMARK  Name = 
REMARK  6 active torsions:
REMARK  status: ('A' for Active; 'I' for Inactive)
REMARK    1  A    between atoms: C_1  and  C_2
REMARK    2  A    between atoms: C_2  and  C_16
REMARK    3  A    between atoms: N_6  and  N_7
REMARK    4  A    between atoms: N_7  and  C_8
REMARK    5  A    between atoms: C_19  and  O_20
REMARK    6  A    between atoms: O_20  and  C_21
REMARK                            x       y       z     vdW  Elec       q    Type
REMARK                         _______ _______ _______ _____ _____    ______ ____
ROOT
ATOM      1  C   UNL     1       9.176  -1.373  21.764  0.00  0.00    +0.071 C 
ATOM      2  C   UNL     1       9.193  -0.845  23.199  0.00  0.00    +0.214 C 
ATOM      3  C   UNL     1       8.262   0.343  23.339  0.00  0.00    +0.289 C 
ATOM      4  O   UNL     1       7.039   0.298  23.288  0.00  0.00    -0.269 OA
ATOM      5  N   UNL     1       9.059   1.438  23.568  0.00  0.00    -0.119 N 
ATOM      6  C   UNL     1      10.327   1.028  23.829  0.00  0.00    +0.428 C 
ATOM      7  O   UNL     1      11.206   1.674  24.384  0.00  0.00    -0.224 OA
ATOM      8  O   UNL     1      10.490  -0.272  23.451  0.00  0.00    -0.428 OA
ENDROOT
BRANCH   2   9
ATOM      9  C   UNL     1       8.871  -1.946  24.210  0.00  0.00    +0.005 A 
ATOM     10  C   UNL     1       8.483  -1.605  25.518  0.00  0.00    +0.011 A 
ATOM     11  C   UNL     1       8.187  -2.585  26.464  0.00  0.00    +0.046 A 
ATOM     12  C   UNL     1       8.349  -3.934  26.151  0.00  0.00    +0.128 A 
ATOM     13  C   UNL     1       8.691  -4.294  24.848  0.00  0.00    +0.046 A 
ATOM     14  C   UNL     1       8.948  -3.311  23.884  0.00  0.00    +0.011 A 
BRANCH  12  15
ATOM     15  O   UNL     1       8.159  -4.969  27.043  0.00  0.00    -0.456 OA
BRANCH  15  16
ATOM     16  C   UNL     1       6.900  -5.508  27.198  0.00  0.00    +0.128 A 
ATOM     17  C   UNL     1       6.075  -5.887  26.134  0.00  0.00    +0.046 A 
ATOM     18  C   UNL     1       4.848  -6.505  26.385  0.00  0.00    +0.004 A 
ATOM     19  C   UNL     1       4.412  -6.680  27.697  0.00  0.00    +0.000 A 
ATOM     20  C   UNL     1       5.193  -6.220  28.757  0.00  0.00    +0.004 A 
ATOM     21  C   UNL     1       6.437  -5.635  28.509  0.00  0.00    +0.046 A 
ENDBRANCH  15  16
ENDBRANCH  12  15
ENDBRANCH   2   9
BRANCH   5  22
ATOM     22  N   UNL     1       8.544   2.556  24.228  0.00  0.00    -0.252 N 
ATOM     23  H   UNL     1       8.740   2.620  25.228  0.00  0.00    +0.171 HD
BRANCH  22  24
ATOM     24  C   UNL     1       8.410   3.770  23.533  0.00  0.00    +0.045 A 
ATOM     25  C   UNL     1       7.386   4.045  22.618  0.00  0.00    +0.024 A 
ATOM     26  C   UNL     1       7.201   5.338  22.116  0.00  0.00    +0.002 A 
ATOM     27  C   UNL     1       8.033   6.375  22.528  0.00  0.00    +0.000 A 
ATOM     28  C   UNL     1       9.078   6.113  23.408  0.00  0.00    +0.002 A 
ATOM     29  C   UNL     1       9.273   4.817  23.892  0.00  0.00    +0.024 A 
ENDBRANCH  22  24
ENDBRANCH   5  22
TORSDOF 5
ENDMDL
MODEL 3
REMARK VINA RESULT:      -7.1      2.560      8.156
REMARK  Name = 
REMARK  6 active torsions:
REMARK  status: ('A' for Active; 'I' for Inactive)
REMARK    1  A    between atoms: C_1  and  C_2
REMARK    2  A    between atoms: C_2  and  C_16
REMARK    3  A    between atoms: N_6  and  N_7
REMARK    4  A    between atoms: N_7  and  C_8
REMARK    5  A    between atoms: C_19  and  O_20
REMARK    6  A    between atoms: O_20  and  C_21
REMARK                            x       y       z     vdW  Elec       q    Type
REMARK                         _______ _______ _______ _____ _____    ______ ____
ROOT
ATOM      1  C   UNL     1       9.641  -4.770  25.232  0.00  0.00    +0.071 C 
ATOM      2  C   UNL     1       8.810  -3.519  24.942  0.00  0.00    +0.214 C 
ATOM      3  C   UNL     1       9.618  -2.521  24.134  0.00  0.00    +0.289 C 
ATOM      4  O   UNL     1       9.957  -2.661  22.966  0.00  0.00    -0.269 OA
ATOM      5  N   UNL     1       9.842  -1.446  24.958  0.00  0.00    -0.119 N 
ATOM      6  C   UNL     1       9.071  -1.557  26.070  0.00  0.00    +0.428 C 
ATOM      7  O   UNL     1       8.766  -0.658  26.843  0.00  0.00    -0.224 OA
ATOM      8  O   UNL     1       8.591  -2.829  26.186  0.00  0.00    -0.428 OA
ENDROOT
BRANCH   2   9
ATOM      9  C   UNL     1       7.485  -3.866  24.262  0.00  0.00    +0.005 A 
ATOM     10  C   UNL     1       6.597  -2.840  23.894  0.00  0.00    +0.011 A 
ATOM     11  C   UNL     1       5.379  -3.122  23.277  0.00  0.00    +0.046 A 
ATOM     12  C   UNL     1       4.981  -4.445  23.085  0.00  0.00    +0.128 A 
ATOM     13  C   UNL     1       5.865  -5.475  23.404  0.00  0.00    +0.046 A 
ATOM     14  C   UNL     1       7.106  -5.190  23.985  0.00  0.00    +0.011 A 
BRANCH  12  15
ATOM     15  O   UNL     1       3.763  -4.823  22.559  0.00  0.00    -0.456 OA
BRANCH  15  16
ATOM     16  C   UNL     1       2.804  -5.364  23.389  0.00  0.00    +0.128 A 
ATOM     17  C   UNL     1       2.396  -4.784  24.595  0.00  0.00    +0.046 A 
ATOM     18  C   UNL     1       1.356  -5.356  25.330  0.00  0.00    +0.004 A 
ATOM     19  C   UNL     1       0.773  -6.546  24.901  0.00  0.00    +0.000 A 
ATOM     20  C   UNL     1       1.240  -7.174  23.747  0.00  0.00    +0.004 A 
ATOM     21  C   UNL     1       2.255  -6.583  22.990  0.00  0.00    +0.046 A 
ENDBRANCH  15  16
ENDBRANCH  12  15
ENDBRANCH   2   9
BRANCH   5  22
ATOM     22  N   UNL     1      10.092  -0.183  24.414  0.00  0.00    -0.252 N 
ATOM     23  H   UNL     1      11.073   0.073  24.301  0.00  0.00    +0.171 HD
BRANCH  22  24
ATOM     24  C   UNL     1       9.186   0.363  23.488  0.00  0.00    +0.045 A 
ATOM     25  C   UNL     1       7.857   0.691  23.785  0.00  0.00    +0.024 A 
ATOM     26  C   UNL     1       7.076   1.412  22.875  0.00  0.00    +0.002 A 
ATOM     27  C   UNL     1       7.617   1.823  21.660  0.00  0.00    +0.000 A 
ATOM     28  C   UNL     1       8.923   1.474  21.333  0.00  0.00    +0.002 A 
ATOM     29  C   UNL     1       9.694   0.737  22.234  0.00  0.00    +0.024 A 
ENDBRANCH  22  24
ENDBRANCH   5  22
TORSDOF 5
ENDMDL
MODEL 4
REMARK VINA RESULT:      -7.1      1.804      2.587
REMARK  Name = 
REMARK  6 active torsions:
REMARK  status: ('A' for Active; 'I' for Inactive)
REMARK    1  A    between atoms: C_1  and  C_2
REMARK    2  A    between atoms: C_2  and  C_16
REMARK    3  A    between atoms: N_6  and  N_7
REMARK    4  A    between atoms: N_7  and  C_8
REMARK    5  A    between atoms: C_19  and  O_20
REMARK    6  A    between atoms: O_20  and  C_21
REMARK                            x       y       z     vdW  Elec       q    Type
REMARK                         _______ _______ _______ _____ _____    ______ ____
ROOT
ATOM      1  C   UNL     1       9.556  -3.012  24.075  0.00  0.00    +0.071 C 
ATOM      2  C   UNL     1       8.252  -2.342  23.637  0.00  0.00    +0.214 C 
ATOM      3  C   UNL     1       7.091  -2.844  24.472  0.00  0.00    +0.289 C 
ATOM      4  O   UNL     1       6.909  -2.598  25.658  0.00  0.00    -0.269 OA
ATOM      5  N   UNL     1       6.292  -3.575  23.628  0.00  0.00    -0.119 N 
ATOM      6  C   UNL     1       6.688  -3.377  22.344  0.00  0.00    +0.428 C 
ATOM      7  O   UNL     1       6.032  -3.592  21.333  0.00  0.00    -0.224 OA
ATOM      8  O   UNL     1       7.929  -2.811  22.315  0.00  0.00    -0.428 OA
ENDROOT
BRANCH   2   9
ATOM      9  C   UNL     1       8.363  -0.817  23.669  0.00  0.00    +0.005 A 
ATOM     10  C   UNL     1       8.716  -0.165  24.864  0.00  0.00    +0.011 A 
ATOM     11  C   UNL     1       8.822   1.223  24.928  0.00  0.00    +0.046 A 
ATOM     12  C   UNL     1       8.497   2.003  23.818  0.00  0.00    +0.128 A 
ATOM     13  C   UNL     1       8.186   1.375  22.613  0.00  0.00    +0.046 A 
ATOM     14  C   UNL     1       8.121  -0.021  22.536  0.00  0.00    +0.011 A 
BRANCH  12  15
ATOM     15  O   UNL     1       8.492   3.382  23.810  0.00  0.00    -0.456 OA
BRANCH  15  16
ATOM     16  C   UNL     1       9.690   4.064  23.783  0.00  0.00    +0.128 A 
ATOM     17  C   UNL     1      10.899   3.506  23.354  0.00  0.00    +0.046 A 
ATOM     18  C   UNL     1      12.048   4.296  23.278  0.00  0.00    +0.004 A 
ATOM     19  C   UNL     1      12.008   5.623  23.698  0.00  0.00    +0.000 A 
ATOM     20  C   UNL     1      10.826   6.157  24.211  0.00  0.00    +0.004 A 
ATOM     21  C   UNL     1       9.667   5.378  24.254  0.00  0.00    +0.046 A 
ENDBRANCH  15  16
ENDBRANCH  12  15
ENDBRANCH   2   9
BRANCH   5  22
ATOM     22  N   UNL     1       4.935  -3.745  23.914  0.00  0.00    -0.252 N 
ATOM     23  H   UNL     1       4.299  -3.058  23.509  0.00  0.00    +0.171 HD
BRANCH  22  24
ATOM     24  C   UNL     1       4.425  -5.040  24.107  0.00  0.00    +0.045 A 
ATOM     25  C   UNL     1       4.924  -5.952  25.046  0.00  0.00    +0.024 A 
ATOM     26  C   UNL     1       4.244  -7.144  25.320  0.00  0.00    +0.002 A 
ATOM     27  C   UNL     1       3.050  -7.435  24.666  0.00  0.00    +0.000 A 
ATOM     28  C   UNL     1       2.558  -6.558  23.704  0.00  0.00    +0.002 A 
ATOM     29  C   UNL     1       3.251  -5.379  23.418  0.00  0.00    +0.024 A 
ENDBRANCH  22  24
ENDBRANCH   5  22
TORSDOF 5
ENDMDL
MODEL 5
REMARK VINA RESULT:      -7.1      2.219      8.863
REMARK  Name = 
REMARK  6 active torsions:
REMARK  status: ('A' for Active; 'I' for Inactive)
REMARK    1  A    between atoms: C_1  and  C_2
REMARK    2  A    between atoms: C_2  and  C_16
REMARK    3  A    between atoms: N_6  and  N_7
REMARK    4  A    between atoms: N_7  and  C_8
REMARK    5  A    between atoms: C_19  and  O_20
REMARK    6  A    between atoms: O_20  and  C_21
REMARK                            x       y       z     vdW  Elec       q    Type
REMARK                         _______ _______ _______ _____ _____    ______ ____
ROOT
ATOM      1  C   UNL     1       9.302  -5.271  24.973  0.00  0.00    +0.071 C 
ATOM      2  C   UNL     1       8.071  -4.378  25.136  0.00  0.00    +0.214 C 
ATOM      3  C   UNL     1       8.056  -3.295  24.075  0.00  0.00    +0.289 C 
ATOM      4  O   UNL     1       7.864  -3.474  22.878  0.00  0.00    -0.269 OA
ATOM      5  N   UNL     1       8.257  -2.105  24.731  0.00  0.00    -0.119 N 
ATOM      6  C   UNL     1       8.146  -2.302  26.070  0.00  0.00    +0.428 C 
ATOM      7  O   UNL     1       7.942  -1.446  26.922  0.00  0.00    -0.224 OA
ATOM      8  O   UNL     1       8.215  -3.633  26.359  0.00  0.00    -0.428 OA
ENDROOT
BRANCH   2   9
ATOM      9  C   UNL     1       6.778  -5.195  25.137  0.00  0.00    +0.005 A 
ATOM     10  C   UNL     1       6.142  -5.502  23.921  0.00  0.00    +0.011 A 
ATOM     11  C   UNL     1       4.960  -6.241  23.887  0.00  0.00    +0.046 A 
ATOM     12  C   UNL     1       4.339  -6.624  25.076  0.00  0.00    +0.128 A 
ATOM     13  C   UNL     1       4.975  -6.366  26.290  0.00  0.00    +0.046 A 
ATOM     14  C   UNL     1       6.184  -5.660  26.322  0.00  0.00    +0.011 A 
BRANCH  12  15
ATOM     15  O   UNL     1       3.130  -7.284  25.145  0.00  0.00    -0.456 OA
BRANCH  15  16
ATOM     16  C   UNL     1       2.211  -7.124  24.129  0.00  0.00    +0.128 A 
ATOM     17  C   UNL     1       1.592  -5.908  23.819  0.00  0.00    +0.046 A 
ATOM     18  C   UNL     1       0.737  -5.818  22.719  0.00  0.00    +0.004 A 
ATOM     19  C   UNL     1       0.443  -6.957  21.971  0.00  0.00    +0.000 A 
ATOM     20  C   UNL     1       0.988  -8.188  22.334  0.00  0.00    +0.004 A 
ATOM     21  C   UNL     1       1.872  -8.272  23.413  0.00  0.00    +0.046 A 
ENDBRANCH  15  16
ENDBRANCH  12  15
ENDBRANCH   2   9
BRANCH   5  22
ATOM     22  N   UNL     1       7.809  -0.908  24.169  0.00  0.00    -0.252 N 
ATOM     23  H   UNL     1       6.962  -0.508  24.574  0.00  0.00    +0.171 HD
BRANCH  22  24
ATOM     24  C   UNL     1       8.741  -0.001  23.635  0.00  0.00    +0.045 A 
ATOM     25  C   UNL     1       9.016   0.132  22.268  0.00  0.00    +0.024 A 
ATOM     26  C   UNL     1       9.805   1.187  21.795  0.00  0.00    +0.002 A 
ATOM     27  C   UNL     1      10.323   2.127  22.682  0.00  0.00    +0.000 A 
ATOM     28  C   UNL     1      10.090   1.989  24.047  0.00  0.00    +0.002 A 
ATOM     29  C   UNL     1       9.319   0.924  24.518  0.00  0.00    +0.024 A 
ENDBRANCH  22  24
ENDBRANCH   5  22
TORSDOF 5
ENDMDL
MODEL 6
REMARK VINA RESULT:      -7.0      2.734      9.105
REMARK  Name = 
REMARK  6 active torsions:
REMARK  status: ('A' for Active; 'I' for Inactive)
REMARK    1  A    between atoms: C_1  and  C_2
REMARK    2  A    between atoms: C_2  and  C_16
REMARK    3  A    between atoms: N_6  and  N_7
REMARK    4  A    between atoms: N_7  and  C_8
REMARK    5  A    between atoms: C_19  and  O_20
REMARK    6  A    between atoms: O_20  and  C_21
REMARK                            x       y       z     vdW  Elec       q    Type
REMARK                         _______ _______ _______ _____ _____    ______ ____
ROOT
ATOM      1  C   UNL     1      10.118  -1.201  23.639  0.00  0.00    +0.071 C 
ATOM      2  C   UNL     1       8.669  -0.749  23.825  0.00  0.00    +0.214 C 
ATOM      3  C   UNL     1       8.415   0.541  23.069  0.00  0.00    +0.289 C 
ATOM      4  O   UNL     1       8.375   0.655  21.850  0.00  0.00    -0.269 OA
ATOM      5  N   UNL     1       8.204   1.512  24.017  0.00  0.00    -0.119 N 
ATOM      6  C   UNL     1       8.055   0.932  25.235  0.00  0.00    +0.428 C 
ATOM      7  O   UNL     1       7.543   1.432  26.228  0.00  0.00    -0.224 OA
ATOM      8  O   UNL     1       8.494  -0.360  25.199  0.00  0.00    -0.428 OA
ENDROOT
BRANCH   2   9
ATOM      9  C   UNL     1       7.680  -1.847  23.432  0.00  0.00    +0.005 A 
ATOM     10  C   UNL     1       8.104  -2.912  22.617  0.00  0.00    +0.011 A 
ATOM     11  C   UNL     1       7.226  -3.927  22.237  0.00  0.00    +0.046 A 
ATOM     12  C   UNL     1       5.880  -3.861  22.596  0.00  0.00    +0.128 A 
ATOM     13  C   UNL     1       5.451  -2.837  23.439  0.00  0.00    +0.046 A 
ATOM     14  C   UNL     1       6.341  -1.839  23.856  0.00  0.00    +0.011 A 
BRANCH  12  15
ATOM     15  O   UNL     1       4.924  -4.771  22.200  0.00  0.00    -0.456 OA
BRANCH  15  16
ATOM     16  C   UNL     1       4.219  -5.473  23.156  0.00  0.00    +0.128 A 
ATOM     17  C   UNL     1       2.841  -5.347  23.360  0.00  0.00    +0.046 A 
ATOM     18  C   UNL     1       2.194  -6.160  24.293  0.00  0.00    +0.004 A 
ATOM     19  C   UNL     1       2.933  -7.047  25.073  0.00  0.00    +0.000 A 
ATOM     20  C   UNL     1       4.319  -7.110  24.934  0.00  0.00    +0.004 A 
ATOM     21  C   UNL     1       4.963  -6.323  23.975  0.00  0.00    +0.046 A 
ENDBRANCH  15  16
ENDBRANCH  12  15
ENDBRANCH   2   9
BRANCH   5  22
ATOM     22  N   UNL     1       7.464   2.655  23.701  0.00  0.00    -0.252 N 
ATOM     23  H   UNL     1       6.539   2.724  24.125  0.00  0.00    +0.171 HD
BRANCH  22  24
ATOM     24  C   UNL     1       8.134   3.864  23.443  0.00  0.00    +0.045 A 
ATOM     25  C   UNL     1       7.570   4.945  22.755  0.00  0.00    +0.024 A 
ATOM     26  C   UNL     1       8.220   6.184  22.710  0.00  0.00    +0.002 A 
ATOM     27  C   UNL     1       9.439   6.359  23.360  0.00  0.00    +0.000 A 
ATOM     28  C   UNL     1      10.031   5.285  24.017  0.00  0.00    +0.002 A 
ATOM     29  C   UNL     1       9.389   4.045  24.043  0.00  0.00    +0.024 A 
ENDBRANCH  22  24
ENDBRANCH   5  22
TORSDOF 5
ENDMDL
MODEL 7
REMARK VINA RESULT:      -6.9      3.239      9.447
REMARK  Name = 
REMARK  6 active torsions:
REMARK  status: ('A' for Active; 'I' for Inactive)
REMARK    1  A    between atoms: C_1  and  C_2
REMARK    2  A    between atoms: C_2  and  C_16
REMARK    3  A    between atoms: N_6  and  N_7
REMARK    4  A    between atoms: N_7  and  C_8
REMARK    5  A    between atoms: C_19  and  O_20
REMARK    6  A    between atoms: O_20  and  C_21
REMARK                            x       y       z     vdW  Elec       q    Type
REMARK                         _______ _______ _______ _____ _____    ______ ____
ROOT
ATOM      1  C   UNL     1       5.483   1.211  24.712  0.00  0.00    +0.071 C 
ATOM      2  C   UNL     1       6.713   0.594  24.043  0.00  0.00    +0.214 C 
ATOM      3  C   UNL     1       7.979   1.263  24.541  0.00  0.00    +0.289 C 
ATOM      4  O   UNL     1       8.443   1.157  25.670  0.00  0.00    -0.269 OA
ATOM      5  N   UNL     1       8.497   1.958  23.476  0.00  0.00    -0.119 N 
ATOM      6  C   UNL     1       7.845   1.598  22.340  0.00  0.00    +0.428 C 
ATOM      7  O   UNL     1       8.236   1.753  21.191  0.00  0.00    -0.224 OA
ATOM      8  O   UNL     1       6.687   0.945  22.648  0.00  0.00    -0.428 OA
ENDROOT
BRANCH   2   9
ATOM      9  C   UNL     1       6.756  -0.923  24.230  0.00  0.00    +0.005 A 
ATOM     10  C   UNL     1       5.610  -1.606  24.676  0.00  0.00    +0.011 A 
ATOM     11  C   UNL     1       5.617  -2.988  24.860  0.00  0.00    +0.046 A 
ATOM     12  C   UNL     1       6.795  -3.714  24.682  0.00  0.00    +0.128 A 
ATOM     13  C   UNL     1       7.929  -3.061  24.200  0.00  0.00    +0.046 A 
ATOM     14  C   UNL     1       7.911  -1.680  23.973  0.00  0.00    +0.011 A 
BRANCH  12  15
ATOM     15  O   UNL     1       6.920  -5.066  24.919  0.00  0.00    -0.456 OA
BRANCH  15  16
ATOM     16  C   UNL     1       6.295  -5.623  26.015  0.00  0.00    +0.128 A 
ATOM     17  C   UNL     1       5.107  -6.358  25.948  0.00  0.00    +0.046 A 
ATOM     18  C   UNL     1       4.590  -6.960  27.097  0.00  0.00    +0.004 A 
ATOM     19  C   UNL     1       5.219  -6.768  28.326  0.00  0.00    +0.000 A 
ATOM     20  C   UNL     1       6.353  -5.960  28.410  0.00  0.00    +0.004 A 
ATOM     21  C   UNL     1       6.892  -5.388  27.254  0.00  0.00    +0.046 A 
ENDBRANCH  15  16
ENDBRANCH  12  15
ENDBRANCH   2   9
BRANCH   5  22
ATOM     22  N   UNL     1       9.861   2.253  23.425  0.00  0.00    -0.252 N 
ATOM     23  H   UNL     1      10.435   1.636  22.851  0.00  0.00    +0.171 HD
BRANCH  22  24
ATOM     24  C   UNL     1      10.285   3.589  23.535  0.00  0.00    +0.045 A 
ATOM     25  C   UNL     1       9.489   4.630  24.030  0.00  0.00    +0.024 A 
ATOM     26  C   UNL     1      10.039   5.889  24.296  0.00  0.00    +0.002 A 
ATOM     27  C   UNL     1      11.395   6.121  24.078  0.00  0.00    +0.000 A 
ATOM     28  C   UNL     1      12.192   5.110  23.553  0.00  0.00    +0.002 A 
ATOM     29  C   UNL     1      11.636   3.860  23.270  0.00  0.00    +0.024 A 
ENDBRANCH  22  24
ENDBRANCH   5  22
TORSDOF 5
ENDMDL
MODEL 8
REMARK VINA RESULT:      -6.9      3.431      8.665
REMARK  Name = 
REMARK  6 active torsions:
REMARK  status: ('A' for Active; 'I' for Inactive)
REMARK    1  A    between atoms: C_1  and  C_2
REMARK    2  A    between atoms: C_2  and  C_16
REMARK    3  A    between atoms: N_6  and  N_7
REMARK    4  A    between atoms: N_7  and  C_8
REMARK    5  A    between atoms: C_19  and  O_20
REMARK    6  A    between atoms: O_20  and  C_21
REMARK                            x       y       z     vdW  Elec       q    Type
REMARK                         _______ _______ _______ _____ _____    ______ ____
ROOT
ATOM      1  C   UNL     1      10.212   2.322  22.194  0.00  0.00    +0.071 C 
ATOM      2  C   UNL     1       9.243   1.835  23.274  0.00  0.00    +0.214 C 
ATOM      3  C   UNL     1       7.812   2.141  22.880  0.00  0.00    +0.289 C 
ATOM      4  O   UNL     1       7.193   1.600  21.972  0.00  0.00    -0.269 OA
ATOM      5  N   UNL     1       7.362   3.095  23.760  0.00  0.00    -0.119 N 
ATOM      6  C   UNL     1       8.248   3.225  24.780  0.00  0.00    +0.428 C 
ATOM      7  O   UNL     1       8.034   3.720  25.879  0.00  0.00    -0.224 OA
ATOM      8  O   UNL     1       9.438   2.645  24.448  0.00  0.00    -0.428 OA
ENDROOT
BRANCH   2   9
ATOM      9  C   UNL     1       9.446   0.352  23.587  0.00  0.00    +0.005 A 
ATOM     10  C   UNL     1       9.913  -0.518  22.585  0.00  0.00    +0.011 A 
ATOM     11  C   UNL     1      10.105  -1.876  22.837  0.00  0.00    +0.046 A 
ATOM     12  C   UNL     1       9.757  -2.416  24.075  0.00  0.00    +0.128 A 
ATOM     13  C   UNL     1       9.333  -1.564  25.094  0.00  0.00    +0.046 A 
ATOM     14  C   UNL     1       9.181  -0.192  24.855  0.00  0.00    +0.011 A 
BRANCH  12  15
ATOM     15  O   UNL     1       9.834  -3.756  24.388  0.00  0.00    -0.456 OA
BRANCH  15  16
ATOM     16  C   UNL     1       8.755  -4.377  24.982  0.00  0.00    +0.128 A 
ATOM     17  C   UNL     1       8.731  -4.799  26.315  0.00  0.00    +0.046 A 
ATOM     18  C   UNL     1       7.565  -5.341  26.858  0.00  0.00    +0.004 A 
ATOM     19  C   UNL     1       6.445  -5.531  26.051  0.00  0.00    +0.000 A 
ATOM     20  C   UNL     1       6.496  -5.196  24.698  0.00  0.00    +0.004 A 
ATOM     21  C   UNL     1       7.651  -4.618  24.163  0.00  0.00    +0.046 A 
ENDBRANCH  15  16
ENDBRANCH  12  15
ENDBRANCH   2   9
BRANCH   5  22
ATOM     22  N   UNL     1       5.994   3.230  24.011  0.00  0.00    -0.252 N 
ATOM     23  H   UNL     1       5.650   2.808  24.874  0.00  0.00    +0.171 HD
BRANCH  22  24
ATOM     24  C   UNL     1       5.315   4.373  23.553  0.00  0.00    +0.045 A 
ATOM     25  C   UNL     1       5.876   5.656  23.506  0.00  0.00    +0.024 A 
ATOM     26  C   UNL     1       5.214   6.703  22.855  0.00  0.00    +0.002 A 
ATOM     27  C   UNL     1       3.987   6.479  22.237  0.00  0.00    +0.000 A 
ATOM     28  C   UNL     1       3.399   5.221  22.306  0.00  0.00    +0.002 A 
ATOM     29  C   UNL     1       4.052   4.182  22.973  0.00  0.00    +0.024 A 
ENDBRANCH  22  24
ENDBRANCH   5  22
TORSDOF 5
ENDMDL
MODEL 9
REMARK VINA RESULT:      -6.9      2.094      3.329
REMARK  Name = 
REMARK  6 active torsions:
REMARK  status: ('A' for Active; 'I' for Inactive)
REMARK    1  A    between atoms: C_1  and  C_2
REMARK    2  A    between atoms: C_2  and  C_16
REMARK    3  A    between atoms: N_6  and  N_7
REMARK    4  A    between atoms: N_7  and  C_8
REMARK    5  A    between atoms: C_19  and  O_20
REMARK    6  A    between atoms: O_20  and  C_21
REMARK                            x       y       z     vdW  Elec       q    Type
REMARK                         _______ _______ _______ _____ _____    ______ ____
ROOT
ATOM      1  C   UNL     1      10.068  -1.976  23.289  0.00  0.00    +0.071 C 
ATOM      2  C   UNL     1       8.613  -1.539  23.116  0.00  0.00    +0.214 C 
ATOM      3  C   UNL     1       7.763  -2.057  24.260  0.00  0.00    +0.289 C 
ATOM      4  O   UNL     1       7.822  -1.672  25.421  0.00  0.00    -0.269 OA
ATOM      5  N   UNL     1       6.913  -2.991  23.721  0.00  0.00    -0.119 N 
ATOM      6  C   UNL     1       6.971  -2.927  22.366  0.00  0.00    +0.428 C 
ATOM      7  O   UNL     1       6.141  -3.360  21.576  0.00  0.00    -0.224 OA
ATOM      8  O   UNL     1       8.072  -2.224  21.972  0.00  0.00    -0.428 OA
ENDROOT
BRANCH   2   9
ATOM      9  C   UNL     1       8.495  -0.022  22.957  0.00  0.00    +0.005 A 
ATOM     10  C   UNL     1       9.654   0.758  22.795  0.00  0.00    +0.011 A 
ATOM     11  C   UNL     1       9.581   2.143  22.652  0.00  0.00    +0.046 A 
ATOM     12  C   UNL     1       8.352   2.794  22.748  0.00  0.00    +0.128 A 
ATOM     13  C   UNL     1       7.188   2.035  22.866  0.00  0.00    +0.046 A 
ATOM     14  C   UNL     1       7.256   0.641  22.967  0.00  0.00    +0.011 A 
BRANCH  12  15
ATOM     15  O   UNL     1       8.190   4.162  22.701  0.00  0.00    -0.456 OA
BRANCH  15  16
ATOM     16  C   UNL     1       8.690   4.940  23.724  0.00  0.00    +0.128 A 
ATOM     17  C   UNL     1       9.823   5.751  23.608  0.00  0.00    +0.046 A 
ATOM     18  C   UNL     1      10.209   6.572  24.669  0.00  0.00    +0.004 A 
ATOM     19  C   UNL     1       9.506   6.531  25.872  0.00  0.00    +0.000 A 
ATOM     20  C   UNL     1       8.430   5.656  26.020  0.00  0.00    +0.004 A 
ATOM     21  C   UNL     1       8.021   4.861  24.947  0.00  0.00    +0.046 A 
ENDBRANCH  15  16
ENDBRANCH  12  15
ENDBRANCH   2   9
BRANCH   5  22
ATOM     22  N   UNL     1       5.700  -3.283  24.348  0.00  0.00    -0.252 N 
ATOM     23  H   UNL     1       4.879  -2.791  23.994  0.00  0.00    +0.171 HD
BRANCH  22  24
ATOM     24  C   UNL     1       5.486  -4.568  24.879  0.00  0.00    +0.045 A 
ATOM     25  C   UNL     1       5.810  -4.942  26.189  0.00  0.00    +0.024 A 
ATOM     26  C   UNL     1       5.388  -6.172  26.708  0.00  0.00    +0.002 A 
ATOM     27  C   UNL     1       4.630  -7.039  25.926  0.00  0.00    +0.000 A 
ATOM     28  C   UNL     1       4.331  -6.699  24.611  0.00  0.00    +0.002 A 
ATOM     29  C   UNL     1       4.770  -5.480  24.089  0.00  0.00    +0.024 A 
ENDBRANCH  22  24
ENDBRANCH   5  22
TORSDOF 5
ENDMDL
