MODEL 1
REMARK VINA RESULT:      -7.1      0.000      0.000
REMARK  Name = 
REMARK  10 active torsions:
REMARK  status: ('A' for Active; 'I' for Inactive)
REMARK    1  A    between atoms: C_2  and  C_24
REMARK    2  A    between atoms: C_8  and  O_10
REMARK    3  A    between atoms: O_10  and  C_11
REMARK    4  A    between atoms: C_11  and  C_12
REMARK    5  A    between atoms: C_11  and  C_13
REMARK    6  A    between atoms: C_11  and  C_14
REMARK    7  A    between atoms: C_16  and  N_17
REMARK    8  A    between atoms: N_17  and  S_18
REMARK    9  A    between atoms: S_18  and  O_19
REMARK   10  A    between atoms: N_26  and  C_27
REMARK                            x       y       z     vdW  Elec       q    Type
REMARK                         _______ _______ _______ _____ _____    ______ ____
ROOT
ATOM      1  C   UNL     1       8.803  -2.736  23.871  0.00  0.00    +0.170 C 
ATOM      2  N   UNL     1       8.361  -1.999  25.065  0.00  0.00    -0.251 N 
ATOM      3  C   UNL     1       7.217  -2.155  25.825  0.00  0.00    +0.404 C 
ATOM      4  O   UNL     1       7.028  -1.496  26.835  0.00  0.00    -0.226 OA
ATOM      5  C   UNL     1       9.160  -0.807  25.336  0.00  0.00    +0.147 C 
ATOM      6  C   UNL     1       9.396   0.032  24.094  0.00  0.00    -0.025 A 
ATOM      7  C   UNL     1       9.844   1.354  24.247  0.00  0.00    +0.030 A 
ATOM      8  C   UNL     1      10.049   2.166  23.134  0.00  0.00    +0.050 A 
ATOM      9  C   UNL     1       9.886   1.650  21.851  0.00  0.00    +0.025 A 
ATOM     10  C   UNL     1       9.458   0.329  21.683  0.00  0.00    +0.006 A 
ATOM     11  C   UNL     1       9.198  -0.485  22.796  0.00  0.00    -0.040 A 
ATOM     12  C   UNL     1       8.642  -1.881  22.603  0.00  0.00    +0.067 C 
ENDROOT
BRANCH   1  13
ATOM     13  C   UNL     1       8.422  -4.208  23.622  0.00  0.00    +0.234 C 
ATOM     14  N   UNL     1       7.487  -4.419  22.634  0.00  0.00    -0.317 N 
ATOM     15  H   UNL     1       6.768  -3.705  22.559  0.00  0.00    +0.148 HD
ATOM     16  C   UNL     1       7.142  -5.762  22.243  0.00  0.00    +0.128 C 
ATOM     17  O   UNL     1       8.967  -5.129  24.228  0.00  0.00    -0.274 OA
ENDBRANCH   1  13
BRANCH   8  18
ATOM     18  N   UNL     1      10.400   3.530  23.342  0.00  0.00    -0.197 N 
ATOM     19  H   UNL     1      11.163   3.682  23.999  0.00  0.00    +0.176 HD
BRANCH  18  20
ATOM     20  S   UNL     1       9.171   4.627  23.648  0.00  0.00    +0.164 S 
ATOM     21  O   UNL     1       9.152   4.834  25.077  0.00  0.00    -0.127 OA
ATOM     22  O   UNL     1       7.987   4.226  22.926  0.00  0.00    -0.127 OA
BRANCH  20  23
ATOM     23  O   UNL     1       9.686   5.978  22.951  0.00  0.00    -0.238 OA
ATOM     24  H   UNL     1       9.777   5.791  21.993  0.00  0.00    +0.246 HD
ENDBRANCH  20  23
ENDBRANCH  18  20
ENDBRANCH   8  18
BRANCH   3  25
ATOM     25  O   UNL     1       6.331  -3.083  25.368  0.00  0.00    -0.445 OA
BRANCH  25  26
ATOM     26  C   UNL     1       5.890  -4.130  26.296  0.00  0.00    +0.107 C 
ATOM     27  C   UNL     1       7.067  -4.689  27.113  0.00  0.00    +0.055 C 
ATOM     28  C   UNL     1       5.344  -5.275  25.426  0.00  0.00    +0.055 C 
ATOM     29  C   UNL     1       4.746  -3.657  27.210  0.00  0.00    +0.055 C 
ENDBRANCH  25  26
ENDBRANCH   3  25
TORSDOF 6
ENDMDL
MODEL 2
REMARK VINA RESULT:      -7.1      2.060      2.846
REMARK  Name = 
REMARK  10 active torsions:
REMARK  status: ('A' for Active; 'I' for Inactive)
REMARK    1  A    between atoms: C_2  and  C_24
REMARK    2  A    between atoms: C_8  and  O_10
REMARK    3  A    between atoms: O_10  and  C_11
REMARK    4  A    between atoms: C_11  and  C_12
REMARK    5  A    between atoms: C_11  and  C_13
REMARK    6  A    between atoms: C_11  and  C_14
REMARK    7  A    between atoms: C_16  and  N_17
REMARK    8  A    between atoms: N_17  and  S_18
REMARK    9  A    between atoms: S_18  and  O_19
REMARK   10  A    between atoms: N_26  and  C_27
REMARK                            x       y       z     vdW  Elec       q    Type
REMARK                         _______ _______ _______ _____ _____    ______ ____
ROOT
ATOM      1  C   UNL     1       8.283  -2.058  24.534  0.00  0.00    +0.170 C 
ATOM      2  N   UNL     1       6.838  -1.788  24.601  0.00  0.00    -0.251 N 
ATOM      3  C   UNL     1       5.772  -2.663  24.519  0.00  0.00    +0.404 C 
ATOM      4  O   UNL     1       4.620  -2.281  24.657  0.00  0.00    -0.226 OA
ATOM      5  C   UNL     1       6.512  -0.366  24.532  0.00  0.00    +0.147 C 
ATOM      6  C   UNL     1       7.268   0.353  23.429  0.00  0.00    -0.025 A 
ATOM      7  C   UNL     1       6.822   1.621  23.021  0.00  0.00    +0.030 A 
ATOM      8  C   UNL     1       7.472   2.303  21.994  0.00  0.00    +0.050 A 
ATOM      9  C   UNL     1       8.620   1.769  21.415  0.00  0.00    +0.025 A 
ATOM     10  C   UNL     1       9.085   0.516  21.824  0.00  0.00    +0.006 A 
ATOM     11  C   UNL     1       8.411  -0.206  22.821  0.00  0.00    -0.040 A 
ATOM     12  C   UNL     1       8.869  -1.604  23.187  0.00  0.00    +0.067 C 
ENDROOT
BRANCH   1  13
ATOM     13  C   UNL     1       8.895  -3.389  25.007  0.00  0.00    +0.234 C 
ATOM     14  N   UNL     1       8.363  -3.908  26.166  0.00  0.00    -0.317 N 
ATOM     15  H   UNL     1       8.084  -3.220  26.860  0.00  0.00    +0.148 HD
ATOM     16  C   UNL     1       8.784  -5.203  26.636  0.00  0.00    +0.128 C 
ATOM     17  O   UNL     1       9.758  -3.973  24.354  0.00  0.00    -0.274 OA
ENDBRANCH   1  13
BRANCH   8  18
ATOM     18  N   UNL     1       6.921   3.536  21.542  0.00  0.00    -0.197 N 
ATOM     19  H   UNL     1       7.091   3.747  20.560  0.00  0.00    +0.176 HD
BRANCH  18  20
ATOM     20  S   UNL     1       7.186   4.909  22.464  0.00  0.00    +0.164 S 
ATOM     21  O   UNL     1       8.405   4.678  23.203  0.00  0.00    -0.127 OA
ATOM     22  O   UNL     1       5.958   5.279  23.127  0.00  0.00    -0.127 OA
BRANCH  20  23
ATOM     23  O   UNL     1       7.469   6.050  21.371  0.00  0.00    -0.238 OA
ATOM     24  H   UNL     1       7.484   6.907  21.847  0.00  0.00    +0.246 HD
ENDBRANCH  20  23
ENDBRANCH  18  20
ENDBRANCH   8  18
BRANCH   3  25
ATOM     25  O   UNL     1       6.098  -3.964  24.277  0.00  0.00    -0.445 OA
BRANCH  25  26
ATOM     26  C   UNL     1       5.854  -4.497  22.932  0.00  0.00    +0.107 C 
ATOM     27  C   UNL     1       4.561  -5.328  22.883  0.00  0.00    +0.055 C 
ATOM     28  C   UNL     1       7.027  -5.443  22.626  0.00  0.00    +0.055 C 
ATOM     29  C   UNL     1       5.856  -3.395  21.858  0.00  0.00    +0.055 C 
ENDBRANCH  25  26
ENDBRANCH   3  25
TORSDOF 6
ENDMDL
MODEL 3
REMARK VINA RESULT:      -6.8      1.824      2.376
REMARK  Name = 
REMARK  10 active torsions:
REMARK  status: ('A' for Active; 'I' for Inactive)
REMARK    1  A    between atoms: C_2  and  C_24
REMARK    2  A    between atoms: C_8  and  O_10
REMARK    3  A    between atoms: O_10  and  C_11
REMARK    4  A    between atoms: C_11  and  C_12
REMARK    5  A    between atoms: C_11  and  C_13
REMARK    6  A    between atoms: C_11  and  C_14
REMARK    7  A    between atoms: C_16  and  N_17
REMARK    8  A    between atoms: N_17  and  S_18
REMARK    9  A    between atoms: S_18  and  O_19
REMARK   10  A    between atoms: N_26  and  C_27
REMARK                            x       y       z     vdW  Elec       q    Type
REMARK                         _______ _______ _______ _____ _____    ______ ____
ROOT
ATOM      1  C   UNL     1       7.585  -3.866  22.986  0.00  0.00    +0.170 C 
ATOM      2  N   UNL     1       8.568  -3.990  24.074  0.00  0.00    -0.251 N 
ATOM      3  C   UNL     1       8.548  -4.801  25.193  0.00  0.00    +0.404 C 
ATOM      4  O   UNL     1       9.484  -4.829  25.978  0.00  0.00    -0.226 OA
ATOM      5  C   UNL     1       9.592  -2.950  24.049  0.00  0.00    +0.147 C 
ATOM      6  C   UNL     1       9.010  -1.563  23.841  0.00  0.00    -0.025 A 
ATOM      7  C   UNL     1       9.809  -0.445  24.127  0.00  0.00    +0.030 A 
ATOM      8  C   UNL     1       9.305   0.845  23.974  0.00  0.00    +0.050 A 
ATOM      9  C   UNL     1       8.026   1.040  23.460  0.00  0.00    +0.025 A 
ATOM     10  C   UNL     1       7.225  -0.064  23.153  0.00  0.00    +0.006 A 
ATOM     11  C   UNL     1       7.701  -1.370  23.351  0.00  0.00    -0.040 A 
ATOM     12  C   UNL     1       6.790  -2.556  23.107  0.00  0.00    +0.067 C 
ENDROOT
BRANCH   1  13
ATOM     13  C   UNL     1       6.692  -5.040  22.545  0.00  0.00    +0.234 C 
ATOM     14  N   UNL     1       5.410  -5.031  23.047  0.00  0.00    -0.317 N 
ATOM     15  H   UNL     1       5.318  -4.671  23.993  0.00  0.00    +0.148 HD
ATOM     16  C   UNL     1       4.457  -6.020  22.610  0.00  0.00    +0.128 C 
ATOM     17  O   UNL     1       7.086  -5.891  21.749  0.00  0.00    -0.274 OA
ENDBRANCH   1  13
BRANCH   8  18
ATOM     18  N   UNL     1      10.115   1.944  24.378  0.00  0.00    -0.197 N 
ATOM     19  H   UNL     1       9.895   2.324  25.298  0.00  0.00    +0.176 HD
BRANCH  18  20
ATOM     20  S   UNL     1      10.343   3.201  23.294  0.00  0.00    +0.164 S 
ATOM     21  O   UNL     1      11.693   3.673  23.490  0.00  0.00    -0.127 OA
ATOM     22  O   UNL     1       9.211   4.096  23.361  0.00  0.00    -0.127 OA
BRANCH  20  23
ATOM     23  O   UNL     1      10.263   2.483  21.860  0.00  0.00    -0.238 OA
ATOM     24  H   UNL     1       9.360   2.638  21.511  0.00  0.00    +0.246 HD
ENDBRANCH  20  23
ENDBRANCH  18  20
ENDBRANCH   8  18
BRANCH   3  25
ATOM     25  O   UNL     1       7.424  -5.553  25.353  0.00  0.00    -0.445 OA
BRANCH  25  26
ATOM     26  C   UNL     1       6.543  -5.245  26.485  0.00  0.00    +0.107 C 
ATOM     27  C   UNL     1       7.189  -5.642  27.823  0.00  0.00    +0.055 C 
ATOM     28  C   UNL     1       5.286  -6.111  26.300  0.00  0.00    +0.055 C 
ATOM     29  C   UNL     1       6.094  -3.773  26.492  0.00  0.00    +0.055 C 
ENDBRANCH  25  26
ENDBRANCH   3  25
TORSDOF 6
ENDMDL
MODEL 4
REMARK VINA RESULT:      -6.6      1.630      2.341
REMARK  Name = 
REMARK  10 active torsions:
REMARK  status: ('A' for Active; 'I' for Inactive)
REMARK    1  A    between atoms: C_2  and  C_24
REMARK    2  A    between atoms: C_8  and  O_10
REMARK    3  A    between atoms: O_10  and  C_11
REMARK    4  A    between atoms: C_11  and  C_12
REMARK    5  A    between atoms: C_11  and  C_13
REMARK    6  A    between atoms: C_11  and  C_14
REMARK    7  A    between atoms: C_16  and  N_17
REMARK    8  A    between atoms: N_17  and  S_18
REMARK    9  A    between atoms: S_18  and  O_19
REMARK   10  A    between atoms: N_26  and  C_27
REMARK                            x       y       z     vdW  Elec       q    Type
REMARK                         _______ _______ _______ _____ _____    ______ ____
ROOT
ATOM      1  C   UNL     1       7.215  -2.498  22.304  0.00  0.00    +0.170 C 
ATOM      2  N   UNL     1       8.546  -2.613  22.920  0.00  0.00    -0.251 N 
ATOM      3  C   UNL     1       8.995  -3.483  23.895  0.00  0.00    +0.404 C 
ATOM      4  O   UNL     1      10.161  -3.489  24.258  0.00  0.00    -0.226 OA
ATOM      5  C   UNL     1       9.434  -1.503  22.587  0.00  0.00    +0.147 C 
ATOM      6  C   UNL     1       8.757  -0.152  22.725  0.00  0.00    -0.025 A 
ATOM      7  C   UNL     1       9.556   1.003  22.771  0.00  0.00    +0.030 A 
ATOM      8  C   UNL     1       8.976   2.260  22.924  0.00  0.00    +0.050 A 
ATOM      9  C   UNL     1       7.590   2.393  22.954  0.00  0.00    +0.025 A 
ATOM     10  C   UNL     1       6.782   1.254  22.891  0.00  0.00    +0.006 A 
ATOM     11  C   UNL     1       7.354  -0.024  22.789  0.00  0.00    -0.040 A 
ATOM     12  C   UNL     1       6.472  -1.256  22.820  0.00  0.00    +0.067 C 
ENDROOT
BRANCH   1  13
ATOM     13  C   UNL     1       6.273  -3.706  22.146  0.00  0.00    +0.234 C 
ATOM     14  N   UNL     1       6.875  -4.880  21.751  0.00  0.00    -0.317 N 
ATOM     15  H   UNL     1       7.650  -4.771  21.103  0.00  0.00    +0.148 HD
ATOM     16  C   UNL     1       6.106  -6.097  21.681  0.00  0.00    +0.128 C 
ATOM     17  O   UNL     1       5.076  -3.633  22.416  0.00  0.00    -0.274 OA
ENDBRANCH   1  13
BRANCH   8  18
ATOM     18  N   UNL     1       9.829   3.390  23.072  0.00  0.00    -0.197 N 
ATOM     19  H   UNL     1      10.773   3.176  23.389  0.00  0.00    +0.176 HD
BRANCH  18  20
ATOM     20  S   UNL     1       9.246   4.720  23.907  0.00  0.00    +0.164 S 
ATOM     21  O   UNL     1       8.786   4.232  25.187  0.00  0.00    -0.127 OA
ATOM     22  O   UNL     1       8.386   5.487  23.037  0.00  0.00    -0.127 OA
BRANCH  20  23
ATOM     23  O   UNL     1      10.554   5.618  24.152  0.00  0.00    -0.238 OA
ATOM     24  H   UNL     1      10.327   6.535  23.889  0.00  0.00    +0.246 HD
ENDBRANCH  20  23
ENDBRANCH  18  20
ENDBRANCH   8  18
BRANCH   3  25
ATOM     25  O   UNL     1       8.054  -4.320  24.413  0.00  0.00    -0.445 OA
BRANCH  25  26
ATOM     26  C   UNL     1       7.493  -3.997  25.730  0.00  0.00    +0.107 C 
ATOM     27  C   UNL     1       7.797  -2.543  26.128  0.00  0.00    +0.055 C 
ATOM     28  C   UNL     1       8.207  -4.914  26.738  0.00  0.00    +0.055 C 
ATOM     29  C   UNL     1       5.987  -4.300  25.815  0.00  0.00    +0.055 C 
ENDBRANCH  25  26
ENDBRANCH   3  25
TORSDOF 6
ENDMDL
MODEL 5
REMARK VINA RESULT:      -6.4      1.490      2.007
REMARK  Name = 
REMARK  10 active torsions:
REMARK  status: ('A' for Active; 'I' for Inactive)
REMARK    1  A    between atoms: C_2  and  C_24
REMARK    2  A    between atoms: C_8  and  O_10
REMARK    3  A    between atoms: O_10  and  C_11
REMARK    4  A    between atoms: C_11  and  C_12
REMARK    5  A    between atoms: C_11  and  C_13
REMARK    6  A    between atoms: C_11  and  C_14
REMARK    7  A    between atoms: C_16  and  N_17
REMARK    8  A    between atoms: N_17  and  S_18
REMARK    9  A    between atoms: S_18  and  O_19
REMARK   10  A    between atoms: N_26  and  C_27
REMARK                            x       y       z     vdW  Elec       q    Type
REMARK                         _______ _______ _______ _____ _____    ______ ____
ROOT
ATOM      1  C   UNL     1       9.267  -2.151  24.347  0.00  0.00    +0.170 C 
ATOM      2  N   UNL     1       8.841  -1.347  25.503  0.00  0.00    -0.251 N 
ATOM      3  C   UNL     1       7.741  -1.498  26.325  0.00  0.00    +0.404 C 
ATOM      4  O   UNL     1       7.562  -0.773  27.292  0.00  0.00    -0.226 OA
ATOM      5  C   UNL     1       9.589  -0.101  25.647  0.00  0.00    +0.147 C 
ATOM      6  C   UNL     1       9.728   0.651  24.336  0.00  0.00    -0.025 A 
ATOM      7  C   UNL     1      10.114   2.000  24.369  0.00  0.00    +0.030 A 
ATOM      8  C   UNL     1      10.229   2.734  23.190  0.00  0.00    +0.050 A 
ATOM      9  C   UNL     1      10.037   2.114  21.958  0.00  0.00    +0.025 A 
ATOM     10  C   UNL     1       9.670   0.765  21.909  0.00  0.00    +0.006 A 
ATOM     11  C   UNL     1       9.500   0.028  23.091  0.00  0.00    -0.040 A 
ATOM     12  C   UNL     1       9.008  -1.405  23.028  0.00  0.00    +0.067 C 
ENDROOT
BRANCH   1  13
ATOM     13  C   UNL     1       8.952  -3.654  24.226  0.00  0.00    +0.234 C 
ATOM     14  N   UNL     1       9.407  -4.440  25.262  0.00  0.00    -0.317 N 
ATOM     15  H   UNL     1      10.295  -4.153  25.664  0.00  0.00    +0.148 HD
ATOM     16  C   UNL     1       9.071  -5.840  25.305  0.00  0.00    +0.128 C 
ATOM     17  O   UNL     1       8.286  -4.103  23.296  0.00  0.00    -0.274 OA
ENDBRANCH   1  13
BRANCH   8  18
ATOM     18  N   UNL     1      10.518   4.125  23.279  0.00  0.00    -0.197 N 
ATOM     19  H   UNL     1      11.332   4.358  23.845  0.00  0.00    +0.176 HD
BRANCH  18  20
ATOM     20  S   UNL     1       9.264   5.174  23.642  0.00  0.00    +0.164 S 
ATOM     21  O   UNL     1       8.060   4.572  23.119  0.00  0.00    -0.127 OA
ATOM     22  O   UNL     1       9.653   6.519  23.288  0.00  0.00    -0.127 OA
BRANCH  20  23
ATOM     23  O   UNL     1       9.190   5.136  25.245  0.00  0.00    -0.238 OA
ATOM     24  H   UNL     1      10.101   4.982  25.572  0.00  0.00    +0.246 HD
ENDBRANCH  20  23
ENDBRANCH  18  20
ENDBRANCH   8  18
BRANCH   3  25
ATOM     25  O   UNL     1       6.884  -2.500  25.981  0.00  0.00    -0.445 OA
BRANCH  25  26
ATOM     26  C   UNL     1       5.633  -2.137  25.307  0.00  0.00    +0.107 C 
ATOM     27  C   UNL     1       5.725  -0.741  24.668  0.00  0.00    +0.055 C 
ATOM     28  C   UNL     1       4.556  -2.077  26.403  0.00  0.00    +0.055 C 
ATOM     29  C   UNL     1       5.192  -3.196  24.282  0.00  0.00    +0.055 C 
ENDBRANCH  25  26
ENDBRANCH   3  25
TORSDOF 6
ENDMDL
MODEL 6
REMARK VINA RESULT:      -6.4      1.942      2.711
REMARK  Name = 
REMARK  10 active torsions:
REMARK  status: ('A' for Active; 'I' for Inactive)
REMARK    1  A    between atoms: C_2  and  C_24
REMARK    2  A    between atoms: C_8  and  O_10
REMARK    3  A    between atoms: O_10  and  C_11
REMARK    4  A    between atoms: C_11  and  C_12
REMARK    5  A    between atoms: C_11  and  C_13
REMARK    6  A    between atoms: C_11  and  C_14
REMARK    7  A    between atoms: C_16  and  N_17
REMARK    8  A    between atoms: N_17  and  S_18
REMARK    9  A    between atoms: S_18  and  O_19
REMARK   10  A    between atoms: N_26  and  C_27
REMARK                            x       y       z     vdW  Elec       q    Type
REMARK                         _______ _______ _______ _____ _____    ______ ____
ROOT
ATOM      1  C   UNL     1       8.350  -2.191  26.045  0.00  0.00    +0.170 C 
ATOM      2  N   UNL     1       7.068  -1.524  25.773  0.00  0.00    -0.251 N 
ATOM      3  C   UNL     1       5.905  -2.035  25.228  0.00  0.00    +0.404 C 
ATOM      4  O   UNL     1       4.896  -1.355  25.124  0.00  0.00    -0.226 OA
ATOM      5  C   UNL     1       7.132  -0.072  25.913  0.00  0.00    +0.147 C 
ATOM      6  C   UNL     1       8.346   0.528  25.228  0.00  0.00    -0.025 A 
ATOM      7  C   UNL     1       8.370   1.911  24.984  0.00  0.00    +0.030 A 
ATOM      8  C   UNL     1       9.454   2.497  24.335  0.00  0.00    +0.050 A 
ATOM      9  C   UNL     1      10.563   1.729  23.990  0.00  0.00    +0.025 A 
ATOM     10  C   UNL     1      10.561   0.354  24.243  0.00  0.00    +0.006 A 
ATOM     11  C   UNL     1       9.454  -0.259  24.849  0.00  0.00    -0.040 A 
ATOM     12  C   UNL     1       9.423  -1.764  25.030  0.00  0.00    +0.067 C 
ENDROOT
BRANCH   1  13
ATOM     13  C   UNL     1       8.444  -3.691  26.381  0.00  0.00    +0.234 C 
ATOM     14  N   UNL     1       7.407  -4.196  27.134  0.00  0.00    -0.317 N 
ATOM     15  H   UNL     1       7.026  -3.559  27.827  0.00  0.00    +0.148 HD
ATOM     16  C   UNL     1       7.337  -5.608  27.410  0.00  0.00    +0.128 C 
ATOM     17  O   UNL     1       9.355  -4.396  25.950  0.00  0.00    -0.274 OA
ENDBRANCH   1  13
BRANCH   8  18
ATOM     18  N   UNL     1       9.387   3.883  24.014  0.00  0.00    -0.197 N 
ATOM     19  H   UNL     1       9.633   4.512  24.776  0.00  0.00    +0.176 HD
BRANCH  18  20
ATOM     20  S   UNL     1       8.016   4.452  23.238  0.00  0.00    +0.164 S 
ATOM     21  O   UNL     1       7.071   4.796  24.274  0.00  0.00    -0.127 OA
ATOM     22  O   UNL     1       7.668   3.548  22.167  0.00  0.00    -0.127 OA
BRANCH  20  23
ATOM     23  O   UNL     1       8.512   5.808  22.538  0.00  0.00    -0.238 OA
ATOM     24  H   UNL     1       8.290   6.544  23.146  0.00  0.00    +0.246 HD
ENDBRANCH  20  23
ENDBRANCH  18  20
ENDBRANCH   8  18
BRANCH   3  25
ATOM     25  O   UNL     1       5.970  -3.333  24.820  0.00  0.00    -0.445 OA
BRANCH  25  26
ATOM     26  C   UNL     1       6.072  -3.600  23.381  0.00  0.00    +0.107 C 
ATOM     27  C   UNL     1       4.721  -4.045  22.796  0.00  0.00    +0.055 C 
ATOM     28  C   UNL     1       7.054  -4.774  23.231  0.00  0.00    +0.055 C 
ATOM     29  C   UNL     1       6.655  -2.407  22.605  0.00  0.00    +0.055 C 
ENDBRANCH  25  26
ENDBRANCH   3  25
TORSDOF 6
ENDMDL
MODEL 7
REMARK VINA RESULT:      -6.3      1.744      2.630
REMARK  Name = 
REMARK  10 active torsions:
REMARK  status: ('A' for Active; 'I' for Inactive)
REMARK    1  A    between atoms: C_2  and  C_24
REMARK    2  A    between atoms: C_8  and  O_10
REMARK    3  A    between atoms: O_10  and  C_11
REMARK    4  A    between atoms: C_11  and  C_12
REMARK    5  A    between atoms: C_11  and  C_13
REMARK    6  A    between atoms: C_11  and  C_14
REMARK    7  A    between atoms: C_16  and  N_17
REMARK    8  A    between atoms: N_17  and  S_18
REMARK    9  A    between atoms: S_18  and  O_19
REMARK   10  A    between atoms: N_26  and  C_27
REMARK                            x       y       z     vdW  Elec       q    Type
REMARK                         _______ _______ _______ _____ _____    ______ ____
ROOT
ATOM      1  C   UNL     1       8.249  -2.409  25.623  0.00  0.00    +0.170 C 
ATOM      2  N   UNL     1       6.942  -1.808  25.314  0.00  0.00    -0.251 N 
ATOM      3  C   UNL     1       5.774  -2.409  24.883  0.00  0.00    +0.404 C 
ATOM      4  O   UNL     1       4.746  -1.769  24.729  0.00  0.00    -0.226 OA
ATOM      5  C   UNL     1       6.975  -0.349  25.261  0.00  0.00    +0.147 C 
ATOM      6  C   UNL     1       8.150   0.179  24.459  0.00  0.00    -0.025 A 
ATOM      7  C   UNL     1       8.132   1.518  24.036  0.00  0.00    +0.030 A 
ATOM      8  C   UNL     1       9.179   2.036  23.276  0.00  0.00    +0.050 A 
ATOM      9  C   UNL     1      10.294   1.251  22.994  0.00  0.00    +0.025 A 
ATOM     10  C   UNL     1      10.334  -0.079  23.424  0.00  0.00    +0.006 A 
ATOM     11  C   UNL     1       9.263  -0.629  24.146  0.00  0.00    -0.040 A 
ATOM     12  C   UNL     1       9.275  -2.097  24.522  0.00  0.00    +0.067 C 
ENDROOT
BRANCH   1  13
ATOM     13  C   UNL     1       8.390  -3.850  26.148  0.00  0.00    +0.234 C 
ATOM     14  N   UNL     1       7.380  -4.279  26.979  0.00  0.00    -0.317 N 
ATOM     15  H   UNL     1       6.992  -3.568  27.592  0.00  0.00    +0.148 HD
ATOM     16  C   UNL     1       7.355  -5.646  27.437  0.00  0.00    +0.128 C 
ATOM     17  O   UNL     1       9.315  -4.580  25.795  0.00  0.00    -0.274 OA
ENDBRANCH   1  13
BRANCH   8  18
ATOM     18  N   UNL     1       9.067   3.366  22.780  0.00  0.00    -0.197 N 
ATOM     19  H   UNL     1       9.364   3.489  21.814  0.00  0.00    +0.176 HD
BRANCH  18  20
ATOM     20  S   UNL     1       9.675   4.615  23.717  0.00  0.00    +0.164 S 
ATOM     21  O   UNL     1      11.113   4.551  23.605  0.00  0.00    -0.127 OA
ATOM     22  O   UNL     1       9.015   4.608  25.002  0.00  0.00    -0.127 OA
BRANCH  20  23
ATOM     23  O   UNL     1       9.169   5.937  22.960  0.00  0.00    -0.238 OA
ATOM     24  H   UNL     1       9.198   6.670  23.610  0.00  0.00    +0.246 HD
ENDBRANCH  20  23
ENDBRANCH  18  20
ENDBRANCH   8  18
BRANCH   3  25
ATOM     25  O   UNL     1       5.856  -3.748  24.647  0.00  0.00    -0.445 OA
BRANCH  25  26
ATOM     26  C   UNL     1       5.947  -4.198  23.253  0.00  0.00    +0.107 C 
ATOM     27  C   UNL     1       5.988  -3.007  22.280  0.00  0.00    +0.055 C 
ATOM     28  C   UNL     1       4.656  -4.985  22.970  0.00  0.00    +0.055 C 
ATOM     29  C   UNL     1       7.130  -5.153  23.023  0.00  0.00    +0.055 C 
ENDBRANCH  25  26
ENDBRANCH   3  25
TORSDOF 6
ENDMDL
MODEL 8
REMARK VINA RESULT:      -6.3      2.272      3.437
REMARK  Name = 
REMARK  10 active torsions:
REMARK  status: ('A' for Active; 'I' for Inactive)
REMARK    1  A    between atoms: C_2  and  C_24
REMARK    2  A    between atoms: C_8  and  O_10
REMARK    3  A    between atoms: O_10  and  C_11
REMARK    4  A    between atoms: C_11  and  C_12
REMARK    5  A    between atoms: C_11  and  C_13
REMARK    6  A    between atoms: C_11  and  C_14
REMARK    7  A    between atoms: C_16  and  N_17
REMARK    8  A    between atoms: N_17  and  S_18
REMARK    9  A    between atoms: S_18  and  O_19
REMARK   10  A    between atoms: N_26  and  C_27
REMARK                            x       y       z     vdW  Elec       q    Type
REMARK                         _______ _______ _______ _____ _____    ______ ____
ROOT
ATOM      1  C   UNL     1       7.125  -3.622  26.608  0.00  0.00    +0.170 C 
ATOM      2  N   UNL     1       5.987  -2.755  26.267  0.00  0.00    -0.251 N 
ATOM      3  C   UNL     1       4.734  -3.090  25.787  0.00  0.00    +0.404 C 
ATOM      4  O   UNL     1       3.871  -2.245  25.611  0.00  0.00    -0.226 OA
ATOM      5  C   UNL     1       6.329  -1.335  26.242  0.00  0.00    +0.147 C 
ATOM      6  C   UNL     1       7.617  -1.059  25.490  0.00  0.00    -0.025 A 
ATOM      7  C   UNL     1       7.898   0.258  25.091  0.00  0.00    +0.030 A 
ATOM      8  C   UNL     1       9.057   0.551  24.376  0.00  0.00    +0.050 A 
ATOM      9  C   UNL     1       9.991  -0.449  24.116  0.00  0.00    +0.025 A 
ATOM     10  C   UNL     1       9.733  -1.762  24.523  0.00  0.00    +0.006 A 
ATOM     11  C   UNL     1       8.545  -2.081  25.198  0.00  0.00    -0.040 A 
ATOM     12  C   UNL     1       8.233  -3.522  25.547  0.00  0.00    +0.067 C 
ENDROOT
BRANCH   1  13
ATOM     13  C   UNL     1       6.940  -5.066  27.110  0.00  0.00    +0.234 C 
ATOM     14  N   UNL     1       6.060  -5.221  28.158  0.00  0.00    -0.317 N 
ATOM     15  H   UNL     1       6.051  -4.460  28.831  0.00  0.00    +0.148 HD
ATOM     16  C   UNL     1       5.728  -6.541  28.631  0.00  0.00    +0.128 C 
ATOM     17  O   UNL     1       7.498  -6.017  26.567  0.00  0.00    -0.274 OA
ENDBRANCH   1  13
BRANCH   8  18
ATOM     18  N   UNL     1       9.247   1.880  23.902  0.00  0.00    -0.197 N 
ATOM     19  H   UNL     1       8.950   2.612  24.545  0.00  0.00    +0.176 HD
BRANCH  18  20
ATOM     20  S   UNL     1       8.726   2.251  22.353  0.00  0.00    +0.164 S 
ATOM     21  O   UNL     1       8.235   3.608  22.398  0.00  0.00    -0.127 OA
ATOM     22  O   UNL     1       7.912   1.167  21.855  0.00  0.00    -0.127 OA
BRANCH  20  23
ATOM     23  O   UNL     1      10.077   2.233  21.485  0.00  0.00    -0.238 OA
ATOM     24  H   UNL     1      10.476   1.344  21.592  0.00  0.00    +0.246 HD
ENDBRANCH  20  23
ENDBRANCH  18  20
ENDBRANCH   8  18
BRANCH   3  25
ATOM     25  O   UNL     1       4.540  -4.413  25.528  0.00  0.00    -0.445 OA
BRANCH  25  26
ATOM     26  C   UNL     1       4.479  -4.840  24.126  0.00  0.00    +0.107 C 
ATOM     27  C   UNL     1       5.221  -6.170  23.911  0.00  0.00    +0.055 C 
ATOM     28  C   UNL     1       5.217  -3.761  23.315  0.00  0.00    +0.055 C 
ATOM     29  C   UNL     1       3.036  -4.909  23.598  0.00  0.00    +0.055 C 
ENDBRANCH  25  26
ENDBRANCH   3  25
TORSDOF 6
ENDMDL
MODEL 9
REMARK VINA RESULT:      -6.2      1.744      2.028
REMARK  Name = 
REMARK  10 active torsions:
REMARK  status: ('A' for Active; 'I' for Inactive)
REMARK    1  A    between atoms: C_2  and  C_24
REMARK    2  A    between atoms: C_8  and  O_10
REMARK    3  A    between atoms: O_10  and  C_11
REMARK    4  A    between atoms: C_11  and  C_12
REMARK    5  A    between atoms: C_11  and  C_13
REMARK    6  A    between atoms: C_11  and  C_14
REMARK    7  A    between atoms: C_16  and  N_17
REMARK    8  A    between atoms: N_17  and  S_18
REMARK    9  A    between atoms: S_18  and  O_19
REMARK   10  A    between atoms: N_26  and  C_27
REMARK                            x       y       z     vdW  Elec       q    Type
REMARK                         _______ _______ _______ _____ _____    ______ ____
ROOT
ATOM      1  C   UNL     1       8.643  -1.849  24.835  0.00  0.00    +0.170 C 
ATOM      2  N   UNL     1       7.350  -1.188  25.070  0.00  0.00    -0.251 N 
ATOM      3  C   UNL     1       6.067  -1.682  24.928  0.00  0.00    +0.404 C 
ATOM      4  O   UNL     1       5.089  -1.015  25.228  0.00  0.00    -0.226 OA
ATOM      5  C   UNL     1       7.468   0.252  25.280  0.00  0.00    +0.147 C 
ATOM      6  C   UNL     1       8.373   0.918  24.261  0.00  0.00    -0.025 A 
ATOM      7  C   UNL     1       8.320   2.315  24.120  0.00  0.00    +0.030 A 
ATOM      8  C   UNL     1       9.116   2.963  23.178  0.00  0.00    +0.050 A 
ATOM      9  C   UNL     1      10.032   2.240  22.418  0.00  0.00    +0.025 A 
ATOM     10  C   UNL     1      10.108   0.851  22.560  0.00  0.00    +0.006 A 
ATOM     11  C   UNL     1       9.276   0.178  23.469  0.00  0.00    -0.040 A 
ATOM     12  C   UNL     1       9.300  -1.335  23.544  0.00  0.00    +0.067 C 
ENDROOT
BRANCH   1  13
ATOM     13  C   UNL     1       8.838  -3.367  25.013  0.00  0.00    +0.234 C 
ATOM     14  N   UNL     1       8.661  -3.841  26.293  0.00  0.00    -0.317 N 
ATOM     15  H   UNL     1       8.967  -3.215  27.032  0.00  0.00    +0.148 HD
ATOM     16  C   UNL     1       8.709  -5.258  26.550  0.00  0.00    +0.128 C 
ATOM     17  O   UNL     1       9.075  -4.105  24.059  0.00  0.00    -0.274 OA
ENDBRANCH   1  13
BRANCH   8  18
ATOM     18  N   UNL     1       8.951   4.366  22.997  0.00  0.00    -0.197 N 
ATOM     19  H   UNL     1       9.340   4.943  23.741  0.00  0.00    +0.176 HD
BRANCH  18  20
ATOM     20  S   UNL     1       7.432   4.938  22.581  0.00  0.00    +0.164 S 
ATOM     21  O   UNL     1       6.882   5.546  23.770  0.00  0.00    -0.127 OA
ATOM     22  O   UNL     1       6.720   3.911  21.858  0.00  0.00    -0.127 OA
BRANCH  20  23
ATOM     23  O   UNL     1       7.743   6.101  21.519  0.00  0.00    -0.238 OA
ATOM     24  H   UNL     1       7.386   5.806  20.656  0.00  0.00    +0.246 HD
ENDBRANCH  20  23
ENDBRANCH  18  20
ENDBRANCH   8  18
BRANCH   3  25
ATOM     25  O   UNL     1       5.978  -2.949  24.434  0.00  0.00    -0.445 OA
BRANCH  25  26
ATOM     26  C   UNL     1       5.094  -3.896  25.122  0.00  0.00    +0.107 C 
ATOM     27  C   UNL     1       5.220  -3.774  26.650  0.00  0.00    +0.055 C 
ATOM     28  C   UNL     1       5.578  -5.301  24.727  0.00  0.00    +0.055 C 
ATOM     29  C   UNL     1       3.630  -3.766  24.667  0.00  0.00    +0.055 C 
ENDBRANCH  25  26
ENDBRANCH   3  25
TORSDOF 6
ENDMDL
