MODEL 1
REMARK VINA RESULT:      -7.6      0.000      0.000
REMARK  Name = 
REMARK  14 active torsions:
REMARK  status: ('A' for Active; 'I' for Inactive)
REMARK    1  A    between atoms: C_1  and  C_2
REMARK    2  A    between atoms: C_2  and  C_3
REMARK    3  A    between atoms: C_2  and  C_4
REMARK    4  A    between atoms: C_4  and  C_5
REMARK    5  A    between atoms: C_5  and  C_7
REMARK    6  A    between atoms: C_5  and  C_25
REMARK    7  A    between atoms: N_9  and  C_10
REMARK    8  A    between atoms: C_10  and  C_11
REMARK    9  A    between atoms: C_11  and  O_13
REMARK   10  A    between atoms: C_11  and  C_14
REMARK   11  A    between atoms: C_14  and  N_15
REMARK   12  A    between atoms: N_15  and  S_16
REMARK   13  A    between atoms: S_16  and  C_19
REMARK   14  A    between atoms: C_29  and  C_31
REMARK                            x       y       z     vdW  Elec       q    Type
REMARK                         _______ _______ _______ _____ _____    ______ ____
ROOT
ATOM      1  C   UNL     1       9.129  -2.702  24.225  0.00  0.00    +0.221 C 
ATOM      2  N   UNL     1       7.867  -3.151  23.915  0.00  0.00    -0.312 N 
ATOM      3  H   UNL     1       7.053  -2.581  24.092  0.00  0.00    +0.149 HD
ATOM      4  O   UNL     1      10.125  -3.400  24.052  0.00  0.00    -0.275 OA
ENDROOT
BRANCH   1   5
ATOM      5  C   UNL     1       9.238  -1.285  24.815  0.00  0.00    +0.105 C 
BRANCH   5   6
ATOM      6  C   UNL     1       9.431  -0.227  23.721  0.00  0.00    -0.035 A 
ATOM      7  C   UNL     1       9.837   1.077  24.073  0.00  0.00    +0.013 A 
ATOM      8  C   UNL     1       9.997   2.097  23.112  0.00  0.00    -0.018 A 
ATOM      9  C   UNL     1       9.768   1.754  21.768  0.00  0.00    +0.008 A 
ATOM     10  C   UNL     1       9.390   0.465  21.396  0.00  0.00    +0.001 A 
ATOM     11  C   UNL     1       9.207  -0.513  22.367  0.00  0.00    +0.004 A 
BRANCH   8  12
ATOM     12  C   UNL     1      10.370   3.484  23.489  0.00  0.00    -0.018 A 
ATOM     13  C   UNL     1       9.444   4.352  24.098  0.00  0.00    +0.008 A 
ATOM     14  C   UNL     1       9.801   5.641  24.506  0.00  0.00    +0.001 A 
ATOM     15  C   UNL     1      11.095   6.103  24.297  0.00  0.00    +0.000 A 
ATOM     16  C   UNL     1      12.029   5.276  23.680  0.00  0.00    +0.001 A 
ATOM     17  C   UNL     1      11.671   3.982  23.285  0.00  0.00    +0.008 A 
ENDBRANCH   8  12
ENDBRANCH   5   6
BRANCH   5  18
ATOM     18  C   UNL     1       8.093  -0.893  25.775  0.00  0.00    +0.020 C 
BRANCH  18  20
ATOM     19  C   UNL     1       5.866  -0.158  24.723  0.00  0.00    +0.007 C 
ATOM     20  C   UNL     1       7.191   0.282  25.346  0.00  0.00    -0.016 C 
ATOM     21  C   UNL     1       6.899   1.172  26.564  0.00  0.00    +0.007 C 
ENDBRANCH  18  20
ENDBRANCH   5  18
ENDBRANCH   1   5
BRANCH   2  22
ATOM     22  C   UNL     1       7.623  -4.402  23.201  0.00  0.00    +0.136 C 
BRANCH  22  23
ATOM     23  C   UNL     1       6.695  -4.220  21.994  0.00  0.00    +0.147 C 
BRANCH  23  24
ATOM     24  O   UNL     1       5.716  -3.213  22.288  0.00  0.00    -0.389 OA
ATOM     25  H   UNL     1       5.961  -2.852  23.163  0.00  0.00    +0.210 HD
ENDBRANCH  23  24
BRANCH  23  26
ATOM     26  C   UNL     1       6.011  -5.541  21.617  0.00  0.00    +0.138 C 
BRANCH  26  27
ATOM     27  N   UNL     1       5.920  -6.417  22.802  0.00  0.00    -0.186 NA
ATOM     28  H   UNL     1       6.739  -6.511  23.401  0.00  0.00    +0.148 HD
BRANCH  27  29
ATOM     29  S   UNL     1       4.532  -6.213  23.762  0.00  0.00    +0.076 S 
ATOM     30  O   UNL     1       4.107  -7.521  24.216  0.00  0.00    -0.152 OA
ATOM     31  O   UNL     1       3.654  -5.370  22.975  0.00  0.00    -0.152 OA
BRANCH  29  32
ATOM     32  C   UNL     1       5.029  -5.260  25.191  0.00  0.00    +0.194 A 
ATOM     33  N   UNL     1       4.729  -3.936  25.172  0.00  0.00    -0.236 NA
ATOM     34  C   UNL     1       5.091  -3.244  26.276  0.00  0.00    +0.113 A 
ATOM     35  C   UNL     1       5.731  -3.812  27.372  0.00  0.00    +0.020 A 
ATOM     36  C   UNL     1       6.030  -5.172  27.345  0.00  0.00    +0.005 A 
ATOM     37  C   UNL     1       5.676  -5.922  26.228  0.00  0.00    +0.049 A 
ENDBRANCH  29  32
ENDBRANCH  27  29
ENDBRANCH  26  27
ENDBRANCH  23  26
ENDBRANCH  22  23
ENDBRANCH   2  22
TORSDOF 12
ENDMDL
MODEL 2
REMARK VINA RESULT:      -7.5      1.934      4.124
REMARK  Name = 
REMARK  14 active torsions:
REMARK  status: ('A' for Active; 'I' for Inactive)
REMARK    1  A    between atoms: C_1  and  C_2
REMARK    2  A    between atoms: C_2  and  C_3
REMARK    3  A    between atoms: C_2  and  C_4
REMARK    4  A    between atoms: C_4  and  C_5
REMARK    5  A    between atoms: C_5  and  C_7
REMARK    6  A    between atoms: C_5  and  C_25
REMARK    7  A    between atoms: N_9  and  C_10
REMARK    8  A    between atoms: C_10  and  C_11
REMARK    9  A    between atoms: C_11  and  O_13
REMARK   10  A    between atoms: C_11  and  C_14
REMARK   11  A    between atoms: C_14  and  N_15
REMARK   12  A    between atoms: N_15  and  S_16
REMARK   13  A    between atoms: S_16  and  C_19
REMARK   14  A    between atoms: C_29  and  C_31
REMARK                            x       y       z     vdW  Elec       q    Type
REMARK                         _______ _______ _______ _____ _____    ______ ____
ROOT
ATOM      1  C   UNL     1       5.861  -0.715  25.259  0.00  0.00    +0.221 C 
ATOM      2  N   UNL     1       5.975  -1.979  24.731  0.00  0.00    -0.312 N 
ATOM      3  H   UNL     1       6.876  -2.363  24.489  0.00  0.00    +0.149 HD
ATOM      4  O   UNL     1       4.767  -0.220  25.522  0.00  0.00    -0.275 OA
ENDROOT
BRANCH   1   5
ATOM      5  C   UNL     1       7.168   0.063  25.494  0.00  0.00    +0.105 C 
BRANCH   5   6
ATOM      6  C   UNL     1       7.409   1.113  24.403  0.00  0.00    -0.035 A 
ATOM      7  C   UNL     1       8.508   1.990  24.507  0.00  0.00    +0.013 A 
ATOM      8  C   UNL     1       8.758   2.996  23.550  0.00  0.00    -0.018 A 
ATOM      9  C   UNL     1       7.879   3.073  22.455  0.00  0.00    +0.008 A 
ATOM     10  C   UNL     1       6.801   2.200  22.321  0.00  0.00    +0.001 A 
ATOM     11  C   UNL     1       6.559   1.239  23.295  0.00  0.00    +0.004 A 
BRANCH   8  12
ATOM     12  C   UNL     1       9.883   3.955  23.689  0.00  0.00    -0.018 A 
ATOM     13  C   UNL     1      11.186   3.620  23.274  0.00  0.00    +0.008 A 
ATOM     14  C   UNL     1      12.241   4.536  23.350  0.00  0.00    +0.001 A 
ATOM     15  C   UNL     1      12.021   5.809  23.863  0.00  0.00    +0.000 A 
ATOM     16  C   UNL     1      10.749   6.163  24.300  0.00  0.00    +0.001 A 
ATOM     17  C   UNL     1       9.693   5.248  24.210  0.00  0.00    +0.008 A 
ENDBRANCH   8  12
ENDBRANCH   5   6
BRANCH   5  18
ATOM     18  C   UNL     1       7.310   0.678  26.903  0.00  0.00    +0.020 C 
BRANCH  18  20
ATOM     19  C   UNL     1       5.462   1.355  28.559  0.00  0.00    +0.007 C 
ATOM     20  C   UNL     1       6.265   1.736  27.314  0.00  0.00    -0.016 C 
ATOM     21  C   UNL     1       6.968   3.078  27.565  0.00  0.00    +0.007 C 
ENDBRANCH  18  20
ENDBRANCH   5  18
ENDBRANCH   1   5
BRANCH   2  22
ATOM     22  C   UNL     1       4.842  -2.893  24.607  0.00  0.00    +0.136 C 
BRANCH  22  23
ATOM     23  C   UNL     1       5.274  -4.323  24.262  0.00  0.00    +0.147 C 
BRANCH  23  24
ATOM     24  O   UNL     1       4.187  -5.227  24.515  0.00  0.00    -0.389 OA
ATOM     25  H   UNL     1       4.045  -5.206  25.482  0.00  0.00    +0.210 HD
ENDBRANCH  23  24
BRANCH  23  26
ATOM     26  C   UNL     1       6.515  -4.737  25.063  0.00  0.00    +0.138 C 
BRANCH  26  27
ATOM     27  N   UNL     1       7.708  -4.711  24.192  0.00  0.00    -0.186 NA
ATOM     28  H   UNL     1       7.579  -4.543  23.196  0.00  0.00    +0.148 HD
BRANCH  27  29
ATOM     29  S   UNL     1       9.014  -3.785  24.763  0.00  0.00    +0.076 S 
ATOM     30  O   UNL     1      10.195  -4.623  24.748  0.00  0.00    -0.152 OA
ATOM     31  O   UNL     1       8.537  -3.183  25.991  0.00  0.00    -0.152 OA
BRANCH  29  32
ATOM     32  C   UNL     1       9.257  -2.458  23.589  0.00  0.00    +0.194 A 
ATOM     33  N   UNL     1       8.416  -2.430  22.523  0.00  0.00    -0.236 NA
ATOM     34  C   UNL     1       8.603  -1.401  21.666  0.00  0.00    +0.113 A 
ATOM     35  C   UNL     1       9.579  -0.424  21.827  0.00  0.00    +0.020 A 
ATOM     36  C   UNL     1      10.427  -0.498  22.930  0.00  0.00    +0.005 A 
ATOM     37  C   UNL     1      10.271  -1.540  23.837  0.00  0.00    +0.049 A 
ENDBRANCH  29  32
ENDBRANCH  27  29
ENDBRANCH  26  27
ENDBRANCH  23  26
ENDBRANCH  22  23
ENDBRANCH   2  22
TORSDOF 12
ENDMDL
MODEL 3
REMARK VINA RESULT:      -7.4      1.518      2.982
REMARK  Name = 
REMARK  14 active torsions:
REMARK  status: ('A' for Active; 'I' for Inactive)
REMARK    1  A    between atoms: C_1  and  C_2
REMARK    2  A    between atoms: C_2  and  C_3
REMARK    3  A    between atoms: C_2  and  C_4
REMARK    4  A    between atoms: C_4  and  C_5
REMARK    5  A    between atoms: C_5  and  C_7
REMARK    6  A    between atoms: C_5  and  C_25
REMARK    7  A    between atoms: N_9  and  C_10
REMARK    8  A    between atoms: C_10  and  C_11
REMARK    9  A    between atoms: C_11  and  O_13
REMARK   10  A    between atoms: C_11  and  C_14
REMARK   11  A    between atoms: C_14  and  N_15
REMARK   12  A    between atoms: N_15  and  S_16
REMARK   13  A    between atoms: S_16  and  C_19
REMARK   14  A    between atoms: C_29  and  C_31
REMARK                            x       y       z     vdW  Elec       q    Type
REMARK                         _______ _______ _______ _____ _____    ______ ____
ROOT
ATOM      1  C   UNL     1       8.210  -1.848  25.330  0.00  0.00    +0.221 C 
ATOM      2  N   UNL     1       7.321  -2.846  25.652  0.00  0.00    -0.312 N 
ATOM      3  H   UNL     1       6.330  -2.663  25.706  0.00  0.00    +0.149 HD
ATOM      4  O   UNL     1       9.423  -2.048  25.298  0.00  0.00    -0.275 OA
ENDROOT
BRANCH   1   5
ATOM      5  C   UNL     1       7.619  -0.461  25.023  0.00  0.00    +0.105 C 
BRANCH   5   6
ATOM      6  C   UNL     1       8.407   0.263  23.925  0.00  0.00    -0.035 A 
ATOM      7  C   UNL     1       9.030   1.496  24.207  0.00  0.00    +0.013 A 
ATOM      8  C   UNL     1       9.739   2.220  23.227  0.00  0.00    -0.018 A 
ATOM      9  C   UNL     1       9.833   1.646  21.947  0.00  0.00    +0.008 A 
ATOM     10  C   UNL     1       9.245   0.417  21.653  0.00  0.00    +0.001 A 
ATOM     11  C   UNL     1       8.524  -0.261  22.629  0.00  0.00    +0.004 A 
BRANCH   8  12
ATOM     12  C   UNL     1      10.348   3.545  23.511  0.00  0.00    -0.018 A 
ATOM     13  C   UNL     1      11.719   3.782  23.295  0.00  0.00    +0.008 A 
ATOM     14  C   UNL     1      12.290   5.041  23.507  0.00  0.00    +0.001 A 
ATOM     15  C   UNL     1      11.505   6.094  23.960  0.00  0.00    +0.000 A 
ATOM     16  C   UNL     1      10.150   5.887  24.202  0.00  0.00    +0.001 A 
ATOM     17  C   UNL     1       9.580   4.628  23.975  0.00  0.00    +0.008 A 
ENDBRANCH   8  12
ENDBRANCH   5   6
BRANCH   5  18
ATOM     18  C   UNL     1       6.105  -0.455  24.720  0.00  0.00    +0.020 C 
BRANCH  18  20
ATOM     19  C   UNL     1       5.764   1.027  26.793  0.00  0.00    +0.007 C 
ATOM     20  C   UNL     1       5.258   0.637  25.404  0.00  0.00    -0.016 C 
ATOM     21  C   UNL     1       5.225   1.889  24.515  0.00  0.00    +0.007 C 
ENDBRANCH  18  20
ENDBRANCH   5  18
ENDBRANCH   1   5
BRANCH   2  22
ATOM     22  C   UNL     1       7.718  -4.243  25.805  0.00  0.00    +0.136 C 
BRANCH  22  23
ATOM     23  C   UNL     1       7.241  -4.850  27.130  0.00  0.00    +0.147 C 
BRANCH  23  24
ATOM     24  O   UNL     1       8.036  -6.003  27.445  0.00  0.00    -0.389 OA
ATOM     25  H   UNL     1       7.414  -6.660  27.814  0.00  0.00    +0.210 HD
ENDBRANCH  23  24
BRANCH  23  26
ATOM     26  C   UNL     1       5.754  -5.223  27.066  0.00  0.00    +0.138 C 
BRANCH  26  27
ATOM     27  N   UNL     1       5.573  -6.427  26.229  0.00  0.00    -0.186 NA
ATOM     28  H   UNL     1       5.460  -7.328  26.692  0.00  0.00    +0.148 HD
BRANCH  27  29
ATOM     29  S   UNL     1       4.438  -6.284  24.972  0.00  0.00    +0.076 S 
ATOM     30  O   UNL     1       3.295  -5.555  25.484  0.00  0.00    -0.152 OA
ATOM     31  O   UNL     1       4.296  -7.625  24.441  0.00  0.00    -0.152 OA
BRANCH  29  32
ATOM     32  C   UNL     1       5.205  -5.294  23.696  0.00  0.00    +0.194 A 
ATOM     33  N   UNL     1       6.187  -5.891  22.972  0.00  0.00    -0.236 NA
ATOM     34  C   UNL     1       6.730  -5.131  21.996  0.00  0.00    +0.113 A 
ATOM     35  C   UNL     1       6.343  -3.823  21.724  0.00  0.00    +0.020 A 
ATOM     36  C   UNL     1       5.339  -3.245  22.499  0.00  0.00    +0.005 A 
ATOM     37  C   UNL     1       4.753  -3.992  23.514  0.00  0.00    +0.049 A 
ENDBRANCH  29  32
ENDBRANCH  27  29
ENDBRANCH  26  27
ENDBRANCH  23  26
ENDBRANCH  22  23
ENDBRANCH   2  22
TORSDOF 12
ENDMDL
MODEL 4
REMARK VINA RESULT:      -7.3      2.105      4.126
REMARK  Name = 
REMARK  14 active torsions:
REMARK  status: ('A' for Active; 'I' for Inactive)
REMARK    1  A    between atoms: C_1  and  C_2
REMARK    2  A    between atoms: C_2  and  C_3
REMARK    3  A    between atoms: C_2  and  C_4
REMARK    4  A    between atoms: C_4  and  C_5
REMARK    5  A    between atoms: C_5  and  C_7
REMARK    6  A    between atoms: C_5  and  C_25
REMARK    7  A    between atoms: N_9  and  C_10
REMARK    8  A    between atoms: C_10  and  C_11
REMARK    9  A    between atoms: C_11  and  O_13
REMARK   10  A    between atoms: C_11  and  C_14
REMARK   11  A    between atoms: C_14  and  N_15
REMARK   12  A    between atoms: N_15  and  S_16
REMARK   13  A    between atoms: S_16  and  C_19
REMARK   14  A    between atoms: C_29  and  C_31
REMARK                            x       y       z     vdW  Elec       q    Type
REMARK                         _______ _______ _______ _____ _____    ______ ____
ROOT
ATOM      1  C   UNL     1       5.729  -0.676  26.280  0.00  0.00    +0.221 C 
ATOM      2  N   UNL     1       6.442  -1.778  26.689  0.00  0.00    -0.312 N 
ATOM      3  H   UNL     1       7.390  -1.690  27.023  0.00  0.00    +0.149 HD
ATOM      4  O   UNL     1       4.587  -0.773  25.835  0.00  0.00    -0.275 OA
ENDROOT
BRANCH   1   5
ATOM      5  C   UNL     1       6.431   0.689  26.393  0.00  0.00    +0.105 C 
BRANCH   5   6
ATOM      6  C   UNL     1       6.962   1.169  25.037  0.00  0.00    -0.035 A 
ATOM      7  C   UNL     1       8.008   2.113  24.989  0.00  0.00    +0.013 A 
ATOM      8  C   UNL     1       8.513   2.613  23.771  0.00  0.00    -0.018 A 
ATOM      9  C   UNL     1       7.950   2.105  22.586  0.00  0.00    +0.008 A 
ATOM     10  C   UNL     1       6.932   1.154  22.611  0.00  0.00    +0.001 A 
ATOM     11  C   UNL     1       6.431   0.702  23.826  0.00  0.00    +0.004 A 
BRANCH   8  12
ATOM     12  C   UNL     1       9.576   3.648  23.723  0.00  0.00    -0.018 A 
ATOM     13  C   UNL     1       9.312   4.988  24.068  0.00  0.00    +0.008 A 
ATOM     14  C   UNL     1      10.319   5.957  24.079  0.00  0.00    +0.001 A 
ATOM     15  C   UNL     1      11.618   5.615  23.725  0.00  0.00    +0.000 A 
ATOM     16  C   UNL     1      11.908   4.304  23.360  0.00  0.00    +0.001 A 
ATOM     17  C   UNL     1      10.900   3.333  23.363  0.00  0.00    +0.008 A 
ENDBRANCH   8  12
ENDBRANCH   5   6
BRANCH   5  18
ATOM     18  C   UNL     1       5.599   1.789  27.088  0.00  0.00    +0.020 C 
BRANCH  18  20
ATOM     19  C   UNL     1       7.195   1.474  29.079  0.00  0.00    +0.007 C 
ATOM     20  C   UNL     1       6.168   2.377  28.395  0.00  0.00    -0.016 C 
ATOM     21  C   UNL     1       6.818   3.738  28.101  0.00  0.00    +0.007 C 
ENDBRANCH  18  20
ENDBRANCH   5  18
ENDBRANCH   1   5
BRANCH   2  22
ATOM     22  C   UNL     1       5.853  -3.110  26.795  0.00  0.00    +0.136 C 
BRANCH  22  23
ATOM     23  C   UNL     1       6.887  -4.228  26.617  0.00  0.00    +0.147 C 
BRANCH  23  24
ATOM     24  O   UNL     1       8.208  -3.666  26.628  0.00  0.00    -0.389 OA
ATOM     25  H   UNL     1       8.530  -3.766  27.546  0.00  0.00    +0.210 HD
ENDBRANCH  23  24
BRANCH  23  26
ATOM     26  C   UNL     1       6.645  -5.006  25.317  0.00  0.00    +0.138 C 
BRANCH  26  27
ATOM     27  N   UNL     1       7.705  -4.693  24.338  0.00  0.00    -0.186 NA
ATOM     28  H   UNL     1       8.205  -5.465  23.900  0.00  0.00    +0.148 HD
BRANCH  27  29
ATOM     29  S   UNL     1       7.299  -3.534  23.162  0.00  0.00    +0.076 S 
ATOM     30  O   UNL     1       6.038  -2.935  23.543  0.00  0.00    -0.152 OA
ATOM     31  O   UNL     1       7.452  -4.219  21.894  0.00  0.00    -0.152 OA
BRANCH  29  32
ATOM     32  C   UNL     1       8.561  -2.269  23.228  0.00  0.00    +0.194 A 
ATOM     33  N   UNL     1       8.942  -1.856  24.465  0.00  0.00    -0.236 NA
ATOM     34  C   UNL     1       9.917  -0.920  24.487  0.00  0.00    +0.113 A 
ATOM     35  C   UNL     1      10.509  -0.388  23.347  0.00  0.00    +0.020 A 
ATOM     36  C   UNL     1      10.079  -0.831  22.098  0.00  0.00    +0.005 A 
ATOM     37  C   UNL     1       9.078  -1.794  22.028  0.00  0.00    +0.049 A 
ENDBRANCH  29  32
ENDBRANCH  27  29
ENDBRANCH  26  27
ENDBRANCH  23  26
ENDBRANCH  22  23
ENDBRANCH   2  22
TORSDOF 12
ENDMDL
MODEL 5
REMARK VINA RESULT:      -7.3      2.273      3.104
REMARK  Name = 
REMARK  14 active torsions:
REMARK  status: ('A' for Active; 'I' for Inactive)
REMARK    1  A    between atoms: C_1  and  C_2
REMARK    2  A    between atoms: C_2  and  C_3
REMARK    3  A    between atoms: C_2  and  C_4
REMARK    4  A    between atoms: C_4  and  C_5
REMARK    5  A    between atoms: C_5  and  C_7
REMARK    6  A    between atoms: C_5  and  C_25
REMARK    7  A    between atoms: N_9  and  C_10
REMARK    8  A    between atoms: C_10  and  C_11
REMARK    9  A    between atoms: C_11  and  O_13
REMARK   10  A    between atoms: C_11  and  C_14
REMARK   11  A    between atoms: C_14  and  N_15
REMARK   12  A    between atoms: N_15  and  S_16
REMARK   13  A    between atoms: S_16  and  C_19
REMARK   14  A    between atoms: C_29  and  C_31
REMARK                            x       y       z     vdW  Elec       q    Type
REMARK                         _______ _______ _______ _____ _____    ______ ____
ROOT
ATOM      1  C   UNL     1       8.712  -1.466  24.787  0.00  0.00    +0.221 C 
ATOM      2  N   UNL     1       8.157  -2.724  24.782  0.00  0.00    -0.312 N 
ATOM      3  H   UNL     1       7.223  -2.883  25.130  0.00  0.00    +0.149 HD
ATOM      4  O   UNL     1       9.862  -1.265  24.401  0.00  0.00    -0.275 OA
ENDROOT
BRANCH   1   5
ATOM      5  C   UNL     1       7.832  -0.318  25.311  0.00  0.00    +0.105 C 
BRANCH   5   6
ATOM      6  C   UNL     1       7.838   0.884  24.359  0.00  0.00    -0.035 A 
ATOM      7  C   UNL     1       8.884   1.827  24.430  0.00  0.00    +0.013 A 
ATOM      8  C   UNL     1       8.922   2.968  23.602  0.00  0.00    -0.018 A 
ATOM      9  C   UNL     1       7.884   3.118  22.667  0.00  0.00    +0.008 A 
ATOM     10  C   UNL     1       6.854   2.185  22.564  0.00  0.00    +0.001 A 
ATOM     11  C   UNL     1       6.822   1.086  23.414  0.00  0.00    +0.004 A 
BRANCH   8  12
ATOM     12  C   UNL     1       9.994   3.989  23.716  0.00  0.00    -0.018 A 
ATOM     13  C   UNL     1      11.312   3.718  23.298  0.00  0.00    +0.008 A 
ATOM     14  C   UNL     1      12.315   4.691  23.350  0.00  0.00    +0.001 A 
ATOM     15  C   UNL     1      12.029   5.960  23.841  0.00  0.00    +0.000 A 
ATOM     16  C   UNL     1      10.743   6.253  24.280  0.00  0.00    +0.001 A 
ATOM     17  C   UNL     1       9.737   5.280  24.213  0.00  0.00    +0.008 A 
ENDBRANCH   8  12
ENDBRANCH   5   6
BRANCH   5  18
ATOM     18  C   UNL     1       6.391  -0.727  25.685  0.00  0.00    +0.020 C 
BRANCH  18  20
ATOM     19  C   UNL     1       6.871   0.534  27.874  0.00  0.00    +0.007 C 
ATOM     20  C   UNL     1       5.826  -0.171  27.009  0.00  0.00    -0.016 C 
ATOM     21  C   UNL     1       4.685   0.811  26.704  0.00  0.00    +0.007 C 
ENDBRANCH  18  20
ENDBRANCH   5  18
ENDBRANCH   1   5
BRANCH   2  22
ATOM     22  C   UNL     1       8.807  -3.876  24.164  0.00  0.00    +0.136 C 
BRANCH  22  23
ATOM     23  C   UNL     1       9.657  -4.677  25.158  0.00  0.00    +0.147 C 
BRANCH  23  24
ATOM     24  O   UNL     1       9.795  -6.028  24.692  0.00  0.00    -0.389 OA
ATOM     25  H   UNL     1      10.272  -5.968  23.841  0.00  0.00    +0.210 HD
ENDBRANCH  23  24
BRANCH  23  26
ATOM     26  C   UNL     1       9.038  -4.654  26.562  0.00  0.00    +0.138 C 
BRANCH  26  27
ATOM     27  N   UNL     1       8.053  -5.746  26.696  0.00  0.00    -0.186 NA
ATOM     28  H   UNL     1       8.300  -6.556  27.262  0.00  0.00    +0.148 HD
BRANCH  27  29
ATOM     29  S   UNL     1       6.463  -5.262  27.056  0.00  0.00    +0.076 S 
ATOM     30  O   UNL     1       6.495  -3.860  27.416  0.00  0.00    -0.152 OA
ATOM     31  O   UNL     1       5.967  -6.263  27.979  0.00  0.00    -0.152 OA
BRANCH  29  32
ATOM     32  C   UNL     1       5.520  -5.429  25.546  0.00  0.00    +0.194 A 
ATOM     33  N   UNL     1       5.455  -4.333  24.746  0.00  0.00    -0.236 NA
ATOM     34  C   UNL     1       4.760  -4.495  23.598  0.00  0.00    +0.113 A 
ATOM     35  C   UNL     1       4.136  -5.681  23.229  0.00  0.00    +0.020 A 
ATOM     36  C   UNL     1       4.217  -6.777  24.085  0.00  0.00    +0.005 A 
ATOM     37  C   UNL     1       4.923  -6.655  25.277  0.00  0.00    +0.049 A 
ENDBRANCH  29  32
ENDBRANCH  27  29
ENDBRANCH  26  27
ENDBRANCH  23  26
ENDBRANCH  22  23
ENDBRANCH   2  22
TORSDOF 12
ENDMDL
MODEL 6
REMARK VINA RESULT:      -7.2      2.491      4.688
REMARK  Name = 
REMARK  14 active torsions:
REMARK  status: ('A' for Active; 'I' for Inactive)
REMARK    1  A    between atoms: C_1  and  C_2
REMARK    2  A    between atoms: C_2  and  C_3
REMARK    3  A    between atoms: C_2  and  C_4
REMARK    4  A    between atoms: C_4  and  C_5
REMARK    5  A    between atoms: C_5  and  C_7
REMARK    6  A    between atoms: C_5  and  C_25
REMARK    7  A    between atoms: N_9  and  C_10
REMARK    8  A    between atoms: C_10  and  C_11
REMARK    9  A    between atoms: C_11  and  O_13
REMARK   10  A    between atoms: C_11  and  C_14
REMARK   11  A    between atoms: C_14  and  N_15
REMARK   12  A    between atoms: N_15  and  S_16
REMARK   13  A    between atoms: S_16  and  C_19
REMARK   14  A    between atoms: C_29  and  C_31
REMARK                            x       y       z     vdW  Elec       q    Type
REMARK                         _______ _______ _______ _____ _____    ______ ____
ROOT
ATOM      1  C   UNL     1       5.764  -4.752  27.274  0.00  0.00    +0.221 C 
ATOM      2  N   UNL     1       4.721  -5.386  26.642  0.00  0.00    -0.312 N 
ATOM      3  H   UNL     1       4.219  -4.938  25.890  0.00  0.00    +0.149 HD
ATOM      4  O   UNL     1       6.359  -5.269  28.217  0.00  0.00    -0.275 OA
ENDROOT
BRANCH   1   5
ATOM      5  C   UNL     1       6.148  -3.355  26.755  0.00  0.00    +0.105 C 
BRANCH   5   6
ATOM      6  C   UNL     1       7.455  -3.385  25.954  0.00  0.00    -0.035 A 
ATOM      7  C   UNL     1       7.876  -2.233  25.259  0.00  0.00    +0.013 A 
ATOM      8  C   UNL     1       9.051  -2.214  24.479  0.00  0.00    -0.018 A 
ATOM      9  C   UNL     1       9.818  -3.392  24.447  0.00  0.00    +0.008 A 
ATOM     10  C   UNL     1       9.432  -4.535  25.146  0.00  0.00    +0.001 A 
ATOM     11  C   UNL     1       8.252  -4.536  25.880  0.00  0.00    +0.004 A 
BRANCH   8  12
ATOM     12  C   UNL     1       9.465  -1.018  23.703  0.00  0.00    -0.018 A 
ATOM     13  C   UNL     1       9.113  -0.867  22.348  0.00  0.00    +0.008 A 
ATOM     14  C   UNL     1       9.451   0.281  21.624  0.00  0.00    +0.001 A 
ATOM     15  C   UNL     1      10.168   1.303  22.235  0.00  0.00    +0.000 A 
ATOM     16  C   UNL     1      10.546   1.176  23.567  0.00  0.00    +0.001 A 
ATOM     17  C   UNL     1      10.195   0.030  24.292  0.00  0.00    +0.008 A 
ENDBRANCH   8  12
ENDBRANCH   5   6
BRANCH   5  18
ATOM     18  C   UNL     1       5.031  -2.625  25.977  0.00  0.00    +0.020 C 
BRANCH  18  20
ATOM     19  C   UNL     1       4.057  -1.710  28.173  0.00  0.00    +0.007 C 
ATOM     20  C   UNL     1       4.332  -1.451  26.692  0.00  0.00    -0.016 C 
ATOM     21  C   UNL     1       5.194  -0.186  26.557  0.00  0.00    +0.007 C 
ENDBRANCH  18  20
ENDBRANCH   5  18
ENDBRANCH   1   5
BRANCH   2  22
ATOM     22  C   UNL     1       4.353  -6.773  26.914  0.00  0.00    +0.136 C 
BRANCH  22  23
ATOM     23  C   UNL     1       2.882  -7.066  26.595  0.00  0.00    +0.147 C 
BRANCH  23  24
ATOM     24  O   UNL     1       2.318  -7.878  27.636  0.00  0.00    -0.389 OA
ATOM     25  H   UNL     1       1.359  -7.916  27.452  0.00  0.00    +0.210 HD
ENDBRANCH  23  24
BRANCH  23  26
ATOM     26  C   UNL     1       2.737  -7.760  25.234  0.00  0.00    +0.138 C 
BRANCH  26  27
ATOM     27  N   UNL     1       3.775  -7.268  24.305  0.00  0.00    -0.186 NA
ATOM     28  H   UNL     1       4.245  -7.941  23.701  0.00  0.00    +0.148 HD
BRANCH  27  29
ATOM     29  S   UNL     1       3.361  -5.886  23.406  0.00  0.00    +0.076 S 
ATOM     30  O   UNL     1       2.735  -4.940  24.306  0.00  0.00    -0.152 OA
ATOM     31  O   UNL     1       2.661  -6.392  22.243  0.00  0.00    -0.152 OA
BRANCH  29  32
ATOM     32  C   UNL     1       4.894  -5.172  22.824  0.00  0.00    +0.194 A 
ATOM     33  N   UNL     1       4.876  -3.844  22.542  0.00  0.00    -0.236 NA
ATOM     34  C   UNL     1       6.055  -3.324  22.131  0.00  0.00    +0.113 A 
ATOM     35  C   UNL     1       7.223  -4.064  21.989  0.00  0.00    +0.020 A 
ATOM     36  C   UNL     1       7.193  -5.427  22.279  0.00  0.00    +0.005 A 
ATOM     37  C   UNL     1       6.002  -6.004  22.704  0.00  0.00    +0.049 A 
ENDBRANCH  29  32
ENDBRANCH  27  29
ENDBRANCH  26  27
ENDBRANCH  23  26
ENDBRANCH  22  23
ENDBRANCH   2  22
TORSDOF 12
ENDMDL
MODEL 7
REMARK VINA RESULT:      -7.2      3.073      7.119
REMARK  Name = 
REMARK  14 active torsions:
REMARK  status: ('A' for Active; 'I' for Inactive)
REMARK    1  A    between atoms: C_1  and  C_2
REMARK    2  A    between atoms: C_2  and  C_3
REMARK    3  A    between atoms: C_2  and  C_4
REMARK    4  A    between atoms: C_4  and  C_5
REMARK    5  A    between atoms: C_5  and  C_7
REMARK    6  A    between atoms: C_5  and  C_25
REMARK    7  A    between atoms: N_9  and  C_10
REMARK    8  A    between atoms: C_10  and  C_11
REMARK    9  A    between atoms: C_11  and  O_13
REMARK   10  A    between atoms: C_11  and  C_14
REMARK   11  A    between atoms: C_14  and  N_15
REMARK   12  A    between atoms: N_15  and  S_16
REMARK   13  A    between atoms: S_16  and  C_19
REMARK   14  A    between atoms: C_29  and  C_31
REMARK                            x       y       z     vdW  Elec       q    Type
REMARK                         _______ _______ _______ _____ _____    ______ ____
ROOT
ATOM      1  C   UNL     1       7.155   1.146  25.361  0.00  0.00    +0.221 C 
ATOM      2  N   UNL     1       7.842   1.878  24.422  0.00  0.00    -0.312 N 
ATOM      3  H   UNL     1       7.388   2.207  23.583  0.00  0.00    +0.149 HD
ATOM      4  O   UNL     1       7.705   0.707  26.369  0.00  0.00    -0.275 OA
ENDROOT
BRANCH   1   5
ATOM      5  C   UNL     1       5.663   0.887  25.087  0.00  0.00    +0.105 C 
BRANCH   5   6
ATOM      6  C   UNL     1       5.275  -0.567  25.382  0.00  0.00    -0.035 A 
ATOM      7  C   UNL     1       5.607  -1.581  24.459  0.00  0.00    +0.013 A 
ATOM      8  C   UNL     1       5.245  -2.929  24.663  0.00  0.00    -0.018 A 
ATOM      9  C   UNL     1       4.562  -3.237  25.852  0.00  0.00    +0.008 A 
ATOM     10  C   UNL     1       4.246  -2.255  26.789  0.00  0.00    +0.001 A 
ATOM     11  C   UNL     1       4.585  -0.928  26.548  0.00  0.00    +0.004 A 
BRANCH   8  12
ATOM     12  C   UNL     1       5.546  -3.986  23.665  0.00  0.00    -0.018 A 
ATOM     13  C   UNL     1       5.317  -5.347  23.947  0.00  0.00    +0.008 A 
ATOM     14  C   UNL     1       5.546  -6.344  22.994  0.00  0.00    +0.001 A 
ATOM     15  C   UNL     1       6.029  -6.006  21.735  0.00  0.00    +0.000 A 
ATOM     16  C   UNL     1       6.285  -4.673  21.432  0.00  0.00    +0.001 A 
ATOM     17  C   UNL     1       6.041  -3.676  22.385  0.00  0.00    +0.008 A 
ENDBRANCH   8  12
ENDBRANCH   5   6
BRANCH   5  18
ATOM     18  C   UNL     1       4.698   1.874  25.779  0.00  0.00    +0.020 C 
BRANCH  18  20
ATOM     19  C   UNL     1       4.439   2.999  23.481  0.00  0.00    +0.007 C 
ATOM     20  C   UNL     1       4.324   3.151  24.998  0.00  0.00    -0.016 C 
ATOM     21  C   UNL     1       2.887   3.563  25.351  0.00  0.00    +0.007 C 
ENDBRANCH  18  20
ENDBRANCH   5  18
ENDBRANCH   1   5
BRANCH   2  22
ATOM     22  C   UNL     1       9.212   2.341  24.624  0.00  0.00    +0.136 C 
BRANCH  22  23
ATOM     23  C   UNL     1      10.151   1.918  23.488  0.00  0.00    +0.147 C 
BRANCH  23  24
ATOM     24  O   UNL     1       9.381   1.626  22.312  0.00  0.00    -0.389 OA
ATOM     25  H   UNL     1       9.842   0.886  21.870  0.00  0.00    +0.210 HD
ENDBRANCH  23  24
BRANCH  23  26
ATOM     26  C   UNL     1      10.997   0.702  23.891  0.00  0.00    +0.138 C 
BRANCH  26  27
ATOM     27  N   UNL     1      10.140  -0.318  24.529  0.00  0.00    -0.186 NA
ATOM     28  H   UNL     1       9.382  -0.007  25.133  0.00  0.00    +0.148 HD
BRANCH  27  29
ATOM     29  S   UNL     1       9.583  -1.554  23.503  0.00  0.00    +0.076 S 
ATOM     30  O   UNL     1      10.697  -1.993  22.688  0.00  0.00    -0.152 OA
ATOM     31  O   UNL     1       8.376  -1.025  22.901  0.00  0.00    -0.152 OA
BRANCH  29  32
ATOM     32  C   UNL     1       9.092  -2.914  24.554  0.00  0.00    +0.194 A 
ATOM     33  N   UNL     1       9.222  -4.162  24.034  0.00  0.00    -0.236 NA
ATOM     34  C   UNL     1       8.870  -5.173  24.859  0.00  0.00    +0.113 A 
ATOM     35  C   UNL     1       8.398  -4.989  26.154  0.00  0.00    +0.020 A 
ATOM     36  C   UNL     1       8.269  -3.691  26.645  0.00  0.00    +0.005 A 
ATOM     37  C   UNL     1       8.620  -2.621  25.829  0.00  0.00    +0.049 A 
ENDBRANCH  29  32
ENDBRANCH  27  29
ENDBRANCH  26  27
ENDBRANCH  23  26
ENDBRANCH  22  23
ENDBRANCH   2  22
TORSDOF 12
ENDMDL
MODEL 8
REMARK VINA RESULT:      -7.1      1.522      2.117
REMARK  Name = 
REMARK  14 active torsions:
REMARK  status: ('A' for Active; 'I' for Inactive)
REMARK    1  A    between atoms: C_1  and  C_2
REMARK    2  A    between atoms: C_2  and  C_3
REMARK    3  A    between atoms: C_2  and  C_4
REMARK    4  A    between atoms: C_4  and  C_5
REMARK    5  A    between atoms: C_5  and  C_7
REMARK    6  A    between atoms: C_5  and  C_25
REMARK    7  A    between atoms: N_9  and  C_10
REMARK    8  A    between atoms: C_10  and  C_11
REMARK    9  A    between atoms: C_11  and  O_13
REMARK   10  A    between atoms: C_11  and  C_14
REMARK   11  A    between atoms: C_14  and  N_15
REMARK   12  A    between atoms: N_15  and  S_16
REMARK   13  A    between atoms: S_16  and  C_19
REMARK   14  A    between atoms: C_29  and  C_31
REMARK                            x       y       z     vdW  Elec       q    Type
REMARK                         _______ _______ _______ _____ _____    ______ ____
ROOT
ATOM      1  C   UNL     1       7.695  -2.262  24.350  0.00  0.00    +0.221 C 
ATOM      2  N   UNL     1       7.251  -2.348  23.052  0.00  0.00    -0.312 N 
ATOM      3  H   UNL     1       6.780  -1.572  22.611  0.00  0.00    +0.149 HD
ATOM      4  O   UNL     1       8.236  -3.212  24.912  0.00  0.00    -0.275 OA
ENDROOT
BRANCH   1   5
ATOM      5  C   UNL     1       7.472  -0.924  25.076  0.00  0.00    +0.105 C 
BRANCH   5   6
ATOM      6  C   UNL     1       8.558   0.101  24.726  0.00  0.00    -0.035 A 
ATOM      7  C   UNL     1       8.191   1.411  24.359  0.00  0.00    +0.013 A 
ATOM      8  C   UNL     1       9.145   2.384  23.995  0.00  0.00    -0.018 A 
ATOM      9  C   UNL     1      10.498   2.005  24.044  0.00  0.00    +0.008 A 
ATOM     10  C   UNL     1      10.884   0.722  24.427  0.00  0.00    +0.001 A 
ATOM     11  C   UNL     1       9.921  -0.227  24.750  0.00  0.00    +0.004 A 
BRANCH   8  12
ATOM     12  C   UNL     1       8.754   3.747  23.555  0.00  0.00    -0.018 A 
ATOM     13  C   UNL     1       9.502   4.881  23.929  0.00  0.00    +0.008 A 
ATOM     14  C   UNL     1       9.174   6.162  23.475  0.00  0.00    +0.001 A 
ATOM     15  C   UNL     1       8.073   6.345  22.646  0.00  0.00    +0.000 A 
ATOM     16  C   UNL     1       7.303   5.248  22.274  0.00  0.00    +0.001 A 
ATOM     17  C   UNL     1       7.643   3.965  22.720  0.00  0.00    +0.008 A 
ENDBRANCH   8  12
ENDBRANCH   5   6
BRANCH   5  18
ATOM     18  C   UNL     1       6.060  -0.323  24.905  0.00  0.00    +0.020 C 
BRANCH  18  20
ATOM     19  C   UNL     1       6.143  -0.078  27.463  0.00  0.00    +0.007 C 
ATOM     20  C   UNL     1       5.307   0.073  26.192  0.00  0.00    -0.016 C 
ATOM     21  C   UNL     1       4.830   1.529  26.077  0.00  0.00    +0.007 C 
ENDBRANCH  18  20
ENDBRANCH   5  18
ENDBRANCH   1   5
BRANCH   2  22
ATOM     22  C   UNL     1       7.538  -3.490  22.188  0.00  0.00    +0.136 C 
BRANCH  22  23
ATOM     23  C   UNL     1       6.345  -4.443  22.055  0.00  0.00    +0.147 C 
BRANCH  23  24
ATOM     24  O   UNL     1       5.124  -3.714  22.250  0.00  0.00    -0.389 OA
ATOM     25  H   UNL     1       5.020  -3.154  21.456  0.00  0.00    +0.210 HD
ENDBRANCH  23  24
BRANCH  23  26
ATOM     26  C   UNL     1       6.445  -5.601  23.058  0.00  0.00    +0.138 C 
BRANCH  26  27
ATOM     27  N   UNL     1       5.285  -6.503  22.903  0.00  0.00    -0.186 NA
ATOM     28  H   UNL     1       5.456  -7.474  22.646  0.00  0.00    +0.148 HD
BRANCH  27  29
ATOM     29  S   UNL     1       4.131  -6.435  24.149  0.00  0.00    +0.076 S 
ATOM     30  O   UNL     1       3.839  -7.793  24.561  0.00  0.00    -0.152 OA
ATOM     31  O   UNL     1       3.089  -5.562  23.648  0.00  0.00    -0.152 OA
BRANCH  29  32
ATOM     32  C   UNL     1       4.905  -5.590  25.522  0.00  0.00    +0.194 A 
ATOM     33  N   UNL     1       5.753  -6.326  26.288  0.00  0.00    -0.236 NA
ATOM     34  C   UNL     1       6.346  -5.657  27.302  0.00  0.00    +0.113 A 
ATOM     35  C   UNL     1       6.125  -4.312  27.577  0.00  0.00    +0.020 A 
ATOM     36  C   UNL     1       5.240  -3.597  26.773  0.00  0.00    +0.005 A 
ATOM     37  C   UNL     1       4.607  -4.247  25.719  0.00  0.00    +0.049 A 
ENDBRANCH  29  32
ENDBRANCH  27  29
ENDBRANCH  26  27
ENDBRANCH  23  26
ENDBRANCH  22  23
ENDBRANCH   2  22
TORSDOF 12
ENDMDL
MODEL 9
REMARK VINA RESULT:      -7.0      2.418      4.729
REMARK  Name = 
REMARK  14 active torsions:
REMARK  status: ('A' for Active; 'I' for Inactive)
REMARK    1  A    between atoms: C_1  and  C_2
REMARK    2  A    between atoms: C_2  and  C_3
REMARK    3  A    between atoms: C_2  and  C_4
REMARK    4  A    between atoms: C_4  and  C_5
REMARK    5  A    between atoms: C_5  and  C_7
REMARK    6  A    between atoms: C_5  and  C_25
REMARK    7  A    between atoms: N_9  and  C_10
REMARK    8  A    between atoms: C_10  and  C_11
REMARK    9  A    between atoms: C_11  and  O_13
REMARK   10  A    between atoms: C_11  and  C_14
REMARK   11  A    between atoms: C_14  and  N_15
REMARK   12  A    between atoms: N_15  and  S_16
REMARK   13  A    between atoms: S_16  and  C_19
REMARK   14  A    between atoms: C_29  and  C_31
REMARK                            x       y       z     vdW  Elec       q    Type
REMARK                         _______ _______ _______ _____ _____    ______ ____
ROOT
ATOM      1  C   UNL     1       7.841  -3.644  24.301  0.00  0.00    +0.221 C 
ATOM      2  N   UNL     1       7.202  -3.604  25.517  0.00  0.00    -0.312 N 
ATOM      3  H   UNL     1       6.357  -3.067  25.644  0.00  0.00    +0.149 HD
ATOM      4  O   UNL     1       8.892  -4.262  24.142  0.00  0.00    -0.275 OA
ENDROOT
BRANCH   1   5
ATOM      5  C   UNL     1       7.188  -2.867  23.145  0.00  0.00    +0.105 C 
BRANCH   5   6
ATOM      6  C   UNL     1       8.033  -1.660  22.721  0.00  0.00    -0.035 A 
ATOM      7  C   UNL     1       7.533  -0.355  22.908  0.00  0.00    +0.013 A 
ATOM      8  C   UNL     1       8.254   0.790  22.507  0.00  0.00    -0.018 A 
ATOM      9  C   UNL     1       9.522   0.582  21.936  0.00  0.00    +0.008 A 
ATOM     10  C   UNL     1      10.045  -0.698  21.764  0.00  0.00    +0.001 A 
ATOM     11  C   UNL     1       9.300  -1.810  22.139  0.00  0.00    +0.004 A 
BRANCH   8  12
ATOM     12  C   UNL     1       7.703   2.160  22.654  0.00  0.00    -0.018 A 
ATOM     13  C   UNL     1       8.511   3.234  23.076  0.00  0.00    +0.008 A 
ATOM     14  C   UNL     1       8.015   4.538  23.165  0.00  0.00    +0.001 A 
ATOM     15  C   UNL     1       6.687   4.800  22.849  0.00  0.00    +0.000 A 
ATOM     16  C   UNL     1       5.857   3.758  22.447  0.00  0.00    +0.001 A 
ATOM     17  C   UNL     1       6.362   2.456  22.347  0.00  0.00    +0.008 A 
ENDBRANCH   8  12
ENDBRANCH   5   6
BRANCH   5  18
ATOM     18  C   UNL     1       6.795  -3.730  21.926  0.00  0.00    +0.020 C 
BRANCH  18  20
ATOM     19  C   UNL     1       4.836  -5.123  22.837  0.00  0.00    +0.007 C 
ATOM     20  C   UNL     1       6.233  -5.136  22.215  0.00  0.00    -0.016 C 
ATOM     21  C   UNL     1       6.192  -5.948  20.912  0.00  0.00    +0.007 C 
ENDBRANCH  18  20
ENDBRANCH   5  18
ENDBRANCH   1   5
BRANCH   2  22
ATOM     22  C   UNL     1       7.612  -4.421  26.656  0.00  0.00    +0.136 C 
BRANCH  22  23
ATOM     23  C   UNL     1       6.438  -4.785  27.574  0.00  0.00    +0.147 C 
BRANCH  23  24
ATOM     24  O   UNL     1       6.387  -6.209  27.746  0.00  0.00    -0.389 OA
ATOM     25  H   UNL     1       5.441  -6.429  27.854  0.00  0.00    +0.210 HD
ENDBRANCH  23  24
BRANCH  23  26
ATOM     26  C   UNL     1       5.110  -4.264  27.009  0.00  0.00    +0.138 C 
BRANCH  26  27
ATOM     27  N   UNL     1       4.840  -2.907  27.528  0.00  0.00    -0.186 NA
ATOM     28  H   UNL     1       5.536  -2.470  28.130  0.00  0.00    +0.148 HD
BRANCH  27  29
ATOM     29  S   UNL     1       4.286  -1.779  26.383  0.00  0.00    +0.076 S 
ATOM     30  O   UNL     1       3.037  -1.229  26.867  0.00  0.00    -0.152 OA
ATOM     31  O   UNL     1       4.360  -2.470  25.112  0.00  0.00    -0.152 OA
BRANCH  29  32
ATOM     32  C   UNL     1       5.493  -0.461  26.333  0.00  0.00    +0.194 A 
ATOM     33  N   UNL     1       6.764  -0.788  26.683  0.00  0.00    -0.236 NA
ATOM     34  C   UNL     1       7.662   0.219  26.610  0.00  0.00    +0.113 A 
ATOM     35  C   UNL     1       7.346   1.514  26.214  0.00  0.00    +0.020 A 
ATOM     36  C   UNL     1       6.027   1.809  25.874  0.00  0.00    +0.005 A 
ATOM     37  C   UNL     1       5.070   0.802  25.936  0.00  0.00    +0.049 A 
ENDBRANCH  29  32
ENDBRANCH  27  29
ENDBRANCH  26  27
ENDBRANCH  23  26
ENDBRANCH  22  23
ENDBRANCH   2  22
TORSDOF 12
ENDMDL
