MODEL 1
REMARK VINA RESULT:      -6.5      0.000      0.000
REMARK  Name = 
REMARK  31 active torsions:
REMARK  status: ('A' for Active; 'I' for Inactive)
REMARK    1  A    between atoms: C_1  and  C_2
REMARK    2  A    between atoms: C_2  and  C_3
REMARK    3  A    between atoms: C_2  and  C_4
REMARK    4  A    between atoms: C_2  and  C_40
REMARK    5  A    between atoms: C_4  and  O_5
REMARK    6  A    between atoms: O_5  and  P_6
REMARK    7  A    between atoms: P_6  and  O_7
REMARK    8  A    between atoms: P_6  and  O_9
REMARK    9  A    between atoms: O_9  and  P_10
REMARK   10  A    between atoms: P_10  and  O_11
REMARK   11  A    between atoms: P_10  and  O_13
REMARK   12  A    between atoms: O_13  and  C_14
REMARK   13  A    between atoms: C_14  and  C_15
REMARK   14  A    between atoms: C_18  and  N_30
REMARK   15  A    between atoms: C_20  and  O_22
REMARK   16  A    between atoms: C_23  and  O_25
REMARK   17  A    between atoms: O_25  and  P_26
REMARK   18  A    between atoms: P_26  and  O_27
REMARK   19  A    between atoms: P_26  and  O_28
REMARK   20  A    between atoms: C_40  and  O_42
REMARK   21  A    between atoms: C_40  and  C_43
REMARK   22  A    between atoms: N_45  and  C_46
REMARK   23  A    between atoms: C_46  and  C_47
REMARK   24  A    between atoms: C_47  and  C_48
REMARK   25  A    between atoms: N_50  and  C_51
REMARK   26  A    between atoms: C_51  and  C_52
REMARK   27  A    between atoms: C_52  and  N_53
REMARK   28  A    between atoms: C_54  and  C_56
REMARK   29  A    between atoms: C_56  and  C_57
REMARK   30  A    between atoms: C_57  and  C_58
REMARK   31  A    between atoms: C_58  and  O_59
REMARK                            x       y       z     vdW  Elec       q    Type
REMARK                         _______ _______ _______ _____ _____    ______ ____
ROOT
ATOM      1  P   UNL     1       5.468  -5.066  22.623  0.00  0.00    +0.483 P 
ATOM      2  O   UNL     1       6.457  -6.191  22.465  0.00  0.00    -0.227 OA
ENDROOT
BRANCH   1   3
ATOM      3  O   UNL     1       5.699  -4.042  21.400  0.00  0.00    -0.302 OA
ATOM      4  H   UNL     1       6.244  -4.465  20.706  0.00  0.00    +0.222 HD
ENDBRANCH   1   3
BRANCH   1   5
ATOM      5  O   UNL     1       3.894  -5.597  22.358  0.00  0.00    -0.286 OA
BRANCH   5   6
ATOM      6  C   UNL     1       2.801  -5.551  23.342  0.00  0.00    +0.181 C 
BRANCH   6   8
ATOM      7  C   UNL     1       0.839  -6.415  24.735  0.00  0.00    +0.016 C 
ATOM      8  C   UNL     1       2.156  -6.966  24.114  0.00  0.00    +0.024 C 
ATOM      9  C   UNL     1       1.509  -8.312  23.539  0.00  0.00    +0.016 C 
BRANCH   8  10
ATOM     10  C   UNL     1       3.244  -7.424  25.198  0.00  0.00    +0.208 C 
BRANCH  10  11
ATOM     11  C   UNL     1       3.266  -6.550  26.514  0.00  0.00    +0.242 C 
ATOM     12  N   UNL     1       4.127  -5.472  26.528  0.00  0.00    -0.313 N 
ATOM     13  H   UNL     1       4.606  -5.273  25.658  0.00  0.00    +0.149 HD
ATOM     14  O   UNL     1       2.625  -6.845  27.511  0.00  0.00    -0.273 OA
BRANCH  12  15
ATOM     15  C   UNL     1       4.499  -4.693  27.720  0.00  0.00    +0.113 C 
BRANCH  15  16
ATOM     16  C   UNL     1       5.965  -4.633  28.110  0.00  0.00    +0.114 C 
BRANCH  16  17
ATOM     17  C   UNL     1       6.841  -5.159  27.001  0.00  0.00    +0.215 C 
ATOM     18  N   UNL     1       7.706  -4.182  26.594  0.00  0.00    -0.314 N 
ATOM     19  H   UNL     1       7.759  -3.387  27.229  0.00  0.00    +0.149 HD
ATOM     20  O   UNL     1       6.808  -6.286  26.525  0.00  0.00    -0.276 OA
BRANCH  18  21
ATOM     21  C   UNL     1       8.991  -4.596  26.139  0.00  0.00    +0.123 C 
BRANCH  21  22
ATOM     22  C   UNL     1       9.046  -4.213  24.691  0.00  0.00    +0.123 C 
BRANCH  22  23
ATOM     23  N   UNL     1       9.714  -2.971  24.248  0.00  0.00    -0.314 N 
ATOM     24  H   UNL     1      10.241  -2.427  24.935  0.00  0.00    +0.149 HD
ATOM     25  C   UNL     1       9.078  -2.140  23.340  0.00  0.00    +0.214 C 
ATOM     26  O   UNL     1       8.407  -2.674  22.457  0.00  0.00    -0.276 OA
BRANCH  25  27
ATOM     27  C   UNL     1       9.281  -0.639  23.351  0.00  0.00    +0.107 C 
BRANCH  27  28
ATOM     28  C   UNL     1       9.827  -0.209  22.011  0.00  0.00    +0.129 C 
BRANCH  28  29
ATOM     29  C   UNL     1       9.054   0.991  21.692  0.00  0.00    +0.305 C 
ATOM     30  O   UNL     1       7.838   1.029  21.841  0.00  0.00    -0.251 OA
BRANCH  29  31
ATOM     31  O   UNL     1       9.932   2.012  21.587  0.00  0.00    -0.481 OA
ATOM     32  H   UNL     1      10.621   1.769  20.917  0.00  0.00    +0.295 HD
ENDBRANCH  29  31
ENDBRANCH  28  29
ENDBRANCH  27  28
ENDBRANCH  25  27
ENDBRANCH  22  23
ENDBRANCH  21  22
ENDBRANCH  18  21
ENDBRANCH  16  17
ENDBRANCH  15  16
ENDBRANCH  12  15
ENDBRANCH  10  11
BRANCH  10  33
ATOM     33  O   UNL     1       4.588  -7.500  24.701  0.00  0.00    -0.382 OA
ATOM     34  H   UNL     1       4.790  -6.691  24.207  0.00  0.00    +0.210 HD
ENDBRANCH  10  33
ENDBRANCH   8  10
ENDBRANCH   6   8
ENDBRANCH   5   6
ENDBRANCH   1   5
BRANCH   1  35
ATOM     35  O   UNL     1       5.814  -4.212  23.984  0.00  0.00    -0.186 OA
BRANCH  35  36
ATOM     36  P   UNL     1       5.278  -2.741  24.458  0.00  0.00    +0.483 P 
ATOM     37  O   UNL     1       3.840  -2.664  24.856  0.00  0.00    -0.227 OA
BRANCH  36  38
ATOM     38  O   UNL     1       5.593  -1.880  23.143  0.00  0.00    -0.302 OA
ATOM     39  H   UNL     1       4.788  -1.414  22.832  0.00  0.00    +0.222 HD
ENDBRANCH  36  38
BRANCH  36  40
ATOM     40  O   UNL     1       6.270  -1.925  25.516  0.00  0.00    -0.284 OA
BRANCH  40  41
ATOM     41  C   UNL     1       5.894  -1.117  26.675  0.00  0.00    +0.206 C 
BRANCH  41  42
ATOM     42  C   UNL     1       4.977   0.096  26.495  0.00  0.00    +0.179 C 
ATOM     43  C   UNL     1       5.342   1.148  27.497  0.00  0.00    +0.194 C 
ATOM     44  C   UNL     1       6.147   2.181  26.715  0.00  0.00    +0.196 C 
ATOM     45  C   UNL     1       6.271   1.633  25.294  0.00  0.00    +0.253 C 
ATOM     46  O   UNL     1       5.184   0.689  25.168  0.00  0.00    -0.346 OA
BRANCH  45  47
ATOM     47  N   UNL     1       6.223   2.680  24.278  0.00  0.00    -0.286 N 
ATOM     48  C   UNL     1       7.240   3.588  24.057  0.00  0.00    +0.167 A 
ATOM     49  N   UNL     1       8.394   3.696  24.739  0.00  0.00    -0.216 NA
ATOM     50  C   UNL     1       9.151   4.697  24.234  0.00  0.00    +0.225 A 
ATOM     51  N   UNL     1       8.869   5.530  23.208  0.00  0.00    -0.219 NA
ATOM     52  C   UNL     1       7.694   5.371  22.553  0.00  0.00    +0.147 A 
ATOM     53  N   UNL     1       7.429   6.214  21.484  0.00  0.00    -0.341 N 
ATOM     54  H   UNL     1       6.455   6.276  21.217  0.00  0.00    +0.144 HD
ATOM     55  H   UNL     1       7.987   7.060  21.504  0.00  0.00    +0.144 HD
ATOM     56  C   UNL     1       6.821   4.361  22.992  0.00  0.00    +0.147 A 
ATOM     57  N   UNL     1       5.562   3.957  22.573  0.00  0.00    -0.231 NA
ATOM     58  C   UNL     1       5.248   2.942  23.356  0.00  0.00    +0.203 A 
ENDBRANCH  45  47
BRANCH  44  59
ATOM     59  O   UNL     1       7.413   2.354  27.341  0.00  0.00    -0.385 OA
ATOM     60  H   UNL     1       7.514   3.307  27.543  0.00  0.00    +0.210 HD
ENDBRANCH  44  59
BRANCH  43  61
ATOM     61  O   UNL     1       4.133   1.705  27.989  0.00  0.00    -0.278 OA
BRANCH  61  62
ATOM     62  P   UNL     1       3.703   1.263  29.462  0.00  0.00    +0.473 P 
ATOM     63  O   UNL     1       3.017   2.293  30.287  0.00  0.00    -0.228 OA
BRANCH  62  64
ATOM     64  O   UNL     1       5.048   0.660  30.058  0.00  0.00    -0.303 OA
ATOM     65  H   UNL     1       5.807   1.237  29.873  0.00  0.00    +0.222 HD
ENDBRANCH  62  64
BRANCH  62  66
ATOM     66  O   UNL     1       2.819  -0.036  29.196  0.00  0.00    -0.303 OA
ATOM     67  H   UNL     1       2.038  -0.037  29.780  0.00  0.00    +0.222 HD
ENDBRANCH  62  66
ENDBRANCH  61  62
ENDBRANCH  43  61
ENDBRANCH  41  42
ENDBRANCH  40  41
ENDBRANCH  36  40
ENDBRANCH  35  36
ENDBRANCH   1  35
TORSDOF 29
ENDMDL
MODEL 2
REMARK VINA RESULT:      -6.3      1.607      2.451
REMARK  Name = 
REMARK  31 active torsions:
REMARK  status: ('A' for Active; 'I' for Inactive)
REMARK    1  A    between atoms: C_1  and  C_2
REMARK    2  A    between atoms: C_2  and  C_3
REMARK    3  A    between atoms: C_2  and  C_4
REMARK    4  A    between atoms: C_2  and  C_40
REMARK    5  A    between atoms: C_4  and  O_5
REMARK    6  A    between atoms: O_5  and  P_6
REMARK    7  A    between atoms: P_6  and  O_7
REMARK    8  A    between atoms: P_6  and  O_9
REMARK    9  A    between atoms: O_9  and  P_10
REMARK   10  A    between atoms: P_10  and  O_11
REMARK   11  A    between atoms: P_10  and  O_13
REMARK   12  A    between atoms: O_13  and  C_14
REMARK   13  A    between atoms: C_14  and  C_15
REMARK   14  A    between atoms: C_18  and  N_30
REMARK   15  A    between atoms: C_20  and  O_22
REMARK   16  A    between atoms: C_23  and  O_25
REMARK   17  A    between atoms: O_25  and  P_26
REMARK   18  A    between atoms: P_26  and  O_27
REMARK   19  A    between atoms: P_26  and  O_28
REMARK   20  A    between atoms: C_40  and  O_42
REMARK   21  A    between atoms: C_40  and  C_43
REMARK   22  A    between atoms: N_45  and  C_46
REMARK   23  A    between atoms: C_46  and  C_47
REMARK   24  A    between atoms: C_47  and  C_48
REMARK   25  A    between atoms: N_50  and  C_51
REMARK   26  A    between atoms: C_51  and  C_52
REMARK   27  A    between atoms: C_52  and  N_53
REMARK   28  A    between atoms: C_54  and  C_56
REMARK   29  A    between atoms: C_56  and  C_57
REMARK   30  A    between atoms: C_57  and  C_58
REMARK   31  A    between atoms: C_58  and  O_59
REMARK                            x       y       z     vdW  Elec       q    Type
REMARK                         _______ _______ _______ _____ _____    ______ ____
ROOT
ATOM      1  P   UNL     1       5.607  -5.663  23.301  0.00  0.00    +0.483 P 
ATOM      2  O   UNL     1       6.463  -6.318  22.249  0.00  0.00    -0.227 OA
ENDROOT
BRANCH   1   3
ATOM      3  O   UNL     1       4.180  -5.332  22.628  0.00  0.00    -0.302 OA
ATOM      4  H   UNL     1       3.921  -6.052  22.018  0.00  0.00    +0.222 HD
ENDBRANCH   1   3
BRANCH   1   5
ATOM      5  O   UNL     1       5.191  -6.752  24.513  0.00  0.00    -0.286 OA
BRANCH   5   6
ATOM      6  C   UNL     1       3.821  -7.143  24.875  0.00  0.00    +0.181 C 
BRANCH   6   8
ATOM      7  C   UNL     1       2.414  -5.225  25.812  0.00  0.00    +0.016 C 
ATOM      8  C   UNL     1       3.014  -6.574  26.304  0.00  0.00    +0.024 C 
ATOM      9  C   UNL     1       1.697  -7.064  27.070  0.00  0.00    +0.016 C 
BRANCH   8  10
ATOM     10  C   UNL     1       4.145  -6.412  27.426  0.00  0.00    +0.208 C 
BRANCH  10  11
ATOM     11  C   UNL     1       5.022  -5.105  27.289  0.00  0.00    +0.242 C 
ATOM     12  N   UNL     1       6.325  -5.272  26.868  0.00  0.00    -0.313 N 
ATOM     13  H   UNL     1       6.586  -6.211  26.591  0.00  0.00    +0.149 HD
ATOM     14  O   UNL     1       4.613  -4.001  27.615  0.00  0.00    -0.273 OA
BRANCH  12  15
ATOM     15  C   UNL     1       7.378  -4.246  26.923  0.00  0.00    +0.113 C 
BRANCH  15  16
ATOM     16  C   UNL     1       8.808  -4.669  26.646  0.00  0.00    +0.114 C 
BRANCH  16  17
ATOM     17  C   UNL     1       9.150  -4.500  25.187  0.00  0.00    +0.215 C 
ATOM     18  N   UNL     1       9.093  -3.177  24.850  0.00  0.00    -0.314 N 
ATOM     19  H   UNL     1       9.055  -2.548  25.651  0.00  0.00    +0.149 HD
ATOM     20  O   UNL     1       9.444  -5.394  24.404  0.00  0.00    -0.276 OA
BRANCH  18  21
ATOM     21  C   UNL     1       9.996  -2.719  23.847  0.00  0.00    +0.123 C 
BRANCH  21  22
ATOM     22  C   UNL     1       9.150  -1.987  22.851  0.00  0.00    +0.123 C 
BRANCH  22  23
ATOM     23  N   UNL     1       8.564  -0.666  23.161  0.00  0.00    -0.314 N 
ATOM     24  H   UNL     1       7.829  -0.610  23.870  0.00  0.00    +0.149 HD
ATOM     25  C   UNL     1       8.333   0.237  22.135  0.00  0.00    +0.214 C 
ATOM     26  O   UNL     1       9.149   0.269  21.214  0.00  0.00    -0.276 OA
BRANCH  25  27
ATOM     27  C   UNL     1       7.189   1.227  22.185  0.00  0.00    +0.107 C 
BRANCH  27  28
ATOM     28  C   UNL     1       7.624   2.512  21.523  0.00  0.00    +0.129 C 
BRANCH  28  29
ATOM     29  C   UNL     1       6.654   3.495  22.005  0.00  0.00    +0.305 C 
ATOM     30  O   UNL     1       5.699   3.167  22.701  0.00  0.00    -0.251 OA
BRANCH  29  31
ATOM     31  O   UNL     1       7.213   4.715  21.846  0.00  0.00    -0.481 OA
ATOM     32  H   UNL     1       7.903   4.840  22.548  0.00  0.00    +0.295 HD
ENDBRANCH  29  31
ENDBRANCH  28  29
ENDBRANCH  27  28
ENDBRANCH  25  27
ENDBRANCH  22  23
ENDBRANCH  21  22
ENDBRANCH  18  21
ENDBRANCH  16  17
ENDBRANCH  15  16
ENDBRANCH  12  15
ENDBRANCH  10  11
BRANCH  10  33
ATOM     33  O   UNL     1       5.040  -7.528  27.540  0.00  0.00    -0.382 OA
ATOM     34  H   UNL     1       5.343  -7.783  26.655  0.00  0.00    +0.210 HD
ENDBRANCH  10  33
ENDBRANCH   8  10
ENDBRANCH   6   8
ENDBRANCH   5   6
ENDBRANCH   1   5
BRANCH   1  35
ATOM     35  O   UNL     1       6.250  -4.206  23.709  0.00  0.00    -0.186 OA
BRANCH  35  36
ATOM     36  P   UNL     1       5.501  -2.786  24.024  0.00  0.00    +0.483 P 
ATOM     37  O   UNL     1       4.067  -2.877  24.429  0.00  0.00    -0.227 OA
BRANCH  36  38
ATOM     38  O   UNL     1       5.693  -2.040  22.619  0.00  0.00    -0.302 OA
ATOM     39  H   UNL     1       6.609  -1.701  22.527  0.00  0.00    +0.222 HD
ENDBRANCH  36  38
BRANCH  36  40
ATOM     40  O   UNL     1       6.359  -1.721  24.973  0.00  0.00    -0.284 OA
BRANCH  40  41
ATOM     41  C   UNL     1       5.938  -1.067  26.211  0.00  0.00    +0.206 C 
BRANCH  41  42
ATOM     42  C   UNL     1       5.398   0.365  26.172  0.00  0.00    +0.179 C 
ATOM     43  C   UNL     1       5.489   0.968  27.541  0.00  0.00    +0.194 C 
ATOM     44  C   UNL     1       6.707   1.884  27.493  0.00  0.00    +0.196 C 
ATOM     45  C   UNL     1       7.313   1.710  26.101  0.00  0.00    +0.253 C 
ATOM     46  O   UNL     1       6.233   1.193  25.292  0.00  0.00    -0.346 OA
BRANCH  45  47
ATOM     47  N   UNL     1       7.868   2.950  25.567  0.00  0.00    -0.286 N 
ATOM     48  C   UNL     1       9.019   3.016  24.806  0.00  0.00    +0.167 A 
ATOM     49  N   UNL     1       9.830   1.996  24.472  0.00  0.00    -0.216 NA
ATOM     50  C   UNL     1      10.859   2.440  23.713  0.00  0.00    +0.225 A 
ATOM     51  N   UNL     1      11.125   3.702  23.310  0.00  0.00    -0.219 NA
ATOM     52  C   UNL     1      10.270   4.688  23.671  0.00  0.00    +0.147 A 
ATOM     53  N   UNL     1      10.540   5.974  23.228  0.00  0.00    -0.341 N 
ATOM     54  H   UNL     1      10.077   6.712  23.745  0.00  0.00    +0.144 HD
ATOM     55  H   UNL     1      11.507   6.099  22.955  0.00  0.00    +0.144 HD
ATOM     56  C   UNL     1       9.163   4.347  24.467  0.00  0.00    +0.147 A 
ATOM     57  N   UNL     1       8.135   5.095  25.020  0.00  0.00    -0.231 NA
ATOM     58  C   UNL     1       7.376   4.223  25.655  0.00  0.00    +0.203 A 
ENDBRANCH  45  47
BRANCH  44  59
ATOM     59  O   UNL     1       7.611   1.510  28.527  0.00  0.00    -0.385 OA
ATOM     60  H   UNL     1       8.274   0.906  28.134  0.00  0.00    +0.210 HD
ENDBRANCH  44  59
BRANCH  43  61
ATOM     61  O   UNL     1       4.299   1.709  27.759  0.00  0.00    -0.278 OA
BRANCH  61  62
ATOM     62  P   UNL     1       3.501   1.378  29.102  0.00  0.00    +0.473 P 
ATOM     63  O   UNL     1       2.077   1.807  29.149  0.00  0.00    -0.228 OA
BRANCH  62  64
ATOM     64  O   UNL     1       4.453   1.964  30.233  0.00  0.00    -0.303 OA
ATOM     65  H   UNL     1       4.467   1.390  31.015  0.00  0.00    +0.222 HD
ENDBRANCH  62  64
BRANCH  62  66
ATOM     66  O   UNL     1       3.699  -0.196  29.252  0.00  0.00    -0.303 OA
ATOM     67  H   UNL     1       3.521  -0.641  28.402  0.00  0.00    +0.222 HD
ENDBRANCH  62  66
ENDBRANCH  61  62
ENDBRANCH  43  61
ENDBRANCH  41  42
ENDBRANCH  40  41
ENDBRANCH  36  40
ENDBRANCH  35  36
ENDBRANCH   1  35
TORSDOF 29
ENDMDL
MODEL 3
REMARK VINA RESULT:      -6.2      2.323      8.386
REMARK  Name = 
REMARK  31 active torsions:
REMARK  status: ('A' for Active; 'I' for Inactive)
REMARK    1  A    between atoms: C_1  and  C_2
REMARK    2  A    between atoms: C_2  and  C_3
REMARK    3  A    between atoms: C_2  and  C_4
REMARK    4  A    between atoms: C_2  and  C_40
REMARK    5  A    between atoms: C_4  and  O_5
REMARK    6  A    between atoms: O_5  and  P_6
REMARK    7  A    between atoms: P_6  and  O_7
REMARK    8  A    between atoms: P_6  and  O_9
REMARK    9  A    between atoms: O_9  and  P_10
REMARK   10  A    between atoms: P_10  and  O_11
REMARK   11  A    between atoms: P_10  and  O_13
REMARK   12  A    between atoms: O_13  and  C_14
REMARK   13  A    between atoms: C_14  and  C_15
REMARK   14  A    between atoms: C_18  and  N_30
REMARK   15  A    between atoms: C_20  and  O_22
REMARK   16  A    between atoms: C_23  and  O_25
REMARK   17  A    between atoms: O_25  and  P_26
REMARK   18  A    between atoms: P_26  and  O_27
REMARK   19  A    between atoms: P_26  and  O_28
REMARK   20  A    between atoms: C_40  and  O_42
REMARK   21  A    between atoms: C_40  and  C_43
REMARK   22  A    between atoms: N_45  and  C_46
REMARK   23  A    between atoms: C_46  and  C_47
REMARK   24  A    between atoms: C_47  and  C_48
REMARK   25  A    between atoms: N_50  and  C_51
REMARK   26  A    between atoms: C_51  and  C_52
REMARK   27  A    between atoms: C_52  and  N_53
REMARK   28  A    between atoms: C_54  and  C_56
REMARK   29  A    between atoms: C_56  and  C_57
REMARK   30  A    between atoms: C_57  and  C_58
REMARK   31  A    between atoms: C_58  and  O_59
REMARK                            x       y       z     vdW  Elec       q    Type
REMARK                         _______ _______ _______ _____ _____    ______ ____
ROOT
ATOM      1  P   UNL     1       6.685  -0.933  25.045  0.00  0.00    +0.483 P 
ATOM      2  O   UNL     1       5.243  -1.231  24.728  0.00  0.00    -0.227 OA
ENDROOT
BRANCH   1   3
ATOM      3  O   UNL     1       6.949   0.618  24.692  0.00  0.00    -0.302 OA
ATOM      4  H   UNL     1       6.255   1.177  25.096  0.00  0.00    +0.222 HD
ENDBRANCH   1   3
BRANCH   1   5
ATOM      5  O   UNL     1       6.965  -0.979  26.703  0.00  0.00    -0.286 OA
BRANCH   5   6
ATOM      6  C   UNL     1       7.666   0.056  27.479  0.00  0.00    +0.181 C 
BRANCH   6   8
ATOM      7  C   UNL     1       7.557   1.319  29.699  0.00  0.00    +0.016 C 
ATOM      8  C   UNL     1       6.844   1.338  28.316  0.00  0.00    +0.024 C 
ATOM      9  C   UNL     1       6.867   2.928  28.146  0.00  0.00    +0.016 C 
BRANCH   8  10
ATOM     10  C   UNL     1       5.299   0.919  28.375  0.00  0.00    +0.208 C 
BRANCH  10  11
ATOM     11  C   UNL     1       4.350   1.786  27.457  0.00  0.00    +0.242 C 
ATOM     12  N   UNL     1       4.556   1.700  26.095  0.00  0.00    -0.313 N 
ATOM     13  H   UNL     1       5.238   1.017  25.790  0.00  0.00    +0.149 HD
ATOM     14  O   UNL     1       3.525   2.563  27.911  0.00  0.00    -0.273 OA
BRANCH  12  15
ATOM     15  C   UNL     1       3.977   2.602  25.087  0.00  0.00    +0.113 C 
BRANCH  15  16
ATOM     16  C   UNL     1       4.734   3.870  24.738  0.00  0.00    +0.114 C 
BRANCH  16  17
ATOM     17  C   UNL     1       5.481   3.713  23.437  0.00  0.00    +0.215 C 
ATOM     18  N   UNL     1       5.924   4.933  23.010  0.00  0.00    -0.314 N 
ATOM     19  H   UNL     1       5.873   5.663  23.719  0.00  0.00    +0.149 HD
ATOM     20  O   UNL     1       5.680   2.664  22.838  0.00  0.00    -0.276 OA
BRANCH  18  21
ATOM     21  C   UNL     1       7.154   4.966  22.290  0.00  0.00    +0.123 C 
BRANCH  21  22
ATOM     22  C   UNL     1       8.214   5.209  23.320  0.00  0.00    +0.123 C 
BRANCH  22  23
ATOM     23  N   UNL     1       9.437   4.379  23.378  0.00  0.00    -0.314 N 
ATOM     24  H   UNL     1      10.071   4.385  22.576  0.00  0.00    +0.149 HD
ATOM     25  C   UNL     1       9.382   3.121  23.956  0.00  0.00    +0.214 C 
ATOM     26  O   UNL     1       8.650   2.980  24.936  0.00  0.00    -0.276 OA
BRANCH  25  27
ATOM     27  C   UNL     1      10.265   1.985  23.484  0.00  0.00    +0.107 C 
BRANCH  27  28
ATOM     28  C   UNL     1      10.110   1.833  21.991  0.00  0.00    +0.129 C 
BRANCH  28  29
ATOM     29  C   UNL     1       9.208   0.690  21.852  0.00  0.00    +0.305 C 
ATOM     30  O   UNL     1       7.994   0.813  21.971  0.00  0.00    -0.251 OA
BRANCH  29  31
ATOM     31  O   UNL     1       9.910  -0.300  21.259  0.00  0.00    -0.481 OA
ATOM     32  H   UNL     1       9.290  -0.840  20.705  0.00  0.00    +0.295 HD
ENDBRANCH  29  31
ENDBRANCH  28  29
ENDBRANCH  27  28
ENDBRANCH  25  27
ENDBRANCH  22  23
ENDBRANCH  21  22
ENDBRANCH  18  21
ENDBRANCH  16  17
ENDBRANCH  15  16
ENDBRANCH  12  15
ENDBRANCH  10  11
BRANCH  10  33
ATOM     33  O   UNL     1       4.734   0.902  29.695  0.00  0.00    -0.382 OA
ATOM     34  H   UNL     1       3.767   0.915  29.626  0.00  0.00    +0.210 HD
ENDBRANCH  10  33
ENDBRANCH   8  10
ENDBRANCH   6   8
ENDBRANCH   5   6
ENDBRANCH   1   5
BRANCH   1  35
ATOM     35  O   UNL     1       7.662  -1.786  24.036  0.00  0.00    -0.186 OA
BRANCH  35  36
ATOM     36  P   UNL     1       9.217  -2.253  24.236  0.00  0.00    +0.483 P 
ATOM     37  O   UNL     1      10.161  -1.202  24.721  0.00  0.00    -0.227 OA
BRANCH  36  38
ATOM     38  O   UNL     1       9.564  -2.747  22.751  0.00  0.00    -0.302 OA
ATOM     39  H   UNL     1       9.608  -1.985  22.133  0.00  0.00    +0.222 HD
ENDBRANCH  36  38
BRANCH  36  40
ATOM     40  O   UNL     1       9.432  -3.705  25.021  0.00  0.00    -0.284 OA
BRANCH  40  41
ATOM     41  C   UNL     1       8.882  -4.132  26.306  0.00  0.00    +0.206 C 
BRANCH  41  42
ATOM     42  C   UNL     1       7.928  -5.329  26.368  0.00  0.00    +0.179 C 
ATOM     43  C   UNL     1       6.914  -5.101  27.447  0.00  0.00    +0.194 C 
ATOM     44  C   UNL     1       5.645  -4.674  26.717  0.00  0.00    +0.196 C 
ATOM     45  C   UNL     1       6.011  -4.607  25.235  0.00  0.00    +0.253 C 
ATOM     46  O   UNL     1       7.183  -5.443  25.108  0.00  0.00    -0.346 OA
BRANCH  45  47
ATOM     47  N   UNL     1       4.922  -5.036  24.363  0.00  0.00    -0.286 N 
ATOM     48  C   UNL     1       4.142  -6.152  24.594  0.00  0.00    +0.167 A 
ATOM     49  N   UNL     1       4.269  -7.037  25.600  0.00  0.00    -0.216 NA
ATOM     50  C   UNL     1       3.322  -7.999  25.505  0.00  0.00    +0.225 A 
ATOM     51  N   UNL     1       2.358  -8.142  24.570  0.00  0.00    -0.219 NA
ATOM     52  C   UNL     1       2.273  -7.218  23.584  0.00  0.00    +0.147 A 
ATOM     53  N   UNL     1       1.262  -7.362  22.645  0.00  0.00    -0.341 N 
ATOM     54  H   UNL     1       1.404  -6.854  21.781  0.00  0.00    +0.144 HD
ATOM     55  H   UNL     1       0.896  -8.305  22.606  0.00  0.00    +0.144 HD
ATOM     56  C   UNL     1       3.210  -6.170  23.575  0.00  0.00    +0.147 A 
ATOM     57  N   UNL     1       3.418  -5.100  22.718  0.00  0.00    -0.231 NA
ATOM     58  C   UNL     1       4.437  -4.439  23.232  0.00  0.00    +0.203 A 
ENDBRANCH  45  47
BRANCH  44  59
ATOM     59  O   UNL     1       5.216  -3.417  27.226  0.00  0.00    -0.385 OA
ATOM     60  H   UNL     1       5.931  -3.071  27.799  0.00  0.00    +0.210 HD
ENDBRANCH  44  59
BRANCH  43  61
ATOM     61  O   UNL     1       6.728  -6.334  28.123  0.00  0.00    -0.278 OA
BRANCH  61  62
ATOM     62  P   UNL     1       5.692  -6.320  29.339  0.00  0.00    +0.473 P 
ATOM     63  O   UNL     1       5.170  -4.989  29.748  0.00  0.00    -0.228 OA
BRANCH  62  64
ATOM     64  O   UNL     1       6.449  -7.157  30.458  0.00  0.00    -0.303 OA
ATOM     65  H   UNL     1       5.958  -7.961  30.691  0.00  0.00    +0.222 HD
ENDBRANCH  62  64
BRANCH  62  66
ATOM     66  O   UNL     1       4.559  -7.327  28.848  0.00  0.00    -0.303 OA
ATOM     67  H   UNL     1       4.713  -7.581  27.919  0.00  0.00    +0.222 HD
ENDBRANCH  62  66
ENDBRANCH  61  62
ENDBRANCH  43  61
ENDBRANCH  41  42
ENDBRANCH  40  41
ENDBRANCH  36  40
ENDBRANCH  35  36
ENDBRANCH   1  35
TORSDOF 29
ENDMDL
MODEL 4
REMARK VINA RESULT:      -6.2      2.561      5.445
REMARK  Name = 
REMARK  31 active torsions:
REMARK  status: ('A' for Active; 'I' for Inactive)
REMARK    1  A    between atoms: C_1  and  C_2
REMARK    2  A    between atoms: C_2  and  C_3
REMARK    3  A    between atoms: C_2  and  C_4
REMARK    4  A    between atoms: C_2  and  C_40
REMARK    5  A    between atoms: C_4  and  O_5
REMARK    6  A    between atoms: O_5  and  P_6
REMARK    7  A    between atoms: P_6  and  O_7
REMARK    8  A    between atoms: P_6  and  O_9
REMARK    9  A    between atoms: O_9  and  P_10
REMARK   10  A    between atoms: P_10  and  O_11
REMARK   11  A    between atoms: P_10  and  O_13
REMARK   12  A    between atoms: O_13  and  C_14
REMARK   13  A    between atoms: C_14  and  C_15
REMARK   14  A    between atoms: C_18  and  N_30
REMARK   15  A    between atoms: C_20  and  O_22
REMARK   16  A    between atoms: C_23  and  O_25
REMARK   17  A    between atoms: O_25  and  P_26
REMARK   18  A    between atoms: P_26  and  O_27
REMARK   19  A    between atoms: P_26  and  O_28
REMARK   20  A    between atoms: C_40  and  O_42
REMARK   21  A    between atoms: C_40  and  C_43
REMARK   22  A    between atoms: N_45  and  C_46
REMARK   23  A    between atoms: C_46  and  C_47
REMARK   24  A    between atoms: C_47  and  C_48
REMARK   25  A    between atoms: N_50  and  C_51
REMARK   26  A    between atoms: C_51  and  C_52
REMARK   27  A    between atoms: C_52  and  N_53
REMARK   28  A    between atoms: C_54  and  C_56
REMARK   29  A    between atoms: C_56  and  C_57
REMARK   30  A    between atoms: C_57  and  C_58
REMARK   31  A    between atoms: C_58  and  O_59
REMARK                            x       y       z     vdW  Elec       q    Type
REMARK                         _______ _______ _______ _____ _____    ______ ____
ROOT
ATOM      1  P   UNL     1       4.001  -2.076  26.747  0.00  0.00    +0.483 P 
ATOM      2  O   UNL     1       4.507  -2.765  25.507  0.00  0.00    -0.227 OA
ENDROOT
BRANCH   1   3
ATOM      3  O   UNL     1       2.579  -1.407  26.384  0.00  0.00    -0.302 OA
ATOM      4  H   UNL     1       1.998  -1.407  27.171  0.00  0.00    +0.222 HD
ENDBRANCH   1   3
BRANCH   1   5
ATOM      5  O   UNL     1       3.583  -3.190  27.936  0.00  0.00    -0.286 OA
BRANCH   5   6
ATOM      6  C   UNL     1       4.418  -4.316  28.381  0.00  0.00    +0.181 C 
BRANCH   6   8
ATOM      7  C   UNL     1       4.570  -6.795  28.991  0.00  0.00    +0.016 C 
ATOM      8  C   UNL     1       4.271  -5.923  27.737  0.00  0.00    +0.024 C 
ATOM      9  C   UNL     1       3.013  -6.779  27.244  0.00  0.00    +0.016 C 
BRANCH   8  10
ATOM     10  C   UNL     1       5.373  -6.048  26.581  0.00  0.00    +0.208 C 
BRANCH  10  11
ATOM     11  C   UNL     1       6.716  -5.267  26.868  0.00  0.00    +0.242 C 
ATOM     12  N   UNL     1       6.943  -4.127  26.124  0.00  0.00    -0.313 N 
ATOM     13  H   UNL     1       6.186  -3.832  25.520  0.00  0.00    +0.149 HD
ATOM     14  O   UNL     1       7.564  -5.679  27.645  0.00  0.00    -0.273 OA
BRANCH  12  15
ATOM     15  C   UNL     1       8.223  -3.405  26.039  0.00  0.00    +0.113 C 
BRANCH  15  16
ATOM     16  C   UNL     1       8.211  -1.899  26.226  0.00  0.00    +0.114 C 
BRANCH  16  17
ATOM     17  C   UNL     1       9.307  -1.246  25.421  0.00  0.00    +0.215 C 
ATOM     18  N   UNL     1       9.643  -2.046  24.365  0.00  0.00    -0.314 N 
ATOM     19  H   UNL     1       8.976  -2.795  24.186  0.00  0.00    +0.149 HD
ATOM     20  O   UNL     1       9.828  -0.163  25.653  0.00  0.00    -0.276 OA
BRANCH  18  21
ATOM     21  C   UNL     1      10.067  -1.401  23.167  0.00  0.00    +0.123 C 
BRANCH  21  22
ATOM     22  C   UNL     1       9.067  -1.799  22.124  0.00  0.00    +0.123 C 
BRANCH  22  23
ATOM     23  N   UNL     1       8.045  -2.833  22.392  0.00  0.00    -0.314 N 
ATOM     24  H   UNL     1       8.106  -3.723  21.892  0.00  0.00    +0.149 HD
ATOM     25  C   UNL     1       6.724  -2.456  22.575  0.00  0.00    +0.214 C 
ATOM     26  O   UNL     1       6.514  -1.397  23.166  0.00  0.00    -0.276 OA
BRANCH  25  27
ATOM     27  C   UNL     1       5.574  -3.353  22.169  0.00  0.00    +0.107 C 
BRANCH  27  28
ATOM     28  C   UNL     1       6.123  -4.549  21.429  0.00  0.00    +0.129 C 
BRANCH  28  29
ATOM     29  C   UNL     1       5.473  -5.687  22.080  0.00  0.00    +0.305 C 
ATOM     30  O   UNL     1       4.308  -5.629  22.460  0.00  0.00    -0.251 OA
BRANCH  29  31
ATOM     31  O   UNL     1       6.236  -6.774  21.834  0.00  0.00    -0.481 OA
ATOM     32  H   UNL     1       7.147  -6.607  22.189  0.00  0.00    +0.295 HD
ENDBRANCH  29  31
ENDBRANCH  28  29
ENDBRANCH  27  28
ENDBRANCH  25  27
ENDBRANCH  22  23
ENDBRANCH  21  22
ENDBRANCH  18  21
ENDBRANCH  16  17
ENDBRANCH  15  16
ENDBRANCH  12  15
ENDBRANCH  10  11
BRANCH  10  33
ATOM     33  O   UNL     1       4.917  -5.666  25.275  0.00  0.00    -0.382 OA
ATOM     34  H   UNL     1       4.245  -6.298  24.977  0.00  0.00    +0.210 HD
ENDBRANCH  10  33
ENDBRANCH   8  10
ENDBRANCH   6   8
ENDBRANCH   5   6
ENDBRANCH   1   5
BRANCH   1  35
ATOM     35  O   UNL     1       4.992  -0.822  27.128  0.00  0.00    -0.186 OA
BRANCH  35  36
ATOM     36  P   UNL     1       5.152   0.638  26.408  0.00  0.00    +0.483 P 
ATOM     37  O   UNL     1       4.207   1.701  26.863  0.00  0.00    -0.227 OA
BRANCH  36  38
ATOM     38  O   UNL     1       4.921   0.232  24.875  0.00  0.00    -0.302 OA
ATOM     39  H   UNL     1       5.580  -0.436  24.589  0.00  0.00    +0.222 HD
ENDBRANCH  36  38
BRANCH  36  40
ATOM     40  O   UNL     1       6.713   1.200  26.268  0.00  0.00    -0.284 OA
BRANCH  40  41
ATOM     41  C   UNL     1       7.251   2.496  26.676  0.00  0.00    +0.206 C 
BRANCH  41  42
ATOM     42  C   UNL     1       7.616   3.539  25.616  0.00  0.00    +0.179 C 
ATOM     43  C   UNL     1       8.032   2.843  24.356  0.00  0.00    +0.194 C 
ATOM     44  C   UNL     1       6.827   2.949  23.427  0.00  0.00    +0.196 C 
ATOM     45  C   UNL     1       5.732   3.650  24.231  0.00  0.00    +0.253 C 
ATOM     46  O   UNL     1       6.438   4.349  25.281  0.00  0.00    -0.346 OA
BRANCH  45  47
ATOM     47  N   UNL     1       4.915   4.543  23.416  0.00  0.00    -0.286 N 
ATOM     48  C   UNL     1       3.667   4.213  22.924  0.00  0.00    +0.167 A 
ATOM     49  N   UNL     1       3.023   3.041  23.064  0.00  0.00    -0.216 NA
ATOM     50  C   UNL     1       1.817   3.087  22.453  0.00  0.00    +0.225 A 
ATOM     51  N   UNL     1       1.260   4.110  21.768  0.00  0.00    -0.219 NA
ATOM     52  C   UNL     1       1.951   5.269  21.664  0.00  0.00    +0.147 A 
ATOM     53  N   UNL     1       1.356   6.320  20.981  0.00  0.00    -0.341 N 
ATOM     54  H   UNL     1       1.992   7.041  20.666  0.00  0.00    +0.144 HD
ATOM     55  H   UNL     1       0.615   6.014  20.361  0.00  0.00    +0.144 HD
ATOM     56  C   UNL     1       3.223   5.339  22.257  0.00  0.00    +0.147 A 
ATOM     57  N   UNL     1       4.182   6.338  22.316  0.00  0.00    -0.231 NA
ATOM     58  C   UNL     1       5.168   5.829  23.028  0.00  0.00    +0.203 A 
ENDBRANCH  45  47
BRANCH  44  59
ATOM     59  O   UNL     1       6.442   1.644  23.013  0.00  0.00    -0.385 OA
ATOM     60  H   UNL     1       5.880   1.740  22.216  0.00  0.00    +0.210 HD
ENDBRANCH  44  59
BRANCH  43  61
ATOM     61  O   UNL     1       9.147   3.544  23.831  0.00  0.00    -0.278 OA
BRANCH  61  62
ATOM     62  P   UNL     1      10.229   2.663  23.053  0.00  0.00    +0.473 P 
ATOM     63  O   UNL     1       9.729   1.868  21.900  0.00  0.00    -0.228 OA
BRANCH  62  64
ATOM     64  O   UNL     1      10.930   1.848  24.223  0.00  0.00    -0.303 OA
ATOM     65  H   UNL     1      11.207   2.433  24.945  0.00  0.00    +0.222 HD
ENDBRANCH  62  64
BRANCH  62  66
ATOM     66  O   UNL     1      11.338   3.737  22.655  0.00  0.00    -0.303 OA
ATOM     67  H   UNL     1      11.288   3.935  21.702  0.00  0.00    +0.222 HD
ENDBRANCH  62  66
ENDBRANCH  61  62
ENDBRANCH  43  61
ENDBRANCH  41  42
ENDBRANCH  40  41
ENDBRANCH  36  40
ENDBRANCH  35  36
ENDBRANCH   1  35
TORSDOF 29
ENDMDL
MODEL 5
REMARK VINA RESULT:      -6.2      3.983      9.900
REMARK  Name = 
REMARK  31 active torsions:
REMARK  status: ('A' for Active; 'I' for Inactive)
REMARK    1  A    between atoms: C_1  and  C_2
REMARK    2  A    between atoms: C_2  and  C_3
REMARK    3  A    between atoms: C_2  and  C_4
REMARK    4  A    between atoms: C_2  and  C_40
REMARK    5  A    between atoms: C_4  and  O_5
REMARK    6  A    between atoms: O_5  and  P_6
REMARK    7  A    between atoms: P_6  and  O_7
REMARK    8  A    between atoms: P_6  and  O_9
REMARK    9  A    between atoms: O_9  and  P_10
REMARK   10  A    between atoms: P_10  and  O_11
REMARK   11  A    between atoms: P_10  and  O_13
REMARK   12  A    between atoms: O_13  and  C_14
REMARK   13  A    between atoms: C_14  and  C_15
REMARK   14  A    between atoms: C_18  and  N_30
REMARK   15  A    between atoms: C_20  and  O_22
REMARK   16  A    between atoms: C_23  and  O_25
REMARK   17  A    between atoms: O_25  and  P_26
REMARK   18  A    between atoms: P_26  and  O_27
REMARK   19  A    between atoms: P_26  and  O_28
REMARK   20  A    between atoms: C_40  and  O_42
REMARK   21  A    between atoms: C_40  and  C_43
REMARK   22  A    between atoms: N_45  and  C_46
REMARK   23  A    between atoms: C_46  and  C_47
REMARK   24  A    between atoms: C_47  and  C_48
REMARK   25  A    between atoms: N_50  and  C_51
REMARK   26  A    between atoms: C_51  and  C_52
REMARK   27  A    between atoms: C_52  and  N_53
REMARK   28  A    between atoms: C_54  and  C_56
REMARK   29  A    between atoms: C_56  and  C_57
REMARK   30  A    between atoms: C_57  and  C_58
REMARK   31  A    between atoms: C_58  and  O_59
REMARK                            x       y       z     vdW  Elec       q    Type
REMARK                         _______ _______ _______ _____ _____    ______ ____
ROOT
ATOM      1  P   UNL     1       9.168   1.291  22.315  0.00  0.00    +0.483 P 
ATOM      2  O   UNL     1       7.923   1.236  23.161  0.00  0.00    -0.227 OA
ENDROOT
BRANCH   1   3
ATOM      3  O   UNL     1       8.707   1.260  20.771  0.00  0.00    -0.302 OA
ATOM      4  H   UNL     1       7.740   1.394  20.706  0.00  0.00    +0.222 HD
ENDBRANCH   1   3
BRANCH   1   5
ATOM      5  O   UNL     1       9.923   2.789  22.439  0.00  0.00    -0.286 OA
BRANCH   5   6
ATOM      6  C   UNL     1      10.158   3.526  23.690  0.00  0.00    +0.181 C 
BRANCH   6   8
ATOM      7  C   UNL     1      10.772   5.969  24.126  0.00  0.00    +0.016 C 
ATOM      8  C   UNL     1       9.489   5.096  24.010  0.00  0.00    +0.024 C 
ATOM      9  C   UNL     1       8.674   6.130  23.100  0.00  0.00    +0.016 C 
BRANCH   8  10
ATOM     10  C   UNL     1       8.666   4.965  25.378  0.00  0.00    +0.208 C 
BRANCH  10  11
ATOM     11  C   UNL     1       7.103   4.826  25.193  0.00  0.00    +0.242 C 
ATOM     12  N   UNL     1       6.652   3.683  24.564  0.00  0.00    -0.313 N 
ATOM     13  H   UNL     1       7.353   2.984  24.356  0.00  0.00    +0.149 HD
ATOM     14  O   UNL     1       6.322   5.711  25.506  0.00  0.00    -0.273 OA
BRANCH  12  15
ATOM     15  C   UNL     1       5.286   3.471  24.058  0.00  0.00    +0.113 C 
BRANCH  15  16
ATOM     16  C   UNL     1       4.928   4.039  22.697  0.00  0.00    +0.114 C 
BRANCH  16  17
ATOM     17  C   UNL     1       4.013   5.229  22.832  0.00  0.00    +0.215 C 
ATOM     18  N   UNL     1       4.003   5.937  21.663  0.00  0.00    -0.314 N 
ATOM     19  H   UNL     1       4.414   5.439  20.875  0.00  0.00    +0.149 HD
ATOM     20  O   UNL     1       3.362   5.534  23.822  0.00  0.00    -0.276 OA
BRANCH  18  21
ATOM     21  C   UNL     1       2.790   6.598  21.310  0.00  0.00    +0.123 C 
BRANCH  21  22
ATOM     22  C   UNL     1       2.042   5.628  20.448  0.00  0.00    +0.123 C 
BRANCH  22  23
ATOM     23  N   UNL     1       2.277   5.553  18.990  0.00  0.00    -0.314 N 
ATOM     24  H   UNL     1       2.262   6.419  18.447  0.00  0.00    +0.149 HD
ATOM     25  C   UNL     1       1.738   4.504  18.264  0.00  0.00    +0.214 C 
ATOM     26  O   UNL     1       1.697   3.400  18.809  0.00  0.00    -0.276 OA
BRANCH  25  27
ATOM     27  C   UNL     1       1.314   4.665  16.819  0.00  0.00    +0.107 C 
BRANCH  27  28
ATOM     28  C   UNL     1       2.088   5.808  16.208  0.00  0.00    +0.129 C 
BRANCH  28  29
ATOM     29  C   UNL     1       2.373   5.345  14.850  0.00  0.00    +0.305 C 
ATOM     30  O   UNL     1       2.133   6.041  13.870  0.00  0.00    -0.251 OA
BRANCH  29  31
ATOM     31  O   UNL     1       3.204   4.285  14.959  0.00  0.00    -0.481 OA
ATOM     32  H   UNL     1       3.645   4.137  14.083  0.00  0.00    +0.295 HD
ENDBRANCH  29  31
ENDBRANCH  28  29
ENDBRANCH  27  28
ENDBRANCH  25  27
ENDBRANCH  22  23
ENDBRANCH  21  22
ENDBRANCH  18  21
ENDBRANCH  16  17
ENDBRANCH  15  16
ENDBRANCH  12  15
ENDBRANCH  10  11
BRANCH  10  33
ATOM     33  O   UNL     1       8.902   6.021  26.322  0.00  0.00    -0.382 OA
ATOM     34  H   UNL     1       8.371   6.793  26.072  0.00  0.00    +0.210 HD
ENDBRANCH  10  33
ENDBRANCH   8  10
ENDBRANCH   6   8
ENDBRANCH   5   6
ENDBRANCH   1   5
BRANCH   1  35
ATOM     35  O   UNL     1      10.050  -0.079  22.538  0.00  0.00    -0.186 OA
BRANCH  35  36
ATOM     36  P   UNL     1       9.639  -1.474  23.287  0.00  0.00    +0.483 P 
ATOM     37  O   UNL     1      10.543  -2.638  23.046  0.00  0.00    -0.227 OA
BRANCH  36  38
ATOM     38  O   UNL     1       8.173  -1.706  22.683  0.00  0.00    -0.302 OA
ATOM     39  H   UNL     1       7.777  -0.855  22.394  0.00  0.00    +0.222 HD
ENDBRANCH  36  38
BRANCH  36  40
ATOM     40  O   UNL     1       9.212  -1.327  24.889  0.00  0.00    -0.284 OA
BRANCH  40  41
ATOM     41  C   UNL     1       8.652  -2.346  25.776  0.00  0.00    +0.206 C 
BRANCH  41  42
ATOM     42  C   UNL     1       7.347  -2.069  26.528  0.00  0.00    +0.179 C 
ATOM     43  C   UNL     1       6.680  -0.864  25.939  0.00  0.00    +0.194 C 
ATOM     44  C   UNL     1       5.558  -1.416  25.067  0.00  0.00    +0.196 C 
ATOM     45  C   UNL     1       5.677  -2.938  25.138  0.00  0.00    +0.253 C 
ATOM     46  O   UNL     1       6.419  -3.192  26.351  0.00  0.00    -0.346 OA
BRANCH  45  47
ATOM     47  N   UNL     1       4.379  -3.608  25.124  0.00  0.00    -0.286 N 
ATOM     48  C   UNL     1       4.210  -4.956  24.874  0.00  0.00    +0.167 A 
ATOM     49  N   UNL     1       5.165  -5.850  24.565  0.00  0.00    -0.216 NA
ATOM     50  C   UNL     1       4.625  -7.079  24.395  0.00  0.00    +0.225 A 
ATOM     51  N   UNL     1       3.328  -7.449  24.486  0.00  0.00    -0.219 NA
ATOM     52  C   UNL     1       2.410  -6.507  24.806  0.00  0.00    +0.147 A 
ATOM     53  N   UNL     1       1.087  -6.905  24.924  0.00  0.00    -0.341 N 
ATOM     54  H   UNL     1       0.407  -6.157  24.864  0.00  0.00    +0.144 HD
ATOM     55  H   UNL     1       0.897  -7.779  24.450  0.00  0.00    +0.144 HD
ATOM     56  C   UNL     1       2.854  -5.188  25.004  0.00  0.00    +0.147 A 
ATOM     57  N   UNL     1       2.194  -4.007  25.309  0.00  0.00    -0.231 NA
ATOM     58  C   UNL     1       3.141  -3.093  25.387  0.00  0.00    +0.203 A 
ENDBRANCH  45  47
BRANCH  44  59
ATOM     59  O   UNL     1       5.713  -0.922  23.741  0.00  0.00    -0.385 OA
ATOM     60  H   UNL     1       6.468  -0.298  23.746  0.00  0.00    +0.210 HD
ENDBRANCH  44  59
BRANCH  43  61
ATOM     61  O   UNL     1       6.163  -0.096  27.014  0.00  0.00    -0.278 OA
BRANCH  61  62
ATOM     62  P   UNL     1       6.920   1.275  27.327  0.00  0.00    +0.473 P 
ATOM     63  O   UNL     1       6.063   2.472  27.533  0.00  0.00    -0.228 OA
BRANCH  62  64
ATOM     64  O   UNL     1       7.990   1.364  26.155  0.00  0.00    -0.303 OA
ATOM     65  H   UNL     1       7.578   1.223  25.288  0.00  0.00    +0.222 HD
ENDBRANCH  62  64
BRANCH  62  66
ATOM     66  O   UNL     1       7.813   0.903  28.595  0.00  0.00    -0.303 OA
ATOM     67  H   UNL     1       7.429   1.290  29.403  0.00  0.00    +0.222 HD
ENDBRANCH  62  66
ENDBRANCH  61  62
ENDBRANCH  43  61
ENDBRANCH  41  42
ENDBRANCH  40  41
ENDBRANCH  36  40
ENDBRANCH  35  36
ENDBRANCH   1  35
TORSDOF 29
ENDMDL
MODEL 6
REMARK VINA RESULT:      -6.1      4.197     10.357
REMARK  Name = 
REMARK  31 active torsions:
REMARK  status: ('A' for Active; 'I' for Inactive)
REMARK    1  A    between atoms: C_1  and  C_2
REMARK    2  A    between atoms: C_2  and  C_3
REMARK    3  A    between atoms: C_2  and  C_4
REMARK    4  A    between atoms: C_2  and  C_40
REMARK    5  A    between atoms: C_4  and  O_5
REMARK    6  A    between atoms: O_5  and  P_6
REMARK    7  A    between atoms: P_6  and  O_7
REMARK    8  A    between atoms: P_6  and  O_9
REMARK    9  A    between atoms: O_9  and  P_10
REMARK   10  A    between atoms: P_10  and  O_11
REMARK   11  A    between atoms: P_10  and  O_13
REMARK   12  A    between atoms: O_13  and  C_14
REMARK   13  A    between atoms: C_14  and  C_15
REMARK   14  A    between atoms: C_18  and  N_30
REMARK   15  A    between atoms: C_20  and  O_22
REMARK   16  A    between atoms: C_23  and  O_25
REMARK   17  A    between atoms: O_25  and  P_26
REMARK   18  A    between atoms: P_26  and  O_27
REMARK   19  A    between atoms: P_26  and  O_28
REMARK   20  A    between atoms: C_40  and  O_42
REMARK   21  A    between atoms: C_40  and  C_43
REMARK   22  A    between atoms: N_45  and  C_46
REMARK   23  A    between atoms: C_46  and  C_47
REMARK   24  A    between atoms: C_47  and  C_48
REMARK   25  A    between atoms: N_50  and  C_51
REMARK   26  A    between atoms: C_51  and  C_52
REMARK   27  A    between atoms: C_52  and  N_53
REMARK   28  A    between atoms: C_54  and  C_56
REMARK   29  A    between atoms: C_56  and  C_57
REMARK   30  A    between atoms: C_57  and  C_58
REMARK   31  A    between atoms: C_58  and  O_59
REMARK                            x       y       z     vdW  Elec       q    Type
REMARK                         _______ _______ _______ _____ _____    ______ ____
ROOT
ATOM      1  P   UNL     1       8.619   1.838  22.589  0.00  0.00    +0.483 P 
ATOM      2  O   UNL     1       7.321   2.466  22.157  0.00  0.00    -0.227 OA
ENDROOT
BRANCH   1   3
ATOM      3  O   UNL     1       9.738   2.238  21.499  0.00  0.00    -0.302 OA
ATOM      4  H   UNL     1       9.531   1.823  20.637  0.00  0.00    +0.222 HD
ENDBRANCH   1   3
BRANCH   1   5
ATOM      5  O   UNL     1       9.208   2.556  23.991  0.00  0.00    -0.286 OA
BRANCH   5   6
ATOM      6  C   UNL     1       8.664   3.768  24.622  0.00  0.00    +0.181 C 
BRANCH   6   8
ATOM      7  C   UNL     1       9.258   6.072  25.559  0.00  0.00    +0.016 C 
ATOM      8  C   UNL     1       9.147   5.374  24.171  0.00  0.00    +0.024 C 
ATOM      9  C   UNL     1      10.512   5.968  23.585  0.00  0.00    +0.016 C 
BRANCH   8  10
ATOM     10  C   UNL     1       7.976   5.954  23.245  0.00  0.00    +0.208 C 
BRANCH  10  11
ATOM     11  C   UNL     1       6.532   5.866  23.881  0.00  0.00    +0.242 C 
ATOM     12  N   UNL     1       5.719   4.844  23.434  0.00  0.00    -0.313 N 
ATOM     13  H   UNL     1       6.146   4.179  22.802  0.00  0.00    +0.149 HD
ATOM     14  O   UNL     1       6.107   6.698  24.667  0.00  0.00    -0.273 OA
BRANCH  12  15
ATOM     15  C   UNL     1       4.273   4.733  23.687  0.00  0.00    +0.113 C 
BRANCH  15  16
ATOM     16  C   UNL     1       3.653   3.348  23.707  0.00  0.00    +0.114 C 
BRANCH  16  17
ATOM     17  C   UNL     1       2.441   3.285  22.812  0.00  0.00    +0.215 C 
ATOM     18  N   UNL     1       2.595   4.152  21.766  0.00  0.00    -0.314 N 
ATOM     19  H   UNL     1       3.546   4.501  21.656  0.00  0.00    +0.149 HD
ATOM     20  O   UNL     1       1.459   2.572  22.971  0.00  0.00    -0.276 OA
BRANCH  18  21
ATOM     21  C   UNL     1       2.007   3.783  20.521  0.00  0.00    +0.123 C 
BRANCH  21  22
ATOM     22  C   UNL     1       1.571   5.069  19.888  0.00  0.00    +0.123 C 
BRANCH  22  23
ATOM     23  N   UNL     1       2.279   5.631  18.718  0.00  0.00    -0.314 N 
ATOM     24  H   UNL     1       2.726   6.546  18.810  0.00  0.00    +0.149 HD
ATOM     25  C   UNL     1       1.745   5.465  17.451  0.00  0.00    +0.214 C 
ATOM     26  O   UNL     1       1.177   4.399  17.211  0.00  0.00    -0.276 OA
BRANCH  25  27
ATOM     27  C   UNL     1       1.941   6.496  16.359  0.00  0.00    +0.107 C 
BRANCH  27  28
ATOM     28  C   UNL     1       1.448   5.925  15.052  0.00  0.00    +0.129 C 
BRANCH  28  29
ATOM     29  C   UNL     1       2.679   5.598  14.332  0.00  0.00    +0.305 C 
ATOM     30  O   UNL     1       3.316   6.455  13.729  0.00  0.00    -0.251 OA
BRANCH  29  31
ATOM     31  O   UNL     1       3.081   4.383  14.765  0.00  0.00    -0.481 OA
ATOM     32  H   UNL     1       2.358   3.989  15.318  0.00  0.00    +0.295 HD
ENDBRANCH  29  31
ENDBRANCH  28  29
ENDBRANCH  27  28
ENDBRANCH  25  27
ENDBRANCH  22  23
ENDBRANCH  21  22
ENDBRANCH  18  21
ENDBRANCH  16  17
ENDBRANCH  15  16
ENDBRANCH  12  15
ENDBRANCH  10  11
BRANCH  10  33
ATOM     33  O   UNL     1       7.911   5.378  21.931  0.00  0.00    -0.382 OA
ATOM     34  H   UNL     1       8.802   5.114  21.657  0.00  0.00    +0.210 HD
ENDBRANCH  10  33
ENDBRANCH   8  10
ENDBRANCH   6   8
ENDBRANCH   5   6
ENDBRANCH   1   5
BRANCH   1  35
ATOM     35  O   UNL     1       8.495   0.201  22.510  0.00  0.00    -0.186 OA
BRANCH  35  36
ATOM     36  P   UNL     1       9.646  -0.944  22.707  0.00  0.00    +0.483 P 
ATOM     37  O   UNL     1      10.842  -0.542  23.506  0.00  0.00    -0.227 OA
BRANCH  36  38
ATOM     38  O   UNL     1      10.011  -1.254  21.177  0.00  0.00    -0.302 OA
ATOM     39  H   UNL     1      10.788  -0.728  20.892  0.00  0.00    +0.222 HD
ENDBRANCH  36  38
BRANCH  36  40
ATOM     40  O   UNL     1       9.087  -2.456  23.125  0.00  0.00    -0.284 OA
BRANCH  40  41
ATOM     41  C   UNL     1       9.475  -3.284  24.265  0.00  0.00    +0.206 C 
BRANCH  41  42
ATOM     42  C   UNL     1       8.652  -3.241  25.555  0.00  0.00    +0.179 C 
ATOM     43  C   UNL     1       7.554  -2.232  25.411  0.00  0.00    +0.194 C 
ATOM     44  C   UNL     1       6.294  -3.049  25.143  0.00  0.00    +0.196 C 
ATOM     45  C   UNL     1       6.744  -4.508  25.073  0.00  0.00    +0.253 C 
ATOM     46  O   UNL     1       8.003  -4.539  25.780  0.00  0.00    -0.346 OA
BRANCH  45  47
ATOM     47  N   UNL     1       5.762  -5.430  25.638  0.00  0.00    -0.286 N 
ATOM     48  C   UNL     1       4.688  -5.939  24.934  0.00  0.00    +0.167 A 
ATOM     49  N   UNL     1       4.340  -5.656  23.667  0.00  0.00    -0.216 NA
ATOM     50  C   UNL     1       3.233  -6.349  23.314  0.00  0.00    +0.225 A 
ATOM     51  N   UNL     1       2.507  -7.212  24.059  0.00  0.00    -0.219 NA
ATOM     52  C   UNL     1       2.908  -7.465  25.327  0.00  0.00    +0.147 A 
ATOM     53  N   UNL     1       2.170  -8.373  26.071  0.00  0.00    -0.341 N 
ATOM     54  H   UNL     1       2.303  -8.315  27.073  0.00  0.00    +0.144 HD
ATOM     55  H   UNL     1       1.235  -8.508  25.708  0.00  0.00    +0.144 HD
ATOM     56  C   UNL     1       4.047  -6.796  25.808  0.00  0.00    +0.147 A 
ATOM     57  N   UNL     1       4.697  -6.804  27.033  0.00  0.00    -0.231 NA
ATOM     58  C   UNL     1       5.723  -5.989  26.885  0.00  0.00    +0.203 A 
ENDBRANCH  45  47
BRANCH  44  59
ATOM     59  O   UNL     1       5.703  -2.606  23.927  0.00  0.00    -0.385 OA
ATOM     60  H   UNL     1       5.227  -3.367  23.536  0.00  0.00    +0.210 HD
ENDBRANCH  44  59
BRANCH  43  61
ATOM     61  O   UNL     1       7.458  -1.530  26.640  0.00  0.00    -0.278 OA
BRANCH  61  62
ATOM     62  P   UNL     1       7.626   0.056  26.559  0.00  0.00    +0.473 P 
ATOM     63  O   UNL     1       6.557   0.799  25.840  0.00  0.00    -0.228 OA
BRANCH  62  64
ATOM     64  O   UNL     1       9.105   0.228  26.002  0.00  0.00    -0.303 OA
ATOM     65  H   UNL     1       9.553   0.982  26.416  0.00  0.00    +0.222 HD
ENDBRANCH  62  64
BRANCH  62  66
ATOM     66  O   UNL     1       7.773   0.473  28.091  0.00  0.00    -0.303 OA
ATOM     67  H   UNL     1       7.380   1.352  28.240  0.00  0.00    +0.222 HD
ENDBRANCH  62  66
ENDBRANCH  61  62
ENDBRANCH  43  61
ENDBRANCH  41  42
ENDBRANCH  40  41
ENDBRANCH  36  40
ENDBRANCH  35  36
ENDBRANCH   1  35
TORSDOF 29
ENDMDL
MODEL 7
REMARK VINA RESULT:      -6.1      2.644      5.575
REMARK  Name = 
REMARK  31 active torsions:
REMARK  status: ('A' for Active; 'I' for Inactive)
REMARK    1  A    between atoms: C_1  and  C_2
REMARK    2  A    between atoms: C_2  and  C_3
REMARK    3  A    between atoms: C_2  and  C_4
REMARK    4  A    between atoms: C_2  and  C_40
REMARK    5  A    between atoms: C_4  and  O_5
REMARK    6  A    between atoms: O_5  and  P_6
REMARK    7  A    between atoms: P_6  and  O_7
REMARK    8  A    between atoms: P_6  and  O_9
REMARK    9  A    between atoms: O_9  and  P_10
REMARK   10  A    between atoms: P_10  and  O_11
REMARK   11  A    between atoms: P_10  and  O_13
REMARK   12  A    between atoms: O_13  and  C_14
REMARK   13  A    between atoms: C_14  and  C_15
REMARK   14  A    between atoms: C_18  and  N_30
REMARK   15  A    between atoms: C_20  and  O_22
REMARK   16  A    between atoms: C_23  and  O_25
REMARK   17  A    between atoms: O_25  and  P_26
REMARK   18  A    between atoms: P_26  and  O_27
REMARK   19  A    between atoms: P_26  and  O_28
REMARK   20  A    between atoms: C_40  and  O_42
REMARK   21  A    between atoms: C_40  and  C_43
REMARK   22  A    between atoms: N_45  and  C_46
REMARK   23  A    between atoms: C_46  and  C_47
REMARK   24  A    between atoms: C_47  and  C_48
REMARK   25  A    between atoms: N_50  and  C_51
REMARK   26  A    between atoms: C_51  and  C_52
REMARK   27  A    between atoms: C_52  and  N_53
REMARK   28  A    between atoms: C_54  and  C_56
REMARK   29  A    between atoms: C_56  and  C_57
REMARK   30  A    between atoms: C_57  and  C_58
REMARK   31  A    between atoms: C_58  and  O_59
REMARK                            x       y       z     vdW  Elec       q    Type
REMARK                         _______ _______ _______ _____ _____    ______ ____
ROOT
ATOM      1  P   UNL     1       4.275  -1.430  26.717  0.00  0.00    +0.483 P 
ATOM      2  O   UNL     1       4.746  -1.689  25.311  0.00  0.00    -0.227 OA
ENDROOT
BRANCH   1   3
ATOM      3  O   UNL     1       2.760  -0.885  26.630  0.00  0.00    -0.302 OA
ATOM      4  H   UNL     1       2.227  -1.469  26.054  0.00  0.00    +0.222 HD
ENDBRANCH   1   3
BRANCH   1   5
ATOM      5  O   UNL     1       4.094  -2.866  27.574  0.00  0.00    -0.286 OA
BRANCH   5   6
ATOM      6  C   UNL     1       4.777  -4.133  27.270  0.00  0.00    +0.181 C 
BRANCH   6   8
ATOM      7  C   UNL     1       5.030  -6.677  27.238  0.00  0.00    +0.016 C 
ATOM      8  C   UNL     1       3.932  -5.615  26.941  0.00  0.00    +0.024 C 
ATOM      9  C   UNL     1       2.757  -6.382  27.708  0.00  0.00    +0.016 C 
BRANCH   8  10
ATOM     10  C   UNL     1       3.491  -5.550  25.402  0.00  0.00    +0.208 C 
BRANCH  10  11
ATOM     11  C   UNL     1       4.385  -6.413  24.427  0.00  0.00    +0.242 C 
ATOM     12  N   UNL     1       5.257  -5.723  23.610  0.00  0.00    -0.313 N 
ATOM     13  H   UNL     1       5.320  -4.725  23.769  0.00  0.00    +0.149 HD
ATOM     14  O   UNL     1       4.266  -7.624  24.323  0.00  0.00    -0.273 OA
BRANCH  12  15
ATOM     15  C   UNL     1       5.980  -6.291  22.461  0.00  0.00    +0.113 C 
BRANCH  15  16
ATOM     16  C   UNL     1       6.925  -5.388  21.689  0.00  0.00    +0.114 C 
BRANCH  16  17
ATOM     17  C   UNL     1       6.609  -3.935  21.939  0.00  0.00    +0.215 C 
ATOM     18  N   UNL     1       7.716  -3.301  22.430  0.00  0.00    -0.314 N 
ATOM     19  H   UNL     1       8.576  -3.837  22.333  0.00  0.00    +0.149 HD
ATOM     20  O   UNL     1       5.537  -3.381  21.735  0.00  0.00    -0.276 OA
BRANCH  18  21
ATOM     21  C   UNL     1       7.891  -1.930  22.081  0.00  0.00    +0.123 C 
BRANCH  21  22
ATOM     22  C   UNL     1       9.109  -1.479  22.829  0.00  0.00    +0.123 C 
BRANCH  22  23
ATOM     23  N   UNL     1       9.505  -2.110  24.106  0.00  0.00    -0.314 N 
ATOM     24  H   UNL     1       9.914  -3.047  24.083  0.00  0.00    +0.149 HD
ATOM     25  C   UNL     1       8.706  -1.945  25.226  0.00  0.00    +0.214 C 
ATOM     26  O   UNL     1       8.153  -0.855  25.371  0.00  0.00    -0.276 OA
BRANCH  25  27
ATOM     27  C   UNL     1       8.598  -3.012  26.295  0.00  0.00    +0.107 C 
BRANCH  27  28
ATOM     28  C   UNL     1       7.587  -4.044  25.855  0.00  0.00    +0.129 C 
BRANCH  28  29
ATOM     29  C   UNL     1       8.408  -5.203  25.504  0.00  0.00    +0.305 C 
ATOM     30  O   UNL     1       9.120  -5.206  24.505  0.00  0.00    -0.251 OA
BRANCH  29  31
ATOM     31  O   UNL     1       8.474  -5.989  26.600  0.00  0.00    -0.481 OA
ATOM     32  H   UNL     1       7.593  -5.972  27.055  0.00  0.00    +0.295 HD
ENDBRANCH  29  31
ENDBRANCH  28  29
ENDBRANCH  27  28
ENDBRANCH  25  27
ENDBRANCH  22  23
ENDBRANCH  21  22
ENDBRANCH  18  21
ENDBRANCH  16  17
ENDBRANCH  15  16
ENDBRANCH  12  15
ENDBRANCH  10  11
BRANCH  10  33
ATOM     33  O   UNL     1       3.406  -4.223  24.859  0.00  0.00    -0.382 OA
ATOM     34  H   UNL     1       4.260  -3.780  24.973  0.00  0.00    +0.210 HD
ENDBRANCH  10  33
ENDBRANCH   8  10
ENDBRANCH   6   8
ENDBRANCH   5   6
ENDBRANCH   1   5
BRANCH   1  35
ATOM     35  O   UNL     1       5.147  -0.201  27.376  0.00  0.00    -0.186 OA
BRANCH  35  36
ATOM     36  P   UNL     1       5.225   1.373  26.940  0.00  0.00    +0.483 P 
ATOM     37  O   UNL     1       4.686   2.355  27.928  0.00  0.00    -0.227 OA
BRANCH  36  38
ATOM     38  O   UNL     1       4.371   1.341  25.584  0.00  0.00    -0.302 OA
ATOM     39  H   UNL     1       3.428   1.145  25.771  0.00  0.00    +0.222 HD
ENDBRANCH  36  38
BRANCH  36  40
ATOM     40  O   UNL     1       6.677   1.864  26.291  0.00  0.00    -0.284 OA
BRANCH  40  41
ATOM     41  C   UNL     1       7.282   3.194  26.322  0.00  0.00    +0.206 C 
BRANCH  41  42
ATOM     42  C   UNL     1       7.517   3.958  25.016  0.00  0.00    +0.179 C 
ATOM     43  C   UNL     1       7.647   2.982  23.886  0.00  0.00    +0.194 C 
ATOM     44  C   UNL     1       6.303   3.025  23.167  0.00  0.00    +0.196 C 
ATOM     45  C   UNL     1       5.424   3.983  23.970  0.00  0.00    +0.253 C 
ATOM     46  O   UNL     1       6.355   4.802  24.712  0.00  0.00    -0.346 OA
BRANCH  45  47
ATOM     47  N   UNL     1       4.533   4.775  23.125  0.00  0.00    -0.286 N 
ATOM     48  C   UNL     1       3.329   4.314  22.629  0.00  0.00    +0.167 A 
ATOM     49  N   UNL     1       2.801   3.087  22.790  0.00  0.00    -0.216 NA
ATOM     50  C   UNL     1       1.604   3.002  22.165  0.00  0.00    +0.225 A 
ATOM     51  N   UNL     1       0.958   3.950  21.451  0.00  0.00    -0.219 NA
ATOM     52  C   UNL     1       1.534   5.169  21.327  0.00  0.00    +0.147 A 
ATOM     53  N   UNL     1       0.848   6.141  20.614  0.00  0.00    -0.341 N 
ATOM     54  H   UNL     1       1.415   6.915  20.289  0.00  0.00    +0.144 HD
ATOM     55  H   UNL     1       0.148   5.751  19.995  0.00  0.00    +0.144 HD
ATOM     56  C   UNL     1       2.786   5.375  21.932  0.00  0.00    +0.147 A 
ATOM     57  N   UNL     1       3.642   6.465  21.977  0.00  0.00    -0.231 NA
ATOM     58  C   UNL     1       4.664   6.071  22.711  0.00  0.00    +0.203 A 
ENDBRANCH  45  47
BRANCH  44  59
ATOM     59  O   UNL     1       5.762   1.710  23.115  0.00  0.00    -0.385 OA
ATOM     60  H   UNL     1       5.721   1.445  22.174  0.00  0.00    +0.210 HD
ENDBRANCH  44  59
BRANCH  43  61
ATOM     61  O   UNL     1       8.693   3.442  23.046  0.00  0.00    -0.278 OA
BRANCH  61  62
ATOM     62  P   UNL     1      10.057   2.614  23.103  0.00  0.00    +0.473 P 
ATOM     63  O   UNL     1      10.175   1.608  24.192  0.00  0.00    -0.228 OA
BRANCH  62  64
ATOM     64  O   UNL     1      11.165   3.753  23.068  0.00  0.00    -0.303 OA
ATOM     65  H   UNL     1      11.569   3.880  23.941  0.00  0.00    +0.222 HD
ENDBRANCH  62  64
BRANCH  62  66
ATOM     66  O   UNL     1      10.149   1.985  21.641  0.00  0.00    -0.303 OA
ATOM     67  H   UNL     1      11.024   1.576  21.504  0.00  0.00    +0.222 HD
ENDBRANCH  62  66
ENDBRANCH  61  62
ENDBRANCH  43  61
ENDBRANCH  41  42
ENDBRANCH  40  41
ENDBRANCH  36  40
ENDBRANCH  35  36
ENDBRANCH   1  35
TORSDOF 29
ENDMDL
MODEL 8
REMARK VINA RESULT:      -6.1      3.071      6.959
REMARK  Name = 
REMARK  31 active torsions:
REMARK  status: ('A' for Active; 'I' for Inactive)
REMARK    1  A    between atoms: C_1  and  C_2
REMARK    2  A    between atoms: C_2  and  C_3
REMARK    3  A    between atoms: C_2  and  C_4
REMARK    4  A    between atoms: C_2  and  C_40
REMARK    5  A    between atoms: C_4  and  O_5
REMARK    6  A    between atoms: O_5  and  P_6
REMARK    7  A    between atoms: P_6  and  O_7
REMARK    8  A    between atoms: P_6  and  O_9
REMARK    9  A    between atoms: O_9  and  P_10
REMARK   10  A    between atoms: P_10  and  O_11
REMARK   11  A    between atoms: P_10  and  O_13
REMARK   12  A    between atoms: O_13  and  C_14
REMARK   13  A    between atoms: C_14  and  C_15
REMARK   14  A    between atoms: C_18  and  N_30
REMARK   15  A    between atoms: C_20  and  O_22
REMARK   16  A    between atoms: C_23  and  O_25
REMARK   17  A    between atoms: O_25  and  P_26
REMARK   18  A    between atoms: P_26  and  O_27
REMARK   19  A    between atoms: P_26  and  O_28
REMARK   20  A    between atoms: C_40  and  O_42
REMARK   21  A    between atoms: C_40  and  C_43
REMARK   22  A    between atoms: N_45  and  C_46
REMARK   23  A    between atoms: C_46  and  C_47
REMARK   24  A    between atoms: C_47  and  C_48
REMARK   25  A    between atoms: N_50  and  C_51
REMARK   26  A    between atoms: C_51  and  C_52
REMARK   27  A    between atoms: C_52  and  N_53
REMARK   28  A    between atoms: C_54  and  C_56
REMARK   29  A    between atoms: C_56  and  C_57
REMARK   30  A    between atoms: C_57  and  C_58
REMARK   31  A    between atoms: C_58  and  O_59
REMARK                            x       y       z     vdW  Elec       q    Type
REMARK                         _______ _______ _______ _____ _____    ______ ____
ROOT
ATOM      1  P   UNL     1       4.472   2.390  25.419  0.00  0.00    +0.483 P 
ATOM      2  O   UNL     1       4.933   1.189  24.637  0.00  0.00    -0.227 OA
ENDROOT
BRANCH   1   3
ATOM      3  O   UNL     1       2.860   2.351  25.463  0.00  0.00    -0.302 OA
ATOM      4  H   UNL     1       2.494   2.638  24.603  0.00  0.00    +0.222 HD
ENDBRANCH   1   3
BRANCH   1   5
ATOM      5  O   UNL     1       4.883   2.255  27.044  0.00  0.00    -0.286 OA
BRANCH   5   6
ATOM      6  C   UNL     1       3.970   1.850  28.124  0.00  0.00    +0.181 C 
BRANCH   6   8
ATOM      7  C   UNL     1       3.305   0.046  29.809  0.00  0.00    +0.016 C 
ATOM      8  C   UNL     1       3.315   0.247  28.266  0.00  0.00    +0.024 C 
ATOM      9  C   UNL     1       1.851  -0.349  28.018  0.00  0.00    +0.016 C 
BRANCH   8  10
ATOM     10  C   UNL     1       4.327  -0.723  27.490  0.00  0.00    +0.208 C 
BRANCH  10  11
ATOM     11  C   UNL     1       4.025  -2.264  27.670  0.00  0.00    +0.242 C 
ATOM     12  N   UNL     1       4.282  -2.805  28.913  0.00  0.00    -0.313 N 
ATOM     13  H   UNL     1       4.555  -2.151  29.636  0.00  0.00    +0.149 HD
ATOM     14  O   UNL     1       3.663  -2.976  26.747  0.00  0.00    -0.273 OA
BRANCH  12  15
ATOM     15  C   UNL     1       4.325  -4.243  29.224  0.00  0.00    +0.113 C 
BRANCH  15  16
ATOM     16  C   UNL     1       5.516  -5.048  28.738  0.00  0.00    +0.114 C 
BRANCH  16  17
ATOM     17  C   UNL     1       5.079  -6.378  28.180  0.00  0.00    +0.215 C 
ATOM     18  N   UNL     1       4.029  -6.196  27.324  0.00  0.00    -0.314 N 
ATOM     19  H   UNL     1       3.881  -5.225  27.053  0.00  0.00    +0.149 HD
ATOM     20  O   UNL     1       5.575  -7.468  28.433  0.00  0.00    -0.276 OA
BRANCH  18  21
ATOM     21  C   UNL     1       3.927  -7.088  26.217  0.00  0.00    +0.123 C 
BRANCH  21  22
ATOM     22  C   UNL     1       3.405  -6.260  25.082  0.00  0.00    +0.123 C 
BRANCH  22  23
ATOM     23  N   UNL     1       4.062  -4.995  24.687  0.00  0.00    -0.314 N 
ATOM     24  H   UNL     1       3.523  -4.309  24.154  0.00  0.00    +0.149 HD
ATOM     25  C   UNL     1       5.386  -5.012  24.277  0.00  0.00    +0.214 C 
ATOM     26  O   UNL     1       6.144  -5.799  24.843  0.00  0.00    -0.276 OA
BRANCH  25  27
ATOM     27  C   UNL     1       5.918  -4.030  23.254  0.00  0.00    +0.107 C 
BRANCH  27  28
ATOM     28  C   UNL     1       6.982  -4.713  22.429  0.00  0.00    +0.129 C 
BRANCH  28  29
ATOM     29  C   UNL     1       6.216  -5.529  21.486  0.00  0.00    +0.305 C 
ATOM     30  O   UNL     1       5.899  -5.105  20.380  0.00  0.00    -0.251 OA
BRANCH  29  31
ATOM     31  O   UNL     1       6.283  -6.806  21.922  0.00  0.00    -0.481 OA
ATOM     32  H   UNL     1       5.799  -6.871  22.785  0.00  0.00    +0.295 HD
ENDBRANCH  29  31
ENDBRANCH  28  29
ENDBRANCH  27  28
ENDBRANCH  25  27
ENDBRANCH  22  23
ENDBRANCH  21  22
ENDBRANCH  18  21
ENDBRANCH  16  17
ENDBRANCH  15  16
ENDBRANCH  12  15
ENDBRANCH  10  11
BRANCH  10  33
ATOM     33  O   UNL     1       5.713  -0.511  27.796  0.00  0.00    -0.382 OA
ATOM     34  H   UNL     1       5.901   0.440  27.770  0.00  0.00    +0.210 HD
ENDBRANCH  10  33
ENDBRANCH   8  10
ENDBRANCH   6   8
ENDBRANCH   5   6
ENDBRANCH   1   5
BRANCH   1  35
ATOM     35  O   UNL     1       4.855   3.764  24.600  0.00  0.00    -0.186 OA
BRANCH  35  36
ATOM     36  P   UNL     1       4.822   4.064  22.993  0.00  0.00    +0.483 P 
ATOM     37  O   UNL     1       4.390   5.436  22.590  0.00  0.00    -0.227 OA
BRANCH  36  38
ATOM     38  O   UNL     1       3.793   2.935  22.508  0.00  0.00    -0.302 OA
ATOM     39  H   UNL     1       3.489   3.112  21.592  0.00  0.00    +0.222 HD
ENDBRANCH  36  38
BRANCH  36  40
ATOM     40  O   UNL     1       6.156   3.547  22.141  0.00  0.00    -0.284 OA
BRANCH  40  41
ATOM     41  C   UNL     1       6.690   2.192  22.026  0.00  0.00    +0.206 C 
BRANCH  41  42
ATOM     42  C   UNL     1       8.161   1.921  22.351  0.00  0.00    +0.179 C 
ATOM     43  C   UNL     1       8.444   2.338  23.762  0.00  0.00    +0.194 C 
ATOM     44  C   UNL     1       8.473   1.040  24.563  0.00  0.00    +0.196 C 
ATOM     45  C   UNL     1       8.131  -0.074  23.575  0.00  0.00    +0.253 C 
ATOM     46  O   UNL     1       8.435   0.480  22.276  0.00  0.00    -0.346 OA
BRANCH  45  47
ATOM     47  N   UNL     1       8.863  -1.310  23.841  0.00  0.00    -0.286 N 
ATOM     48  C   UNL     1       8.551  -2.186  24.862  0.00  0.00    +0.167 A 
ATOM     49  N   UNL     1       7.585  -2.044  25.787  0.00  0.00    -0.216 NA
ATOM     50  C   UNL     1       7.573  -3.107  26.625  0.00  0.00    +0.225 A 
ATOM     51  N   UNL     1       8.379  -4.191  26.621  0.00  0.00    -0.219 NA
ATOM     52  C   UNL     1       9.330  -4.284  25.662  0.00  0.00    +0.147 A 
ATOM     53  N   UNL     1      10.133  -5.415  25.653  0.00  0.00    -0.341 N 
ATOM     54  H   UNL     1      11.000  -5.322  25.138  0.00  0.00    +0.144 HD
ATOM     55  H   UNL     1      10.141  -5.897  26.543  0.00  0.00    +0.144 HD
ATOM     56  C   UNL     1       9.443  -3.234  24.735  0.00  0.00    +0.147 A 
ATOM     57  N   UNL     1      10.301  -3.005  23.670  0.00  0.00    -0.231 NA
ATOM     58  C   UNL     1       9.912  -1.855  23.154  0.00  0.00    +0.203 A 
ENDBRANCH  45  47
BRANCH  44  59
ATOM     59  O   UNL     1       7.532   1.128  25.626  0.00  0.00    -0.385 OA
ATOM     60  H   UNL     1       7.440   0.234  26.014  0.00  0.00    +0.210 HD
ENDBRANCH  44  59
BRANCH  43  61
ATOM     61  O   UNL     1       9.711   2.975  23.772  0.00  0.00    -0.278 OA
BRANCH  61  62
ATOM     62  P   UNL     1       9.698   4.564  23.933  0.00  0.00    +0.473 P 
ATOM     63  O   UNL     1      11.015   5.249  23.844  0.00  0.00    -0.228 OA
BRANCH  62  64
ATOM     64  O   UNL     1       8.878   4.777  25.278  0.00  0.00    -0.303 OA
ATOM     65  H   UNL     1       9.422   4.581  26.058  0.00  0.00    +0.222 HD
ENDBRANCH  62  64
BRANCH  62  66
ATOM     66  O   UNL     1       8.662   5.023  22.811  0.00  0.00    -0.303 OA
ATOM     67  H   UNL     1       9.005   4.802  21.925  0.00  0.00    +0.222 HD
ENDBRANCH  62  66
ENDBRANCH  61  62
ENDBRANCH  43  61
ENDBRANCH  41  42
ENDBRANCH  40  41
ENDBRANCH  36  40
ENDBRANCH  35  36
ENDBRANCH   1  35
TORSDOF 29
ENDMDL
MODEL 9
REMARK VINA RESULT:      -6.0      1.763      2.628
REMARK  Name = 
REMARK  31 active torsions:
REMARK  status: ('A' for Active; 'I' for Inactive)
REMARK    1  A    between atoms: C_1  and  C_2
REMARK    2  A    between atoms: C_2  and  C_3
REMARK    3  A    between atoms: C_2  and  C_4
REMARK    4  A    between atoms: C_2  and  C_40
REMARK    5  A    between atoms: C_4  and  O_5
REMARK    6  A    between atoms: O_5  and  P_6
REMARK    7  A    between atoms: P_6  and  O_7
REMARK    8  A    between atoms: P_6  and  O_9
REMARK    9  A    between atoms: O_9  and  P_10
REMARK   10  A    between atoms: P_10  and  O_11
REMARK   11  A    between atoms: P_10  and  O_13
REMARK   12  A    between atoms: O_13  and  C_14
REMARK   13  A    between atoms: C_14  and  C_15
REMARK   14  A    between atoms: C_18  and  N_30
REMARK   15  A    between atoms: C_20  and  O_22
REMARK   16  A    between atoms: C_23  and  O_25
REMARK   17  A    between atoms: O_25  and  P_26
REMARK   18  A    between atoms: P_26  and  O_27
REMARK   19  A    between atoms: P_26  and  O_28
REMARK   20  A    between atoms: C_40  and  O_42
REMARK   21  A    between atoms: C_40  and  C_43
REMARK   22  A    between atoms: N_45  and  C_46
REMARK   23  A    between atoms: C_46  and  C_47
REMARK   24  A    between atoms: C_47  and  C_48
REMARK   25  A    between atoms: N_50  and  C_51
REMARK   26  A    between atoms: C_51  and  C_52
REMARK   27  A    between atoms: C_52  and  N_53
REMARK   28  A    between atoms: C_54  and  C_56
REMARK   29  A    between atoms: C_56  and  C_57
REMARK   30  A    between atoms: C_57  and  C_58
REMARK   31  A    between atoms: C_58  and  O_59
REMARK                            x       y       z     vdW  Elec       q    Type
REMARK                         _______ _______ _______ _____ _____    ______ ____
ROOT
ATOM      1  P   UNL     1       5.528  -5.628  23.508  0.00  0.00    +0.483 P 
ATOM      2  O   UNL     1       6.442  -6.362  22.563  0.00  0.00    -0.227 OA
ENDROOT
BRANCH   1   3
ATOM      3  O   UNL     1       4.152  -5.332  22.722  0.00  0.00    -0.302 OA
ATOM      4  H   UNL     1       4.334  -5.174  21.774  0.00  0.00    +0.222 HD
ENDBRANCH   1   3
BRANCH   1   5
ATOM      5  O   UNL     1       5.021  -6.626  24.764  0.00  0.00    -0.286 OA
BRANCH   5   6
ATOM      6  C   UNL     1       3.624  -6.840  25.173  0.00  0.00    +0.181 C 
BRANCH   6   8
ATOM      7  C   UNL     1       2.528  -4.866  26.373  0.00  0.00    +0.016 C 
ATOM      8  C   UNL     1       2.990  -6.316  26.702  0.00  0.00    +0.024 C 
ATOM      9  C   UNL     1       1.676  -6.718  27.522  0.00  0.00    +0.016 C 
BRANCH   8  10
ATOM     10  C   UNL     1       4.204  -6.391  27.744  0.00  0.00    +0.208 C 
BRANCH  10  11
ATOM     11  C   UNL     1       5.159  -5.132  27.729  0.00  0.00    +0.242 C 
ATOM     12  N   UNL     1       6.328  -5.248  27.005  0.00  0.00    -0.313 N 
ATOM     13  H   UNL     1       6.435  -6.098  26.466  0.00  0.00    +0.149 HD
ATOM     14  O   UNL     1       4.934  -4.128  28.387  0.00  0.00    -0.273 OA
BRANCH  12  15
ATOM     15  C   UNL     1       7.465  -4.316  27.068  0.00  0.00    +0.113 C 
BRANCH  15  16
ATOM     16  C   UNL     1       8.843  -4.840  26.708  0.00  0.00    +0.114 C 
BRANCH  16  17
ATOM     17  C   UNL     1       9.116  -4.678  25.234  0.00  0.00    +0.215 C 
ATOM     18  N   UNL     1       8.880  -3.384  24.861  0.00  0.00    -0.314 N 
ATOM     19  H   UNL     1       8.785  -2.739  25.645  0.00  0.00    +0.149 HD
ATOM     20  O   UNL     1       9.497  -5.552  24.468  0.00  0.00    -0.276 OA
BRANCH  18  21
ATOM     21  C   UNL     1       9.686  -2.849  23.815  0.00  0.00    +0.123 C 
BRANCH  21  22
ATOM     22  C   UNL     1       9.152  -1.471  23.564  0.00  0.00    +0.123 C 
BRANCH  22  23
ATOM     23  N   UNL     1      10.055  -0.336  23.280  0.00  0.00    -0.314 N 
ATOM     24  H   UNL     1      10.400   0.224  24.063  0.00  0.00    +0.149 HD
ATOM     25  C   UNL     1       9.826   0.458  22.167  0.00  0.00    +0.214 C 
ATOM     26  O   UNL     1       9.408  -0.099  21.151  0.00  0.00    -0.276 OA
BRANCH  25  27
ATOM     27  C   UNL     1      10.178   1.930  22.149  0.00  0.00    +0.107 C 
BRANCH  27  28
ATOM     28  C   UNL     1      10.826   2.294  23.463  0.00  0.00    +0.129 C 
BRANCH  28  29
ATOM     29  C   UNL     1      10.917   3.754  23.410  0.00  0.00    +0.305 C 
ATOM     30  O   UNL     1      12.000   4.329  23.399  0.00  0.00    -0.251 OA
BRANCH  29  31
ATOM     31  O   UNL     1       9.703   4.213  23.035  0.00  0.00    -0.481 OA
ATOM     32  H   UNL     1       9.489   3.845  22.139  0.00  0.00    +0.295 HD
ENDBRANCH  29  31
ENDBRANCH  28  29
ENDBRANCH  27  28
ENDBRANCH  25  27
ENDBRANCH  22  23
ENDBRANCH  21  22
ENDBRANCH  18  21
ENDBRANCH  16  17
ENDBRANCH  15  16
ENDBRANCH  12  15
ENDBRANCH  10  11
BRANCH  10  33
ATOM     33  O   UNL     1       5.025  -7.563  27.624  0.00  0.00    -0.382 OA
ATOM     34  H   UNL     1       4.825  -8.165  28.356  0.00  0.00    +0.210 HD
ENDBRANCH  10  33
ENDBRANCH   8  10
ENDBRANCH   6   8
ENDBRANCH   5   6
ENDBRANCH   1   5
BRANCH   1  35
ATOM     35  O   UNL     1       6.162  -4.151  23.856  0.00  0.00    -0.186 OA
BRANCH  35  36
ATOM     36  P   UNL     1       5.403  -2.749  24.220  0.00  0.00    +0.483 P 
ATOM     37  O   UNL     1       3.938  -2.848  24.494  0.00  0.00    -0.227 OA
BRANCH  36  38
ATOM     38  O   UNL     1       5.720  -1.897  22.900  0.00  0.00    -0.302 OA
ATOM     39  H   UNL     1       6.621  -2.096  22.566  0.00  0.00    +0.222 HD
ENDBRANCH  36  38
BRANCH  36  40
ATOM     40  O   UNL     1       6.187  -1.777  25.321  0.00  0.00    -0.284 OA
BRANCH  40  41
ATOM     41  C   UNL     1       5.663  -1.201  26.558  0.00  0.00    +0.206 C 
BRANCH  41  42
ATOM     42  C   UNL     1       5.514   0.317  26.691  0.00  0.00    +0.179 C 
ATOM     43  C   UNL     1       6.801   0.901  27.190  0.00  0.00    +0.194 C 
ATOM     44  C   UNL     1       7.467   1.506  25.959  0.00  0.00    +0.196 C 
ATOM     45  C   UNL     1       6.555   1.176  24.778  0.00  0.00    +0.253 C 
ATOM     46  O   UNL     1       5.264   0.914  25.373  0.00  0.00    -0.346 OA
BRANCH  45  47
ATOM     47  N   UNL     1       6.506   2.245  23.785  0.00  0.00    -0.286 N 
ATOM     48  C   UNL     1       6.235   3.565  24.085  0.00  0.00    +0.167 A 
ATOM     49  N   UNL     1       5.934   4.078  25.292  0.00  0.00    -0.216 NA
ATOM     50  C   UNL     1       5.736   5.414  25.202  0.00  0.00    +0.225 A 
ATOM     51  N   UNL     1       5.797   6.202  24.106  0.00  0.00    -0.219 NA
ATOM     52  C   UNL     1       6.110   5.633  22.919  0.00  0.00    +0.147 A 
ATOM     53  N   UNL     1       6.196   6.457  21.807  0.00  0.00    -0.341 N 
ATOM     54  H   UNL     1       6.131   5.983  20.915  0.00  0.00    +0.144 HD
ATOM     55  H   UNL     1       5.706   7.335  21.932  0.00  0.00    +0.144 HD
ATOM     56  C   UNL     1       6.334   4.245  22.887  0.00  0.00    +0.147 A 
ATOM     57  N   UNL     1       6.640   3.364  21.861  0.00  0.00    -0.231 NA
ATOM     58  C   UNL     1       6.750   2.184  22.441  0.00  0.00    +0.203 A 
ENDBRANCH  45  47
BRANCH  44  59
ATOM     59  O   UNL     1       8.767   0.946  25.811  0.00  0.00    -0.385 OA
ATOM     60  H   UNL     1       8.870   0.255  26.497  0.00  0.00    +0.210 HD
ENDBRANCH  44  59
BRANCH  43  61
ATOM     61  O   UNL     1       6.473   1.902  28.140  0.00  0.00    -0.278 OA
BRANCH  61  62
ATOM     62  P   UNL     1       7.266   1.844  29.525  0.00  0.00    +0.473 P 
ATOM     63  O   UNL     1       7.745   3.142  30.069  0.00  0.00    -0.228 OA
BRANCH  62  64
ATOM     64  O   UNL     1       8.376   0.739  29.251  0.00  0.00    -0.303 OA
ATOM     65  H   UNL     1       9.233   0.999  29.625  0.00  0.00    +0.222 HD
ENDBRANCH  62  64
BRANCH  62  66
ATOM     66  O   UNL     1       6.243   1.087  30.485  0.00  0.00    -0.303 OA
ATOM     67  H   UNL     1       5.461   1.646  30.651  0.00  0.00    +0.222 HD
ENDBRANCH  62  66
ENDBRANCH  61  62
ENDBRANCH  43  61
ENDBRANCH  41  42
ENDBRANCH  40  41
ENDBRANCH  36  40
ENDBRANCH  35  36
ENDBRANCH   1  35
TORSDOF 29
ENDMDL
