MODEL 1
REMARK VINA RESULT:      -7.0      0.000      0.000
REMARK  Name = 
REMARK  10 active torsions:
REMARK  status: ('A' for Active; 'I' for Inactive)
REMARK    1  A    between atoms: C_2  and  C_3
REMARK    2  A    between atoms: C_2  and  N_10
REMARK    3  A    between atoms: C_2  and  C_20
REMARK    4  A    between atoms: C_3  and  C_4
REMARK    5  A    between atoms: N_22  and  C_23
REMARK    6  A    between atoms: C_23  and  C_24
REMARK    7  A    between atoms: C_24  and  N_25
REMARK    8  A    between atoms: N_25  and  C_26
REMARK    9  A    between atoms: C_29  and  O_30
REMARK   10  A    between atoms: O_30  and  C_31
REMARK                            x       y       z     vdW  Elec       q    Type
REMARK                         _______ _______ _______ _____ _____    ______ ____
ROOT
ATOM      1  C   UNL     1       8.758  -1.196  26.038  0.00  0.00    +0.161 C 
ENDROOT
BRANCH   1   2
ATOM      2  N   UNL     1       8.644  -2.656  25.785  0.00  0.00    -0.287 N 
ATOM      3  H   UNL     1       9.522  -3.136  25.971  0.00  0.00    +0.151 HD
ATOM      4  C   UNL     1       8.064  -3.129  24.669  0.00  0.00    +0.289 A 
ATOM      5  O   UNL     1       8.426  -4.408  24.344  0.00  0.00    -0.425 OA
ATOM      6  C   UNL     1       7.671  -4.695  23.246  0.00  0.00    +0.157 A 
ATOM      7  C   UNL     1       6.912  -3.575  22.956  0.00  0.00    +0.111 A 
ATOM      8  C   UNL     1       6.024  -3.613  21.874  0.00  0.00    +0.031 A 
ATOM      9  C   UNL     1       5.939  -4.803  21.137  0.00  0.00    +0.002 A 
ATOM     10  C   UNL     1       6.726  -5.916  21.461  0.00  0.00    +0.004 A 
ATOM     11  C   UNL     1       7.628  -5.886  22.533  0.00  0.00    +0.048 A 
ATOM     12  N   UNL     1       7.193  -2.583  23.855  0.00  0.00    -0.195 NA
ENDBRANCH   1   2
BRANCH   1  13
ATOM     13  C   UNL     1       7.547  -0.782  26.942  0.00  0.00    +0.233 C 
ATOM     14  N   UNL     1       6.350  -1.389  26.614  0.00  0.00    -0.312 N 
ATOM     15  H   UNL     1       6.342  -1.958  25.772  0.00  0.00    +0.149 HD
ATOM     16  O   UNL     1       7.652  -0.000  27.882  0.00  0.00    -0.274 OA
BRANCH  14  17
ATOM     17  C   UNL     1       5.139  -1.243  27.408  0.00  0.00    +0.123 C 
BRANCH  17  18
ATOM     18  C   UNL     1       4.426  -2.587  27.616  0.00  0.00    +0.120 C 
BRANCH  18  19
ATOM     19  N   UNL     1       5.176  -3.715  27.055  0.00  0.00    -0.342 N 
ATOM     20  H   UNL     1       5.438  -4.397  27.767  0.00  0.00    +0.146 HD
BRANCH  19  21
ATOM     21  C   UNL     1       4.593  -4.363  25.947  0.00  0.00    +0.027 A 
ATOM     22  C   UNL     1       5.023  -5.650  25.595  0.00  0.00    +0.026 A 
ATOM     23  C   UNL     1       4.482  -6.329  24.491  0.00  0.00    +0.047 A 
ATOM     24  C   UNL     1       3.519  -5.711  23.697  0.00  0.00    +0.120 A 
ATOM     25  C   UNL     1       3.125  -4.412  24.001  0.00  0.00    +0.047 A 
ATOM     26  C   UNL     1       3.677  -3.737  25.095  0.00  0.00    +0.026 A 
BRANCH  24  27
ATOM     27  O   UNL     1       2.860  -6.280  22.645  0.00  0.00    -0.495 OA
ATOM     28  C   UNL     1       1.441  -6.287  22.724  0.00  0.00    +0.277 C 
ENDBRANCH  24  27
ENDBRANCH  19  21
ENDBRANCH  18  19
ENDBRANCH  17  18
ENDBRANCH  14  17
ENDBRANCH   1  13
BRANCH   1  29
ATOM     29  C   UNL     1       8.806  -0.350  24.742  0.00  0.00    +0.035 C 
BRANCH  29  30
ATOM     30  C   UNL     1      10.174  -0.266  24.013  0.00  0.00    -0.009 C 
ATOM     31  C   UNL     1      10.841   1.109  24.237  0.00  0.00    +0.003 C 
ATOM     32  C   UNL     1      10.207   2.240  23.428  0.00  0.00    +0.000 C 
ATOM     33  C   UNL     1      10.173   1.908  21.940  0.00  0.00    +0.000 C 
ATOM     34  C   UNL     1       9.485   0.573  21.680  0.00  0.00    +0.000 C 
ATOM     35  C   UNL     1      10.106  -0.560  22.501  0.00  0.00    +0.003 C 
ENDBRANCH  29  30
ENDBRANCH   1  29
TORSDOF 9
ENDMDL
MODEL 2
REMARK VINA RESULT:      -6.9      1.529      2.104
REMARK  Name = 
REMARK  10 active torsions:
REMARK  status: ('A' for Active; 'I' for Inactive)
REMARK    1  A    between atoms: C_2  and  C_3
REMARK    2  A    between atoms: C_2  and  N_10
REMARK    3  A    between atoms: C_2  and  C_20
REMARK    4  A    between atoms: C_3  and  C_4
REMARK    5  A    between atoms: N_22  and  C_23
REMARK    6  A    between atoms: C_23  and  C_24
REMARK    7  A    between atoms: C_24  and  N_25
REMARK    8  A    between atoms: N_25  and  C_26
REMARK    9  A    between atoms: C_29  and  O_30
REMARK   10  A    between atoms: O_30  and  C_31
REMARK                            x       y       z     vdW  Elec       q    Type
REMARK                         _______ _______ _______ _____ _____    ______ ____
ROOT
ATOM      1  C   UNL     1       6.745   0.151  24.464  0.00  0.00    +0.161 C 
ENDROOT
BRANCH   1   2
ATOM      2  N   UNL     1       6.425  -0.570  23.205  0.00  0.00    -0.287 N 
ATOM      3  H   UNL     1       5.506  -0.311  22.850  0.00  0.00    +0.151 HD
ATOM      4  C   UNL     1       6.631  -1.893  23.085  0.00  0.00    +0.289 A 
ATOM      5  O   UNL     1       5.893  -2.491  22.101  0.00  0.00    -0.425 OA
ATOM      6  C   UNL     1       6.317  -3.787  22.114  0.00  0.00    +0.157 A 
ATOM      7  C   UNL     1       7.268  -3.906  23.112  0.00  0.00    +0.111 A 
ATOM      8  C   UNL     1       7.886  -5.145  23.323  0.00  0.00    +0.031 A 
ATOM      9  C   UNL     1       7.513  -6.213  22.494  0.00  0.00    +0.002 A 
ATOM     10  C   UNL     1       6.543  -6.054  21.496  0.00  0.00    +0.004 A 
ATOM     11  C   UNL     1       5.909  -4.822  21.283  0.00  0.00    +0.048 A 
ATOM     12  N   UNL     1       7.437  -2.699  23.733  0.00  0.00    -0.195 NA
ENDBRANCH   1   2
BRANCH   1  13
ATOM     13  C   UNL     1       5.667  -0.259  25.525  0.00  0.00    +0.233 C 
ATOM     14  N   UNL     1       6.069  -1.251  26.400  0.00  0.00    -0.312 N 
ATOM     15  H   UNL     1       6.969  -1.684  26.215  0.00  0.00    +0.149 HD
ATOM     16  O   UNL     1       4.562   0.270  25.593  0.00  0.00    -0.274 OA
BRANCH  14  17
ATOM     17  C   UNL     1       5.269  -1.680  27.537  0.00  0.00    +0.123 C 
BRANCH  17  18
ATOM     18  C   UNL     1       4.767  -3.122  27.371  0.00  0.00    +0.120 C 
BRANCH  18  19
ATOM     19  N   UNL     1       5.484  -3.851  26.320  0.00  0.00    -0.342 N 
ATOM     20  H   UNL     1       6.227  -4.440  26.697  0.00  0.00    +0.146 HD
BRANCH  19  21
ATOM     21  C   UNL     1       4.689  -4.582  25.415  0.00  0.00    +0.027 A 
ATOM     22  C   UNL     1       4.927  -5.953  25.240  0.00  0.00    +0.026 A 
ATOM     23  C   UNL     1       4.170  -6.720  24.339  0.00  0.00    +0.047 A 
ATOM     24  C   UNL     1       3.180  -6.115  23.569  0.00  0.00    +0.120 A 
ATOM     25  C   UNL     1       2.972  -4.745  23.692  0.00  0.00    +0.047 A 
ATOM     26  C   UNL     1       3.737  -3.984  24.582  0.00  0.00    +0.026 A 
BRANCH  24  27
ATOM     27  O   UNL     1       2.326  -6.752  22.714  0.00  0.00    -0.495 OA
ATOM     28  C   UNL     1       1.037  -6.170  22.567  0.00  0.00    +0.277 C 
ENDBRANCH  24  27
ENDBRANCH  19  21
ENDBRANCH  18  19
ENDBRANCH  17  18
ENDBRANCH  14  17
ENDBRANCH   1  13
BRANCH   1  29
ATOM     29  C   UNL     1       6.807   1.689  24.293  0.00  0.00    +0.035 C 
BRANCH  29  30
ATOM     30  C   UNL     1       8.220   2.332  24.267  0.00  0.00    -0.009 C 
ATOM     31  C   UNL     1       8.507   2.989  22.899  0.00  0.00    +0.003 C 
ATOM     32  C   UNL     1       8.814   1.988  21.786  0.00  0.00    +0.000 C 
ATOM     33  C   UNL     1       9.959   1.059  22.175  0.00  0.00    +0.000 C 
ATOM     34  C   UNL     1       9.689   0.363  23.504  0.00  0.00    +0.000 C 
ATOM     35  C   UNL     1       9.364   1.361  24.617  0.00  0.00    +0.003 C 
ENDBRANCH  29  30
ENDBRANCH   1  29
TORSDOF 9
ENDMDL
MODEL 3
REMARK VINA RESULT:      -6.9      1.607      2.441
REMARK  Name = 
REMARK  10 active torsions:
REMARK  status: ('A' for Active; 'I' for Inactive)
REMARK    1  A    between atoms: C_2  and  C_3
REMARK    2  A    between atoms: C_2  and  N_10
REMARK    3  A    between atoms: C_2  and  C_20
REMARK    4  A    between atoms: C_3  and  C_4
REMARK    5  A    between atoms: N_22  and  C_23
REMARK    6  A    between atoms: C_23  and  C_24
REMARK    7  A    between atoms: C_24  and  N_25
REMARK    8  A    between atoms: N_25  and  C_26
REMARK    9  A    between atoms: C_29  and  O_30
REMARK   10  A    between atoms: O_30  and  C_31
REMARK                            x       y       z     vdW  Elec       q    Type
REMARK                         _______ _______ _______ _____ _____    ______ ____
ROOT
ATOM      1  C   UNL     1       9.461  -0.325  24.593  0.00  0.00    +0.161 C 
ENDROOT
BRANCH   1   2
ATOM      2  N   UNL     1       8.687  -0.704  23.382  0.00  0.00    -0.287 N 
ATOM      3  H   UNL     1       7.962  -0.020  23.173  0.00  0.00    +0.151 HD
ATOM      4  C   UNL     1       8.229  -1.956  23.208  0.00  0.00    +0.289 A 
ATOM      5  O   UNL     1       7.182  -2.057  22.334  0.00  0.00    -0.425 OA
ATOM      6  C   UNL     1       6.944  -3.398  22.259  0.00  0.00    +0.157 A 
ATOM      7  C   UNL     1       7.843  -4.029  23.101  0.00  0.00    +0.111 A 
ATOM      8  C   UNL     1       7.825  -5.426  23.195  0.00  0.00    +0.031 A 
ATOM      9  C   UNL     1       6.895  -6.124  22.411  0.00  0.00    +0.002 A 
ATOM     10  C   UNL     1       6.000  -5.448  21.572  0.00  0.00    +0.004 A 
ATOM     11  C   UNL     1       5.998  -4.049  21.480  0.00  0.00    +0.048 A 
ATOM     12  N   UNL     1       8.634  -3.096  23.713  0.00  0.00    -0.195 NA
ENDBRANCH   1   2
BRANCH   1  13
ATOM     13  C   UNL     1       8.535  -0.567  25.834  0.00  0.00    +0.233 C 
ATOM     14  N   UNL     1       7.252  -0.072  25.701  0.00  0.00    -0.312 N 
ATOM     15  H   UNL     1       7.060   0.480  24.870  0.00  0.00    +0.149 HD
ATOM     16  O   UNL     1       8.907  -1.168  26.837  0.00  0.00    -0.274 OA
BRANCH  14  17
ATOM     17  C   UNL     1       6.202  -0.307  26.681  0.00  0.00    +0.123 C 
BRANCH  17  18
ATOM     18  C   UNL     1       5.390  -1.569  26.356  0.00  0.00    +0.120 C 
BRANCH  18  19
ATOM     19  N   UNL     1       6.141  -2.803  26.609  0.00  0.00    -0.342 N 
ATOM     20  H   UNL     1       6.355  -2.930  27.598  0.00  0.00    +0.146 HD
BRANCH  19  21
ATOM     21  C   UNL     1       5.596  -3.986  26.070  0.00  0.00    +0.027 A 
ATOM     22  C   UNL     1       4.566  -3.902  25.122  0.00  0.00    +0.026 A 
ATOM     23  C   UNL     1       3.983  -5.054  24.568  0.00  0.00    +0.047 A 
ATOM     24  C   UNL     1       4.402  -6.315  24.982  0.00  0.00    +0.120 A 
ATOM     25  C   UNL     1       5.383  -6.412  25.964  0.00  0.00    +0.047 A 
ATOM     26  C   UNL     1       5.952  -5.262  26.521  0.00  0.00    +0.026 A 
BRANCH  24  27
ATOM     27  O   UNL     1       3.974  -7.510  24.476  0.00  0.00    -0.495 OA
ATOM     28  C   UNL     1       2.672  -7.926  24.865  0.00  0.00    +0.277 C 
ENDBRANCH  24  27
ENDBRANCH  19  21
ENDBRANCH  18  19
ENDBRANCH  17  18
ENDBRANCH  14  17
ENDBRANCH   1  13
BRANCH   1  29
ATOM     29  C   UNL     1       9.983   1.132  24.557  0.00  0.00    +0.035 C 
BRANCH  29  30
ATOM     30  C   UNL     1       9.464   2.032  23.403  0.00  0.00    -0.009 C 
ATOM     31  C   UNL     1      10.634   2.718  22.664  0.00  0.00    +0.003 C 
ATOM     32  C   UNL     1      11.261   3.875  23.442  0.00  0.00    +0.000 C 
ATOM     33  C   UNL     1      10.214   4.908  23.843  0.00  0.00    +0.000 C 
ATOM     34  C   UNL     1       9.062   4.268  24.610  0.00  0.00    +0.000 C 
ATOM     35  C   UNL     1       8.442   3.099  23.843  0.00  0.00    +0.003 C 
ENDBRANCH  29  30
ENDBRANCH   1  29
TORSDOF 9
ENDMDL
MODEL 4
REMARK VINA RESULT:      -6.6      2.265      4.114
REMARK  Name = 
REMARK  10 active torsions:
REMARK  status: ('A' for Active; 'I' for Inactive)
REMARK    1  A    between atoms: C_2  and  C_3
REMARK    2  A    between atoms: C_2  and  N_10
REMARK    3  A    between atoms: C_2  and  C_20
REMARK    4  A    between atoms: C_3  and  C_4
REMARK    5  A    between atoms: N_22  and  C_23
REMARK    6  A    between atoms: C_23  and  C_24
REMARK    7  A    between atoms: C_24  and  N_25
REMARK    8  A    between atoms: N_25  and  C_26
REMARK    9  A    between atoms: C_29  and  O_30
REMARK   10  A    between atoms: O_30  and  C_31
REMARK                            x       y       z     vdW  Elec       q    Type
REMARK                         _______ _______ _______ _____ _____    ______ ____
ROOT
ATOM      1  C   UNL     1       7.471  -2.754  22.735  0.00  0.00    +0.161 C 
ENDROOT
BRANCH   1   2
ATOM      2  N   UNL     1       6.227  -2.324  23.424  0.00  0.00    -0.287 N 
ATOM      3  H   UNL     1       6.432  -1.828  24.289  0.00  0.00    +0.151 HD
ATOM      4  C   UNL     1       5.191  -3.164  23.586  0.00  0.00    +0.289 A 
ATOM      5  O   UNL     1       4.338  -2.819  24.598  0.00  0.00    -0.425 OA
ATOM      6  C   UNL     1       3.345  -3.751  24.524  0.00  0.00    +0.157 A 
ATOM      7  C   UNL     1       3.659  -4.616  23.490  0.00  0.00    +0.111 A 
ATOM      8  C   UNL     1       2.782  -5.664  23.186  0.00  0.00    +0.031 A 
ATOM      9  C   UNL     1       1.610  -5.779  23.946  0.00  0.00    +0.002 A 
ATOM     10  C   UNL     1       1.328  -4.885  24.987  0.00  0.00    +0.004 A 
ATOM     11  C   UNL     1       2.204  -3.840  25.310  0.00  0.00    +0.048 A 
ATOM     12  N   UNL     1       4.846  -4.241  22.922  0.00  0.00    -0.195 NA
ENDBRANCH   1   2
BRANCH   1  13
ATOM     13  C   UNL     1       8.115  -3.892  23.600  0.00  0.00    +0.233 C 
ATOM     14  N   UNL     1       8.592  -3.480  24.829  0.00  0.00    -0.312 N 
ATOM     15  H   UNL     1       8.574  -2.481  25.014  0.00  0.00    +0.149 HD
ATOM     16  O   UNL     1       8.171  -5.061  23.230  0.00  0.00    -0.274 OA
BRANCH  14  17
ATOM     17  C   UNL     1       9.104  -4.401  25.834  0.00  0.00    +0.123 C 
BRANCH  17  18
ATOM     18  C   UNL     1       7.996  -4.890  26.778  0.00  0.00    +0.120 C 
BRANCH  18  19
ATOM     19  N   UNL     1       6.993  -5.710  26.092  0.00  0.00    -0.342 N 
ATOM     20  H   UNL     1       7.337  -6.647  25.882  0.00  0.00    +0.146 HD
BRANCH  19  21
ATOM     21  C   UNL     1       5.723  -5.780  26.701  0.00  0.00    +0.027 A 
ATOM     22  C   UNL     1       5.387  -4.860  27.704  0.00  0.00    +0.026 A 
ATOM     23  C   UNL     1       4.139  -4.899  28.348  0.00  0.00    +0.047 A 
ATOM     24  C   UNL     1       3.216  -5.888  28.019  0.00  0.00    +0.120 A 
ATOM     25  C   UNL     1       3.559  -6.841  27.065  0.00  0.00    +0.047 A 
ATOM     26  C   UNL     1       4.807  -6.804  26.436  0.00  0.00    +0.026 A 
BRANCH  24  27
ATOM     27  O   UNL     1       1.946  -5.997  28.511  0.00  0.00    -0.495 OA
ATOM     28  C   UNL     1       1.175  -7.085  28.019  0.00  0.00    +0.277 C 
ENDBRANCH  24  27
ENDBRANCH  19  21
ENDBRANCH  18  19
ENDBRANCH  17  18
ENDBRANCH  14  17
ENDBRANCH   1  13
BRANCH   1  29
ATOM     29  C   UNL     1       8.472  -1.598  22.494  0.00  0.00    +0.035 C 
BRANCH  29  30
ATOM     30  C   UNL     1       8.046  -0.190  22.993  0.00  0.00    -0.009 C 
ATOM     31  C   UNL     1       8.465   0.905  21.987  0.00  0.00    +0.003 C 
ATOM     32  C   UNL     1       9.960   1.221  22.007  0.00  0.00    +0.000 C 
ATOM     33  C   UNL     1      10.433   1.585  23.410  0.00  0.00    +0.000 C 
ATOM     34  C   UNL     1      10.070   0.504  24.421  0.00  0.00    +0.000 C 
ATOM     35  C   UNL     1       8.576   0.172  24.393  0.00  0.00    +0.003 C 
ENDBRANCH  29  30
ENDBRANCH   1  29
TORSDOF 9
ENDMDL
MODEL 5
REMARK VINA RESULT:      -6.6      1.973      3.904
REMARK  Name = 
REMARK  10 active torsions:
REMARK  status: ('A' for Active; 'I' for Inactive)
REMARK    1  A    between atoms: C_2  and  C_3
REMARK    2  A    between atoms: C_2  and  N_10
REMARK    3  A    between atoms: C_2  and  C_20
REMARK    4  A    between atoms: C_3  and  C_4
REMARK    5  A    between atoms: N_22  and  C_23
REMARK    6  A    between atoms: C_23  and  C_24
REMARK    7  A    between atoms: C_24  and  N_25
REMARK    8  A    between atoms: N_25  and  C_26
REMARK    9  A    between atoms: C_29  and  O_30
REMARK   10  A    between atoms: O_30  and  C_31
REMARK                            x       y       z     vdW  Elec       q    Type
REMARK                         _______ _______ _______ _____ _____    ______ ____
ROOT
ATOM      1  C   UNL     1       6.936  -1.466  23.688  0.00  0.00    +0.161 C 
ENDROOT
BRANCH   1   2
ATOM      2  N   UNL     1       6.377  -1.405  25.063  0.00  0.00    -0.287 N 
ATOM      3  H   UNL     1       7.107  -1.491  25.768  0.00  0.00    +0.151 HD
ATOM      4  C   UNL     1       5.290  -2.116  25.409  0.00  0.00    +0.289 A 
ATOM      5  O   UNL     1       5.162  -2.332  26.753  0.00  0.00    -0.425 OA
ATOM      6  C   UNL     1       3.974  -2.992  26.869  0.00  0.00    +0.157 A 
ATOM      7  C   UNL     1       3.460  -3.153  25.595  0.00  0.00    +0.111 A 
ATOM      8  C   UNL     1       2.222  -3.788  25.433  0.00  0.00    +0.031 A 
ATOM      9  C   UNL     1       1.553  -4.223  26.586  0.00  0.00    +0.002 A 
ATOM     10  C   UNL     1       2.107  -4.043  27.859  0.00  0.00    +0.004 A 
ATOM     11  C   UNL     1       3.351  -3.420  28.034  0.00  0.00    +0.048 A 
ATOM     12  N   UNL     1       4.321  -2.612  24.680  0.00  0.00    -0.195 NA
ENDBRANCH   1   2
BRANCH   1  13
ATOM     13  C   UNL     1       7.876  -2.718  23.622  0.00  0.00    +0.233 C 
ATOM     14  N   UNL     1       8.491  -3.040  24.817  0.00  0.00    -0.312 N 
ATOM     15  H   UNL     1       8.360  -2.391  25.587  0.00  0.00    +0.149 HD
ATOM     16  O   UNL     1       8.040  -3.378  22.600  0.00  0.00    -0.274 OA
BRANCH  14  17
ATOM     17  C   UNL     1       9.295  -4.239  25.001  0.00  0.00    +0.123 C 
BRANCH  17  18
ATOM     18  C   UNL     1       8.550  -5.308  25.814  0.00  0.00    +0.120 C 
BRANCH  18  19
ATOM     19  N   UNL     1       7.213  -4.871  26.227  0.00  0.00    -0.342 N 
ATOM     20  H   UNL     1       7.071  -3.872  26.081  0.00  0.00    +0.146 HD
BRANCH  19  21
ATOM     21  C   UNL     1       6.128  -5.602  25.702  0.00  0.00    +0.027 A 
ATOM     22  C   UNL     1       5.291  -6.315  26.573  0.00  0.00    +0.026 A 
ATOM     23  C   UNL     1       4.207  -7.069  26.095  0.00  0.00    +0.047 A 
ATOM     24  C   UNL     1       3.963  -7.149  24.727  0.00  0.00    +0.120 A 
ATOM     25  C   UNL     1       4.820  -6.493  23.849  0.00  0.00    +0.047 A 
ATOM     26  C   UNL     1       5.905  -5.754  24.330  0.00  0.00    +0.026 A 
BRANCH  24  27
ATOM     27  O   UNL     1       2.907  -7.782  24.135  0.00  0.00    -0.495 OA
ATOM     28  C   UNL     1       2.113  -8.603  24.982  0.00  0.00    +0.277 C 
ENDBRANCH  24  27
ENDBRANCH  19  21
ENDBRANCH  18  19
ENDBRANCH  17  18
ENDBRANCH  14  17
ENDBRANCH   1  13
BRANCH   1  29
ATOM     29  C   UNL     1       7.686  -0.178  23.271  0.00  0.00    +0.035 C 
BRANCH  29  30
ATOM     30  C   UNL     1       9.231  -0.189  23.422  0.00  0.00    -0.009 C 
ATOM     31  C   UNL     1       9.678   0.662  24.632  0.00  0.00    +0.003 C 
ATOM     32  C   UNL     1       9.595   2.169  24.389  0.00  0.00    +0.000 C 
ATOM     33  C   UNL     1      10.373   2.575  23.143  0.00  0.00    +0.000 C 
ATOM     34  C   UNL     1       9.928   1.780  21.921  0.00  0.00    +0.000 C 
ATOM     35  C   UNL     1       9.994   0.271  22.165  0.00  0.00    +0.003 C 
ENDBRANCH  29  30
ENDBRANCH   1  29
TORSDOF 9
ENDMDL
MODEL 6
REMARK VINA RESULT:      -6.6      2.569      4.677
REMARK  Name = 
REMARK  10 active torsions:
REMARK  status: ('A' for Active; 'I' for Inactive)
REMARK    1  A    between atoms: C_2  and  C_3
REMARK    2  A    between atoms: C_2  and  N_10
REMARK    3  A    between atoms: C_2  and  C_20
REMARK    4  A    between atoms: C_3  and  C_4
REMARK    5  A    between atoms: N_22  and  C_23
REMARK    6  A    between atoms: C_23  and  C_24
REMARK    7  A    between atoms: C_24  and  N_25
REMARK    8  A    between atoms: N_25  and  C_26
REMARK    9  A    between atoms: C_29  and  O_30
REMARK   10  A    between atoms: O_30  and  C_31
REMARK                            x       y       z     vdW  Elec       q    Type
REMARK                         _______ _______ _______ _____ _____    ______ ____
ROOT
ATOM      1  C   UNL     1       7.681   1.394  24.860  0.00  0.00    +0.161 C 
ENDROOT
BRANCH   1   2
ATOM      2  N   UNL     1       8.195   0.271  25.686  0.00  0.00    -0.287 N 
ATOM      3  H   UNL     1       9.164   0.055  25.460  0.00  0.00    +0.151 HD
ATOM      4  C   UNL     1       7.481  -0.854  25.861  0.00  0.00    +0.289 A 
ATOM      5  O   UNL     1       8.223  -1.942  26.227  0.00  0.00    -0.425 OA
ATOM      6  C   UNL     1       7.296  -2.924  26.418  0.00  0.00    +0.157 A 
ATOM      7  C   UNL     1       6.052  -2.384  26.141  0.00  0.00    +0.111 A 
ATOM      8  C   UNL     1       4.912  -3.185  26.282  0.00  0.00    +0.031 A 
ATOM      9  C   UNL     1       5.090  -4.507  26.715  0.00  0.00    +0.002 A 
ATOM     10  C   UNL     1       6.366  -5.018  26.984  0.00  0.00    +0.004 A 
ATOM     11  C   UNL     1       7.516  -4.230  26.833  0.00  0.00    +0.048 A 
ATOM     12  N   UNL     1       6.192  -1.076  25.766  0.00  0.00    -0.195 NA
ENDBRANCH   1   2
BRANCH   1  13
ATOM     13  C   UNL     1       7.961   1.036  23.360  0.00  0.00    +0.233 C 
ATOM     14  N   UNL     1       9.225   0.536  23.113  0.00  0.00    -0.312 N 
ATOM     15  H   UNL     1       9.877   0.540  23.892  0.00  0.00    +0.149 HD
ATOM     16  O   UNL     1       7.121   1.166  22.475  0.00  0.00    -0.274 OA
BRANCH  14  17
ATOM     17  C   UNL     1       9.639   0.021  21.816  0.00  0.00    +0.123 C 
BRANCH  17  18
ATOM     18  C   UNL     1       9.466  -1.502  21.724  0.00  0.00    +0.120 C 
BRANCH  18  19
ATOM     19  N   UNL     1       8.970  -2.089  22.973  0.00  0.00    -0.342 N 
ATOM     20  H   UNL     1       8.830  -1.389  23.701  0.00  0.00    +0.146 HD
BRANCH  19  21
ATOM     21  C   UNL     1       7.835  -2.918  22.865  0.00  0.00    +0.027 A 
ATOM     22  C   UNL     1       6.604  -2.357  22.496  0.00  0.00    +0.026 A 
ATOM     23  C   UNL     1       5.443  -3.141  22.389  0.00  0.00    +0.047 A 
ATOM     24  C   UNL     1       5.491  -4.500  22.685  0.00  0.00    +0.120 A 
ATOM     25  C   UNL     1       6.693  -5.058  23.107  0.00  0.00    +0.047 A 
ATOM     26  C   UNL     1       7.843  -4.270  23.224  0.00  0.00    +0.026 A 
BRANCH  24  27
ATOM     27  O   UNL     1       4.460  -5.387  22.553  0.00  0.00    -0.495 OA
ATOM     28  C   UNL     1       4.259  -6.281  23.639  0.00  0.00    +0.277 C 
ENDBRANCH  24  27
ENDBRANCH  19  21
ENDBRANCH  18  19
ENDBRANCH  17  18
ENDBRANCH  14  17
ENDBRANCH   1  13
BRANCH   1  29
ATOM     29  C   UNL     1       8.296   2.764  25.234  0.00  0.00    +0.035 C 
BRANCH  29  30
ATOM     30  C   UNL     1       7.661   4.018  24.575  0.00  0.00    -0.009 C 
ATOM     31  C   UNL     1       8.595   4.614  23.499  0.00  0.00    +0.003 C 
ATOM     32  C   UNL     1       9.789   5.376  24.074  0.00  0.00    +0.000 C 
ATOM     33  C   UNL     1       9.341   6.464  25.043  0.00  0.00    +0.000 C 
ATOM     34  C   UNL     1       8.448   5.901  26.142  0.00  0.00    +0.000 C 
ATOM     35  C   UNL     1       7.260   5.123  25.572  0.00  0.00    +0.003 C 
ENDBRANCH  29  30
ENDBRANCH   1  29
TORSDOF 9
ENDMDL
MODEL 7
REMARK VINA RESULT:      -6.6      3.144      8.071
REMARK  Name = 
REMARK  10 active torsions:
REMARK  status: ('A' for Active; 'I' for Inactive)
REMARK    1  A    between atoms: C_2  and  C_3
REMARK    2  A    between atoms: C_2  and  N_10
REMARK    3  A    between atoms: C_2  and  C_20
REMARK    4  A    between atoms: C_3  and  C_4
REMARK    5  A    between atoms: N_22  and  C_23
REMARK    6  A    between atoms: C_23  and  C_24
REMARK    7  A    between atoms: C_24  and  N_25
REMARK    8  A    between atoms: N_25  and  C_26
REMARK    9  A    between atoms: C_29  and  O_30
REMARK   10  A    between atoms: O_30  and  C_31
REMARK                            x       y       z     vdW  Elec       q    Type
REMARK                         _______ _______ _______ _____ _____    ______ ____
ROOT
ATOM      1  C   UNL     1       7.209  -2.024  23.439  0.00  0.00    +0.161 C 
ENDROOT
BRANCH   1   2
ATOM      2  N   UNL     1       6.102  -1.047  23.608  0.00  0.00    -0.287 N 
ATOM      3  H   UNL     1       5.879  -0.579  22.731  0.00  0.00    +0.151 HD
ATOM      4  C   UNL     1       6.086  -0.178  24.633  0.00  0.00    +0.289 A 
ATOM      5  O   UNL     1       5.306   0.926  24.425  0.00  0.00    -0.425 OA
ATOM      6  C   UNL     1       5.382   1.610  25.602  0.00  0.00    +0.157 A 
ATOM      7  C   UNL     1       6.215   0.897  26.447  0.00  0.00    +0.111 A 
ATOM      8  C   UNL     1       6.447   1.377  27.742  0.00  0.00    +0.031 A 
ATOM      9  C   UNL     1       5.807   2.564  28.126  0.00  0.00    +0.002 A 
ATOM     10  C   UNL     1       4.972   3.258  27.241  0.00  0.00    +0.004 A 
ATOM     11  C   UNL     1       4.742   2.795  25.938  0.00  0.00    +0.048 A 
ATOM     12  N   UNL     1       6.671  -0.222  25.806  0.00  0.00    -0.195 NA
ENDBRANCH   1   2
BRANCH   1  13
ATOM     13  C   UNL     1       8.483  -1.216  23.015  0.00  0.00    +0.233 C 
ATOM     14  N   UNL     1       9.342  -0.909  24.053  0.00  0.00    -0.312 N 
ATOM     15  H   UNL     1       9.025  -1.141  24.991  0.00  0.00    +0.149 HD
ATOM     16  O   UNL     1       8.717  -0.900  21.853  0.00  0.00    -0.274 OA
BRANCH  14  17
ATOM     17  C   UNL     1      10.640  -0.283  23.854  0.00  0.00    +0.123 C 
BRANCH  17  18
ATOM     18  C   UNL     1      10.642   1.184  24.306  0.00  0.00    +0.120 C 
BRANCH  18  19
ATOM     19  N   UNL     1       9.404   1.565  24.991  0.00  0.00    -0.342 N 
ATOM     20  H   UNL     1       9.553   1.759  25.981  0.00  0.00    +0.146 HD
BRANCH  19  21
ATOM     21  C   UNL     1       8.654   2.600  24.396  0.00  0.00    +0.027 A 
ATOM     22  C   UNL     1       8.323   3.734  25.152  0.00  0.00    +0.026 A 
ATOM     23  C   UNL     1       7.566   4.784  24.606  0.00  0.00    +0.047 A 
ATOM     24  C   UNL     1       7.099   4.700  23.297  0.00  0.00    +0.120 A 
ATOM     25  C   UNL     1       7.373   3.555  22.555  0.00  0.00    +0.047 A 
ATOM     26  C   UNL     1       8.116   2.507  23.108  0.00  0.00    +0.026 A 
BRANCH  24  27
ATOM     27  O   UNL     1       6.419   5.674  22.622  0.00  0.00    -0.495 OA
ATOM     28  C   UNL     1       7.210   6.578  21.863  0.00  0.00    +0.277 C 
ENDBRANCH  24  27
ENDBRANCH  19  21
ENDBRANCH  18  19
ENDBRANCH  17  18
ENDBRANCH  14  17
ENDBRANCH   1  13
BRANCH   1  29
ATOM     29  C   UNL     1       6.889  -3.144  22.420  0.00  0.00    +0.035 C 
BRANCH  29  30
ATOM     30  C   UNL     1       7.413  -4.566  22.758  0.00  0.00    -0.009 C 
ATOM     31  C   UNL     1       6.744  -5.633  21.862  0.00  0.00    +0.003 C 
ATOM     32  C   UNL     1       5.299  -5.945  22.249  0.00  0.00    +0.000 C 
ATOM     33  C   UNL     1       5.190  -6.346  23.715  0.00  0.00    +0.000 C 
ATOM     34  C   UNL     1       5.806  -5.295  24.631  0.00  0.00    +0.000 C 
ATOM     35  C   UNL     1       7.248  -4.967  24.237  0.00  0.00    +0.003 C 
ENDBRANCH  29  30
ENDBRANCH   1  29
TORSDOF 9
ENDMDL
MODEL 8
REMARK VINA RESULT:      -6.5      2.035      2.682
REMARK  Name = 
REMARK  10 active torsions:
REMARK  status: ('A' for Active; 'I' for Inactive)
REMARK    1  A    between atoms: C_2  and  C_3
REMARK    2  A    between atoms: C_2  and  N_10
REMARK    3  A    between atoms: C_2  and  C_20
REMARK    4  A    between atoms: C_3  and  C_4
REMARK    5  A    between atoms: N_22  and  C_23
REMARK    6  A    between atoms: C_23  and  C_24
REMARK    7  A    between atoms: C_24  and  N_25
REMARK    8  A    between atoms: N_25  and  C_26
REMARK    9  A    between atoms: C_29  and  O_30
REMARK   10  A    between atoms: O_30  and  C_31
REMARK                            x       y       z     vdW  Elec       q    Type
REMARK                         _______ _______ _______ _____ _____    ______ ____
ROOT
ATOM      1  C   UNL     1       6.645   0.504  24.083  0.00  0.00    +0.161 C 
ENDROOT
BRANCH   1   2
ATOM      2  N   UNL     1       6.382  -0.378  22.916  0.00  0.00    -0.287 N 
ATOM      3  H   UNL     1       5.462  -0.203  22.516  0.00  0.00    +0.151 HD
ATOM      4  C   UNL     1       6.642  -1.696  22.963  0.00  0.00    +0.289 A 
ATOM      5  O   UNL     1       5.951  -2.440  22.046  0.00  0.00    -0.425 OA
ATOM      6  C   UNL     1       6.424  -3.706  22.225  0.00  0.00    +0.157 A 
ATOM      7  C   UNL     1       7.357  -3.663  23.246  0.00  0.00    +0.111 A 
ATOM      8  C   UNL     1       8.018  -4.840  23.618  0.00  0.00    +0.031 A 
ATOM      9  C   UNL     1       7.706  -6.016  22.920  0.00  0.00    +0.002 A 
ATOM     10  C   UNL     1       6.754  -6.019  21.893  0.00  0.00    +0.004 A 
ATOM     11  C   UNL     1       6.076  -4.850  21.520  0.00  0.00    +0.048 A 
ATOM     12  N   UNL     1       7.464  -2.383  23.718  0.00  0.00    -0.195 NA
ENDBRANCH   1   2
BRANCH   1  13
ATOM     13  C   UNL     1       5.657   0.078  25.223  0.00  0.00    +0.233 C 
ATOM     14  N   UNL     1       6.155  -0.875  26.090  0.00  0.00    -0.312 N 
ATOM     15  H   UNL     1       7.058  -1.277  25.856  0.00  0.00    +0.149 HD
ATOM     16  O   UNL     1       4.538   0.566  25.353  0.00  0.00    -0.274 OA
BRANCH  14  17
ATOM     17  C   UNL     1       5.451  -1.306  27.289  0.00  0.00    +0.123 C 
BRANCH  17  18
ATOM     18  C   UNL     1       5.106  -2.802  27.241  0.00  0.00    +0.120 C 
BRANCH  18  19
ATOM     19  N   UNL     1       5.530  -3.438  25.990  0.00  0.00    -0.342 N 
ATOM     20  H   UNL     1       6.543  -3.534  25.929  0.00  0.00    +0.146 HD
BRANCH  19  21
ATOM     21  C   UNL     1       4.902  -4.658  25.667  0.00  0.00    +0.027 A 
ATOM     22  C   UNL     1       5.292  -5.831  26.329  0.00  0.00    +0.026 A 
ATOM     23  C   UNL     1       4.705  -7.072  26.031  0.00  0.00    +0.047 A 
ATOM     24  C   UNL     1       3.736  -7.163  25.035  0.00  0.00    +0.120 A 
ATOM     25  C   UNL     1       3.381  -6.017  24.331  0.00  0.00    +0.047 A 
ATOM     26  C   UNL     1       3.978  -4.786  24.624  0.00  0.00    +0.026 A 
BRANCH  24  27
ATOM     27  O   UNL     1       3.035  -8.286  24.697  0.00  0.00    -0.495 OA
ATOM     28  C   UNL     1       1.992  -8.111  23.747  0.00  0.00    +0.277 C 
ENDBRANCH  24  27
ENDBRANCH  19  21
ENDBRANCH  18  19
ENDBRANCH  17  18
ENDBRANCH  14  17
ENDBRANCH   1  13
BRANCH   1  29
ATOM     29  C   UNL     1       6.510   2.011  23.757  0.00  0.00    +0.035 C 
BRANCH  29  30
ATOM     30  C   UNL     1       7.424   2.567  22.632  0.00  0.00    -0.009 C 
ATOM     31  C   UNL     1       8.903   2.199  22.884  0.00  0.00    +0.003 C 
ATOM     32  C   UNL     1       9.563   3.023  23.989  0.00  0.00    +0.000 C 
ATOM     33  C   UNL     1       9.431   4.518  23.722  0.00  0.00    +0.000 C 
ATOM     34  C   UNL     1       7.977   4.922  23.507  0.00  0.00    +0.000 C 
ATOM     35  C   UNL     1       7.307   4.087  22.413  0.00  0.00    +0.003 C 
ENDBRANCH  29  30
ENDBRANCH   1  29
TORSDOF 9
ENDMDL
MODEL 9
REMARK VINA RESULT:      -6.4      2.028      3.881
REMARK  Name = 
REMARK  10 active torsions:
REMARK  status: ('A' for Active; 'I' for Inactive)
REMARK    1  A    between atoms: C_2  and  C_3
REMARK    2  A    between atoms: C_2  and  N_10
REMARK    3  A    between atoms: C_2  and  C_20
REMARK    4  A    between atoms: C_3  and  C_4
REMARK    5  A    between atoms: N_22  and  C_23
REMARK    6  A    between atoms: C_23  and  C_24
REMARK    7  A    between atoms: C_24  and  N_25
REMARK    8  A    between atoms: N_25  and  C_26
REMARK    9  A    between atoms: C_29  and  O_30
REMARK   10  A    between atoms: O_30  and  C_31
REMARK                            x       y       z     vdW  Elec       q    Type
REMARK                         _______ _______ _______ _____ _____    ______ ____
ROOT
ATOM      1  C   UNL     1       8.195  -1.520  24.873  0.00  0.00    +0.161 C 
ENDROOT
BRANCH   1   2
ATOM      2  N   UNL     1       8.395  -2.676  25.785  0.00  0.00    -0.287 N 
ATOM      3  H   UNL     1       8.992  -3.385  25.364  0.00  0.00    +0.151 HD
ATOM      4  C   UNL     1       7.363  -3.242  26.435  0.00  0.00    +0.289 A 
ATOM      5  O   UNL     1       7.593  -4.524  26.849  0.00  0.00    -0.425 OA
ATOM      6  C   UNL     1       6.462  -4.856  27.535  0.00  0.00    +0.157 A 
ATOM      7  C   UNL     1       5.607  -3.769  27.483  0.00  0.00    +0.111 A 
ATOM      8  C   UNL     1       4.370  -3.841  28.136  0.00  0.00    +0.031 A 
ATOM      9  C   UNL     1       4.062  -5.021  28.828  0.00  0.00    +0.002 A 
ATOM     10  C   UNL     1       4.953  -6.101  28.856  0.00  0.00    +0.004 A 
ATOM     11  C   UNL     1       6.189  -6.046  28.195  0.00  0.00    +0.048 A 
ATOM     12  N   UNL     1       6.187  -2.763  26.760  0.00  0.00    -0.195 NA
ENDBRANCH   1   2
BRANCH   1  13
ATOM     13  C   UNL     1       7.348  -2.027  23.656  0.00  0.00    +0.233 C 
ATOM     14  N   UNL     1       7.884  -3.116  22.996  0.00  0.00    -0.312 N 
ATOM     15  H   UNL     1       8.808  -3.419  23.291  0.00  0.00    +0.149 HD
ATOM     16  O   UNL     1       6.283  -1.516  23.325  0.00  0.00    -0.274 OA
BRANCH  14  17
ATOM     17  C   UNL     1       7.191  -3.819  21.926  0.00  0.00    +0.123 C 
BRANCH  17  18
ATOM     18  C   UNL     1       6.825  -5.254  22.329  0.00  0.00    +0.120 C 
BRANCH  18  19
ATOM     19  N   UNL     1       6.684  -5.414  23.780  0.00  0.00    -0.342 N 
ATOM     20  H   UNL     1       7.189  -4.695  24.299  0.00  0.00    +0.146 HD
BRANCH  19  21
ATOM     21  C   UNL     1       5.368  -5.538  24.269  0.00  0.00    +0.027 A 
ATOM     22  C   UNL     1       4.943  -6.763  24.803  0.00  0.00    +0.026 A 
ATOM     23  C   UNL     1       3.637  -6.938  25.289  0.00  0.00    +0.047 A 
ATOM     24  C   UNL     1       2.720  -5.892  25.217  0.00  0.00    +0.120 A 
ATOM     25  C   UNL     1       3.113  -4.689  24.638  0.00  0.00    +0.047 A 
ATOM     26  C   UNL     1       4.411  -4.525  24.145  0.00  0.00    +0.026 A 
BRANCH  24  27
ATOM     27  O   UNL     1       1.449  -5.902  25.716  0.00  0.00    -0.495 OA
ATOM     28  C   UNL     1       1.189  -6.843  26.749  0.00  0.00    +0.277 C 
ENDBRANCH  24  27
ENDBRANCH  19  21
ENDBRANCH  18  19
ENDBRANCH  17  18
ENDBRANCH  14  17
ENDBRANCH   1  13
BRANCH   1  29
ATOM     29  C   UNL     1       9.519  -0.870  24.404  0.00  0.00    +0.035 C 
BRANCH  29  30
ATOM     30  C   UNL     1       9.754   0.610  24.811  0.00  0.00    -0.009 C 
ATOM     31  C   UNL     1       8.421   1.390  24.861  0.00  0.00    +0.003 C 
ATOM     32  C   UNL     1       7.857   1.735  23.483  0.00  0.00    +0.000 C 
ATOM     33  C   UNL     1       8.877   2.488  22.637  0.00  0.00    +0.000 C 
ATOM     34  C   UNL     1      10.193   1.725  22.535  0.00  0.00    +0.000 C 
ATOM     35  C   UNL     1      10.753   1.363  23.912  0.00  0.00    +0.003 C 
ENDBRANCH  29  30
ENDBRANCH   1  29
TORSDOF 9
ENDMDL
