MODEL 1
REMARK VINA RESULT:      -5.7      0.000      0.000
REMARK  Name = 
REMARK  8 active torsions:
REMARK  status: ('A' for Active; 'I' for Inactive)
REMARK    1  A    between atoms: C_1  and  C_2
REMARK    2  A    between atoms: C_2  and  N_3
REMARK    3  A    between atoms: N_3  and  C_4
REMARK    4  A    between atoms: C_4  and  C_5
REMARK    5  A    between atoms: C_11  and  C_13
REMARK    6  A    between atoms: C_13  and  C_14
REMARK    7  A    between atoms: C_13  and  C_16
REMARK    8  A    between atoms: C_14  and  O_15
REMARK                            x       y       z     vdW  Elec       q    Type
REMARK                         _______ _______ _______ _____ _____    ______ ____
ROOT
ATOM      1  N   UNL     1       7.488  -4.579  25.883  0.00  0.00    -0.297 N 
ATOM      2  C   UNL     1       6.633  -5.179  26.821  0.00  0.00    +0.225 C 
ATOM      3  O   UNL     1       6.601  -4.789  27.999  0.00  0.00    -0.275 OA
ENDROOT
BRANCH   1   5
ATOM      4  C   UNL     1       7.689  -2.084  26.207  0.00  0.00    +0.024 C 
ATOM      5  C   UNL     1       8.302  -3.466  26.395  0.00  0.00    +0.105 C 
ENDBRANCH   1   5
BRANCH   2   6
ATOM      6  C   UNL     1       5.640  -6.270  26.375  0.00  0.00    +0.130 C 
BRANCH   6   7
ATOM      7  C   UNL     1       4.621  -5.759  25.360  0.00  0.00    -0.033 A 
ATOM      8  C   UNL     1       4.003  -4.504  25.492  0.00  0.00    +0.004 A 
ATOM      9  C   UNL     1       3.040  -4.077  24.577  0.00  0.00    +0.000 A 
ATOM     10  C   UNL     1       2.665  -4.903  23.523  0.00  0.00    +0.000 A 
ATOM     11  C   UNL     1       3.252  -6.158  23.386  0.00  0.00    +0.000 A 
ATOM     12  C   UNL     1       4.223  -6.585  24.296  0.00  0.00    +0.004 A 
ENDBRANCH   6   7
BRANCH   6  13
ATOM     13  C   UNL     1       4.928  -6.873  27.609  0.00  0.00    +0.173 C 
BRANCH  13  14
ATOM     14  O   UNL     1       5.784  -7.627  28.465  0.00  0.00    -0.394 OA
ATOM     15  H   UNL     1       6.612  -7.110  28.554  0.00  0.00    +0.209 HD
ENDBRANCH  13  14
ENDBRANCH   6  13
ENDBRANCH   2   6
BRANCH   1  16
ATOM     16  C   UNL     1       7.901  -5.285  24.662  0.00  0.00    +0.143 C 
BRANCH  16  17
ATOM     17  C   UNL     1       7.242  -4.919  23.351  0.00  0.00    -0.027 A 
ATOM     18  C   UNL     1       6.620  -3.679  23.162  0.00  0.00    +0.025 A 
ATOM     19  C   UNL     1       5.922  -3.454  21.982  0.00  0.00    +0.111 A 
ATOM     20  N   UNL     1       5.790  -4.370  20.998  0.00  0.00    -0.263 NA
ATOM     21  C   UNL     1       6.386  -5.562  21.200  0.00  0.00    +0.111 A 
ATOM     22  C   UNL     1       7.112  -5.876  22.337  0.00  0.00    +0.025 A 
ENDBRANCH  16  17
ENDBRANCH   1  16
TORSDOF 7
ENDMDL
MODEL 2
REMARK VINA RESULT:      -5.7      3.308      4.950
REMARK  Name = 
REMARK  8 active torsions:
REMARK  status: ('A' for Active; 'I' for Inactive)
REMARK    1  A    between atoms: C_1  and  C_2
REMARK    2  A    between atoms: C_2  and  N_3
REMARK    3  A    between atoms: N_3  and  C_4
REMARK    4  A    between atoms: C_4  and  C_5
REMARK    5  A    between atoms: C_11  and  C_13
REMARK    6  A    between atoms: C_13  and  C_14
REMARK    7  A    between atoms: C_13  and  C_16
REMARK    8  A    between atoms: C_14  and  O_15
REMARK                            x       y       z     vdW  Elec       q    Type
REMARK                         _______ _______ _______ _____ _____    ______ ____
ROOT
ATOM      1  N   UNL     1       8.477  -1.545  25.639  0.00  0.00    -0.297 N 
ATOM      2  C   UNL     1       8.171  -2.915  25.655  0.00  0.00    +0.225 C 
ATOM      3  O   UNL     1       7.304  -3.369  26.418  0.00  0.00    -0.275 OA
ENDROOT
BRANCH   1   5
ATOM      4  C   UNL     1       6.554   0.066  25.910  0.00  0.00    +0.024 C 
ATOM      5  C   UNL     1       7.688  -0.714  26.561  0.00  0.00    +0.105 C 
ENDBRANCH   1   5
BRANCH   2   6
ATOM      6  C   UNL     1       8.841  -3.868  24.645  0.00  0.00    +0.130 C 
BRANCH   6   7
ATOM      7  C   UNL     1       7.918  -4.241  23.487  0.00  0.00    -0.033 A 
ATOM      8  C   UNL     1       7.130  -3.284  22.826  0.00  0.00    +0.004 A 
ATOM      9  C   UNL     1       6.259  -3.656  21.800  0.00  0.00    +0.000 A 
ATOM     10  C   UNL     1       6.149  -4.991  21.428  0.00  0.00    +0.000 A 
ATOM     11  C   UNL     1       6.908  -5.956  22.084  0.00  0.00    +0.000 A 
ATOM     12  C   UNL     1       7.787  -5.586  23.106  0.00  0.00    +0.004 A 
ENDBRANCH   6   7
BRANCH   6  13
ATOM     13  C   UNL     1       9.347  -5.137  25.371  0.00  0.00    +0.173 C 
BRANCH  13  14
ATOM     14  O   UNL     1       9.692  -4.927  26.738  0.00  0.00    -0.394 OA
ATOM     15  H   UNL     1       9.895  -3.973  26.830  0.00  0.00    +0.209 HD
ENDBRANCH  13  14
ENDBRANCH   6  13
ENDBRANCH   2   6
BRANCH   1  16
ATOM     16  C   UNL     1       9.767  -1.054  25.135  0.00  0.00    +0.143 C 
BRANCH  16  17
ATOM     17  C   UNL     1       9.771  -0.020  24.032  0.00  0.00    -0.027 A 
ATOM     18  C   UNL     1       9.468  -0.357  22.707  0.00  0.00    +0.025 A 
ATOM     19  C   UNL     1       9.615   0.609  21.720  0.00  0.00    +0.111 A 
ATOM     20  N   UNL     1      10.051   1.866  21.955  0.00  0.00    -0.263 NA
ATOM     21  C   UNL     1      10.349   2.172  23.234  0.00  0.00    +0.111 A 
ATOM     22  C   UNL     1      10.224   1.281  24.287  0.00  0.00    +0.025 A 
ENDBRANCH  16  17
ENDBRANCH   1  16
TORSDOF 7
ENDMDL
MODEL 3
REMARK VINA RESULT:      -5.6      3.296      4.908
REMARK  Name = 
REMARK  8 active torsions:
REMARK  status: ('A' for Active; 'I' for Inactive)
REMARK    1  A    between atoms: C_1  and  C_2
REMARK    2  A    between atoms: C_2  and  N_3
REMARK    3  A    between atoms: N_3  and  C_4
REMARK    4  A    between atoms: C_4  and  C_5
REMARK    5  A    between atoms: C_11  and  C_13
REMARK    6  A    between atoms: C_13  and  C_14
REMARK    7  A    between atoms: C_13  and  C_16
REMARK    8  A    between atoms: C_14  and  O_15
REMARK                            x       y       z     vdW  Elec       q    Type
REMARK                         _______ _______ _______ _____ _____    ______ ____
ROOT
ATOM      1  N   UNL     1       8.537  -1.570  25.477  0.00  0.00    -0.297 N 
ATOM      2  C   UNL     1       8.141  -2.915  25.559  0.00  0.00    +0.225 C 
ATOM      3  O   UNL     1       7.236  -3.269  26.331  0.00  0.00    -0.275 OA
ENDROOT
BRANCH   1   5
ATOM      4  C   UNL     1       6.696   0.147  25.640  0.00  0.00    +0.024 C 
ATOM      5  C   UNL     1       7.793  -0.642  26.342  0.00  0.00    +0.105 C 
ENDBRANCH   1   5
BRANCH   2   6
ATOM      6  C   UNL     1       8.758  -3.962  24.611  0.00  0.00    +0.130 C 
BRANCH   6   7
ATOM      7  C   UNL     1       7.819  -4.351  23.472  0.00  0.00    -0.033 A 
ATOM      8  C   UNL     1       7.747  -5.666  22.983  0.00  0.00    +0.004 A 
ATOM      9  C   UNL     1       6.914  -5.989  21.910  0.00  0.00    +0.000 A 
ATOM     10  C   UNL     1       6.151  -5.001  21.298  0.00  0.00    +0.000 A 
ATOM     11  C   UNL     1       6.224  -3.688  21.755  0.00  0.00    +0.000 A 
ATOM     12  C   UNL     1       7.050  -3.363  22.835  0.00  0.00    +0.004 A 
ENDBRANCH   6   7
BRANCH   6  13
ATOM     13  C   UNL     1       9.192  -5.211  25.414  0.00  0.00    +0.173 C 
BRANCH  13  14
ATOM     14  O   UNL     1       9.701  -4.921  26.713  0.00  0.00    -0.394 OA
ATOM     15  H   UNL     1       9.910  -3.964  26.722  0.00  0.00    +0.209 HD
ENDBRANCH  13  14
ENDBRANCH   6  13
ENDBRANCH   2   6
BRANCH   1  16
ATOM     16  C   UNL     1       9.863  -1.193  24.969  0.00  0.00    +0.143 C 
BRANCH  16  17
ATOM     17  C   UNL     1       9.955  -0.152  23.875  0.00  0.00    -0.027 A 
ATOM     18  C   UNL     1      10.325   1.170  24.148  0.00  0.00    +0.025 A 
ATOM     19  C   UNL     1      10.266   2.107  23.124  0.00  0.00    +0.111 A 
ATOM     20  N   UNL     1       9.855   1.825  21.869  0.00  0.00    -0.263 NA
ATOM     21  C   UNL     1       9.492   0.550  21.624  0.00  0.00    +0.111 A 
ATOM     22  C   UNL     1       9.528  -0.455  22.576  0.00  0.00    +0.025 A 
ENDBRANCH  16  17
ENDBRANCH   1  16
TORSDOF 7
ENDMDL
MODEL 4
REMARK VINA RESULT:      -5.5      2.387      5.342
REMARK  Name = 
REMARK  8 active torsions:
REMARK  status: ('A' for Active; 'I' for Inactive)
REMARK    1  A    between atoms: C_1  and  C_2
REMARK    2  A    between atoms: C_2  and  N_3
REMARK    3  A    between atoms: N_3  and  C_4
REMARK    4  A    between atoms: C_4  and  C_5
REMARK    5  A    between atoms: C_11  and  C_13
REMARK    6  A    between atoms: C_13  and  C_14
REMARK    7  A    between atoms: C_13  and  C_16
REMARK    8  A    between atoms: C_14  and  O_15
REMARK                            x       y       z     vdW  Elec       q    Type
REMARK                         _______ _______ _______ _____ _____    ______ ____
ROOT
ATOM      1  N   UNL     1       7.042  -4.985  23.235  0.00  0.00    -0.297 N 
ATOM      2  C   UNL     1       8.063  -4.977  24.199  0.00  0.00    +0.225 C 
ATOM      3  O   UNL     1       9.048  -5.724  24.092  0.00  0.00    -0.275 OA
ENDROOT
BRANCH   1   5
ATOM      4  C   UNL     1       6.334  -5.673  20.913  0.00  0.00    +0.024 C 
ATOM      5  C   UNL     1       7.246  -5.910  22.110  0.00  0.00    +0.105 C 
ENDBRANCH   1   5
BRANCH   2   6
ATOM      6  C   UNL     1       8.024  -3.962  25.357  0.00  0.00    +0.130 C 
BRANCH   6   7
ATOM      7  C   UNL     1       8.708  -2.643  25.007  0.00  0.00    -0.033 A 
ATOM      8  C   UNL     1       9.479  -2.491  23.842  0.00  0.00    +0.004 A 
ATOM      9  C   UNL     1      10.133  -1.289  23.565  0.00  0.00    +0.000 A 
ATOM     10  C   UNL     1      10.041  -0.224  24.455  0.00  0.00    +0.000 A 
ATOM     11  C   UNL     1       9.298  -0.362  25.624  0.00  0.00    +0.000 A 
ATOM     12  C   UNL     1       8.635  -1.561  25.900  0.00  0.00    +0.004 A 
ENDBRANCH   6   7
BRANCH   6  13
ATOM     13  C   UNL     1       8.654  -4.584  26.626  0.00  0.00    +0.173 C 
BRANCH  13  14
ATOM     14  O   UNL     1       8.150  -5.877  26.953  0.00  0.00    -0.394 OA
ATOM     15  H   UNL     1       8.078  -6.368  26.107  0.00  0.00    +0.209 HD
ENDBRANCH  13  14
ENDBRANCH   6  13
ENDBRANCH   2   6
BRANCH   1  16
ATOM     16  C   UNL     1       5.689  -4.503  23.548  0.00  0.00    +0.143 C 
BRANCH  16  17
ATOM     17  C   UNL     1       4.659  -5.494  24.040  0.00  0.00    -0.027 A 
ATOM     18  C   UNL     1       4.897  -6.311  25.151  0.00  0.00    +0.025 A 
ATOM     19  C   UNL     1       3.965  -7.289  25.475  0.00  0.00    +0.111 A 
ATOM     20  N   UNL     1       2.836  -7.517  24.769  0.00  0.00    -0.263 NA
ATOM     21  C   UNL     1       2.626  -6.729  23.695  0.00  0.00    +0.111 A 
ATOM     22  C   UNL     1       3.491  -5.721  23.301  0.00  0.00    +0.025 A 
ENDBRANCH  16  17
ENDBRANCH   1  16
TORSDOF 7
ENDMDL
MODEL 5
REMARK VINA RESULT:      -5.5      2.640      5.406
REMARK  Name = 
REMARK  8 active torsions:
REMARK  status: ('A' for Active; 'I' for Inactive)
REMARK    1  A    between atoms: C_1  and  C_2
REMARK    2  A    between atoms: C_2  and  N_3
REMARK    3  A    between atoms: N_3  and  C_4
REMARK    4  A    between atoms: C_4  and  C_5
REMARK    5  A    between atoms: C_11  and  C_13
REMARK    6  A    between atoms: C_13  and  C_14
REMARK    7  A    between atoms: C_13  and  C_16
REMARK    8  A    between atoms: C_14  and  O_15
REMARK                            x       y       z     vdW  Elec       q    Type
REMARK                         _______ _______ _______ _____ _____    ______ ____
ROOT
ATOM      1  N   UNL     1       7.192  -4.793  23.323  0.00  0.00    -0.297 N 
ATOM      2  C   UNL     1       8.202  -4.931  24.288  0.00  0.00    +0.225 C 
ATOM      3  O   UNL     1       9.074  -5.808  24.181  0.00  0.00    -0.275 OA
ENDROOT
BRANCH   1   5
ATOM      4  C   UNL     1       6.223  -5.518  21.108  0.00  0.00    +0.024 C 
ATOM      5  C   UNL     1       7.267  -5.735  22.195  0.00  0.00    +0.105 C 
ENDBRANCH   1   5
BRANCH   2   6
ATOM      6  C   UNL     1       8.303  -3.923  25.450  0.00  0.00    +0.130 C 
BRANCH   6   7
ATOM      7  C   UNL     1       8.973  -2.615  25.037  0.00  0.00    -0.033 A 
ATOM      8  C   UNL     1       9.760  -2.515  23.877  0.00  0.00    +0.004 A 
ATOM      9  C   UNL     1      10.401  -1.321  23.544  0.00  0.00    +0.000 A 
ATOM     10  C   UNL     1      10.280  -0.210  24.371  0.00  0.00    +0.000 A 
ATOM     11  C   UNL     1       9.520  -0.295  25.535  0.00  0.00    +0.000 A 
ATOM     12  C   UNL     1       8.870  -1.487  25.867  0.00  0.00    +0.004 A 
ENDBRANCH   6   7
BRANCH   6  13
ATOM     13  C   UNL     1       9.047  -4.566  26.644  0.00  0.00    +0.173 C 
BRANCH  13  14
ATOM     14  O   UNL     1       8.392  -5.707  27.193  0.00  0.00    -0.394 OA
ATOM     15  H   UNL     1       8.067  -6.233  26.432  0.00  0.00    +0.209 HD
ENDBRANCH  13  14
ENDBRANCH   6  13
ENDBRANCH   2   6
BRANCH   1  16
ATOM     16  C   UNL     1       5.919  -4.128  23.635  0.00  0.00    +0.143 C 
BRANCH  16  17
ATOM     17  C   UNL     1       5.898  -2.622  23.763  0.00  0.00    -0.027 A 
ATOM     18  C   UNL     1       6.535  -1.796  22.830  0.00  0.00    +0.025 A 
ATOM     19  C   UNL     1       6.589  -0.429  23.073  0.00  0.00    +0.111 A 
ATOM     20  N   UNL     1       6.072   0.162  24.172  0.00  0.00    -0.263 NA
ATOM     21  C   UNL     1       5.470  -0.648  25.066  0.00  0.00    +0.111 A 
ATOM     22  C   UNL     1       5.357  -2.019  24.906  0.00  0.00    +0.025 A 
ENDBRANCH  16  17
ENDBRANCH   1  16
TORSDOF 7
ENDMDL
MODEL 6
REMARK VINA RESULT:      -5.3      2.658      4.116
REMARK  Name = 
REMARK  8 active torsions:
REMARK  status: ('A' for Active; 'I' for Inactive)
REMARK    1  A    between atoms: C_1  and  C_2
REMARK    2  A    between atoms: C_2  and  N_3
REMARK    3  A    between atoms: N_3  and  C_4
REMARK    4  A    between atoms: C_4  and  C_5
REMARK    5  A    between atoms: C_11  and  C_13
REMARK    6  A    between atoms: C_13  and  C_14
REMARK    7  A    between atoms: C_13  and  C_16
REMARK    8  A    between atoms: C_14  and  O_15
REMARK                            x       y       z     vdW  Elec       q    Type
REMARK                         _______ _______ _______ _____ _____    ______ ____
ROOT
ATOM      1  N   UNL     1       7.590  -1.812  25.967  0.00  0.00    -0.297 N 
ATOM      2  C   UNL     1       7.002  -3.031  26.343  0.00  0.00    +0.225 C 
ATOM      3  O   UNL     1       6.079  -3.066  27.172  0.00  0.00    -0.275 OA
ENDROOT
BRANCH   1   5
ATOM      4  C   UNL     1       6.014   0.146  25.751  0.00  0.00    +0.024 C 
ATOM      5  C   UNL     1       7.019  -0.615  26.604  0.00  0.00    +0.105 C 
ENDBRANCH   1   5
BRANCH   2   6
ATOM      6  C   UNL     1       7.428  -4.340  25.652  0.00  0.00    +0.130 C 
BRANCH   6   7
ATOM      7  C   UNL     1       6.949  -4.424  24.204  0.00  0.00    -0.033 A 
ATOM      8  C   UNL     1       7.586  -5.241  23.255  0.00  0.00    +0.004 A 
ATOM      9  C   UNL     1       7.160  -5.266  21.927  0.00  0.00    +0.000 A 
ATOM     10  C   UNL     1       6.100  -4.464  21.519  0.00  0.00    +0.000 A 
ATOM     11  C   UNL     1       5.468  -3.633  22.440  0.00  0.00    +0.000 A 
ATOM     12  C   UNL     1       5.887  -3.611  23.774  0.00  0.00    +0.004 A 
ENDBRANCH   6   7
BRANCH   6  13
ATOM     13  C   UNL     1       6.925  -5.556  26.465  0.00  0.00    +0.173 C 
BRANCH  13  14
ATOM     14  O   UNL     1       7.669  -5.810  27.654  0.00  0.00    -0.394 OA
ATOM     15  H   UNL     1       7.496  -6.744  27.895  0.00  0.00    +0.209 HD
ENDBRANCH  13  14
ENDBRANCH   6  13
ENDBRANCH   2   6
BRANCH   1  16
ATOM     16  C   UNL     1       8.941  -1.759  25.392  0.00  0.00    +0.143 C 
BRANCH  16  17
ATOM     17  C   UNL     1       9.155  -0.994  24.105  0.00  0.00    -0.027 A 
ATOM     18  C   UNL     1       8.945  -1.586  22.854  0.00  0.00    +0.025 A 
ATOM     19  C   UNL     1       9.282  -0.873  21.711  0.00  0.00    +0.111 A 
ATOM     20  N   UNL     1       9.820   0.366  21.727  0.00  0.00    -0.263 NA
ATOM     21  C   UNL     1      10.026   0.918  22.940  0.00  0.00    +0.111 A 
ATOM     22  C   UNL     1       9.712   0.291  24.134  0.00  0.00    +0.025 A 
ENDBRANCH  16  17
ENDBRANCH   1  16
TORSDOF 7
ENDMDL
MODEL 7
REMARK VINA RESULT:      -5.1      3.000      6.082
REMARK  Name = 
REMARK  8 active torsions:
REMARK  status: ('A' for Active; 'I' for Inactive)
REMARK    1  A    between atoms: C_1  and  C_2
REMARK    2  A    between atoms: C_2  and  N_3
REMARK    3  A    between atoms: N_3  and  C_4
REMARK    4  A    between atoms: C_4  and  C_5
REMARK    5  A    between atoms: C_11  and  C_13
REMARK    6  A    between atoms: C_13  and  C_14
REMARK    7  A    between atoms: C_13  and  C_16
REMARK    8  A    between atoms: C_14  and  O_15
REMARK                            x       y       z     vdW  Elec       q    Type
REMARK                         _______ _______ _______ _____ _____    ______ ____
ROOT
ATOM      1  N   UNL     1       7.395  -4.181  23.522  0.00  0.00    -0.297 N 
ATOM      2  C   UNL     1       8.427  -3.338  23.966  0.00  0.00    +0.225 C 
ATOM      3  O   UNL     1       9.618  -3.664  23.839  0.00  0.00    -0.275 OA
ENDROOT
BRANCH   1   5
ATOM      4  C   UNL     1       7.062  -5.826  21.638  0.00  0.00    +0.024 C 
ATOM      5  C   UNL     1       7.834  -5.435  22.891  0.00  0.00    +0.105 C 
ENDBRANCH   1   5
BRANCH   2   6
ATOM      6  C   UNL     1       8.096  -1.942  24.528  0.00  0.00    +0.130 C 
BRANCH   6   7
ATOM      7  C   UNL     1       8.786  -0.819  23.756  0.00  0.00    -0.033 A 
ATOM      8  C   UNL     1       8.567  -0.615  22.384  0.00  0.00    +0.004 A 
ATOM      9  C   UNL     1       9.244   0.389  21.689  0.00  0.00    +0.000 A 
ATOM     10  C   UNL     1      10.162   1.197  22.351  0.00  0.00    +0.000 A 
ATOM     11  C   UNL     1      10.407   0.998  23.707  0.00  0.00    +0.000 A 
ATOM     12  C   UNL     1       9.725  -0.001  24.407  0.00  0.00    +0.004 A 
ENDBRANCH   6   7
BRANCH   6  13
ATOM     13  C   UNL     1       8.461  -1.877  26.030  0.00  0.00    +0.173 C 
BRANCH  13  14
ATOM     14  O   UNL     1       8.734  -3.146  26.618  0.00  0.00    -0.394 OA
ATOM     15  H   UNL     1       9.674  -3.346  26.423  0.00  0.00    +0.209 HD
ENDBRANCH  13  14
ENDBRANCH   6  13
ENDBRANCH   2   6
BRANCH   1  16
ATOM     16  C   UNL     1       6.032  -4.072  24.062  0.00  0.00    +0.143 C 
BRANCH  16  17
ATOM     17  C   UNL     1       5.526  -5.159  24.983  0.00  0.00    -0.027 A 
ATOM     18  C   UNL     1       4.598  -6.114  24.552  0.00  0.00    +0.025 A 
ATOM     19  C   UNL     1       4.075  -7.006  25.479  0.00  0.00    +0.111 A 
ATOM     20  N   UNL     1       4.396  -7.004  26.791  0.00  0.00    -0.263 NA
ATOM     21  C   UNL     1       5.284  -6.071  27.193  0.00  0.00    +0.111 A 
ATOM     22  C   UNL     1       5.867  -5.148  26.341  0.00  0.00    +0.025 A 
ENDBRANCH  16  17
ENDBRANCH   1  16
TORSDOF 7
ENDMDL
MODEL 8
REMARK VINA RESULT:      -5.0      3.637      6.196
REMARK  Name = 
REMARK  8 active torsions:
REMARK  status: ('A' for Active; 'I' for Inactive)
REMARK    1  A    between atoms: C_1  and  C_2
REMARK    2  A    between atoms: C_2  and  N_3
REMARK    3  A    between atoms: N_3  and  C_4
REMARK    4  A    between atoms: C_4  and  C_5
REMARK    5  A    between atoms: C_11  and  C_13
REMARK    6  A    between atoms: C_13  and  C_14
REMARK    7  A    between atoms: C_13  and  C_16
REMARK    8  A    between atoms: C_14  and  O_15
REMARK                            x       y       z     vdW  Elec       q    Type
REMARK                         _______ _______ _______ _____ _____    ______ ____
ROOT
ATOM      1  N   UNL     1       8.587  -2.673  23.894  0.00  0.00    -0.297 N 
ATOM      2  C   UNL     1       8.068  -1.626  24.673  0.00  0.00    +0.225 C 
ATOM      3  O   UNL     1       8.209  -1.616  25.906  0.00  0.00    -0.275 OA
ENDROOT
BRANCH   1   5
ATOM      4  C   UNL     1       8.434  -4.824  25.204  0.00  0.00    +0.024 C 
ATOM      5  C   UNL     1       9.310  -3.713  24.640  0.00  0.00    +0.105 C 
ENDBRANCH   1   5
BRANCH   2   6
ATOM      6  C   UNL     1       7.400  -0.415  23.993  0.00  0.00    +0.130 C 
BRANCH   6   7
ATOM      7  C   UNL     1       8.406   0.656  23.579  0.00  0.00    -0.033 A 
ATOM      8  C   UNL     1       8.978   0.684  22.297  0.00  0.00    +0.004 A 
ATOM      9  C   UNL     1       9.931   1.646  21.955  0.00  0.00    +0.000 A 
ATOM     10  C   UNL     1      10.339   2.586  22.895  0.00  0.00    +0.000 A 
ATOM     11  C   UNL     1       9.799   2.563  24.177  0.00  0.00    +0.000 A 
ATOM     12  C   UNL     1       8.838   1.606  24.519  0.00  0.00    +0.004 A 
ENDBRANCH   6   7
BRANCH   6  13
ATOM     13  C   UNL     1       6.317   0.182  24.923  0.00  0.00    +0.173 C 
BRANCH  13  14
ATOM     14  O   UNL     1       5.307   0.922  24.241  0.00  0.00    -0.394 OA
ATOM     15  H   UNL     1       5.632   1.057  23.326  0.00  0.00    +0.209 HD
ENDBRANCH  13  14
ENDBRANCH   6  13
ENDBRANCH   2   6
BRANCH   1  16
ATOM     16  C   UNL     1       8.053  -2.970  22.557  0.00  0.00    +0.143 C 
BRANCH  16  17
ATOM     17  C   UNL     1       6.811  -3.825  22.443  0.00  0.00    -0.027 A 
ATOM     18  C   UNL     1       5.611  -3.464  23.067  0.00  0.00    +0.025 A 
ATOM     19  C   UNL     1       4.545  -4.354  23.031  0.00  0.00    +0.111 A 
ATOM     20  N   UNL     1       4.595  -5.567  22.439  0.00  0.00    -0.263 NA
ATOM     21  C   UNL     1       5.761  -5.904  21.852  0.00  0.00    +0.111 A 
ATOM     22  C   UNL     1       6.874  -5.080  21.825  0.00  0.00    +0.025 A 
ENDBRANCH  16  17
ENDBRANCH   1  16
TORSDOF 7
ENDMDL
MODEL 9
REMARK VINA RESULT:      -4.9      7.551      9.922
REMARK  Name = 
REMARK  8 active torsions:
REMARK  status: ('A' for Active; 'I' for Inactive)
REMARK    1  A    between atoms: C_1  and  C_2
REMARK    2  A    between atoms: C_2  and  N_3
REMARK    3  A    between atoms: N_3  and  C_4
REMARK    4  A    between atoms: C_4  and  C_5
REMARK    5  A    between atoms: C_11  and  C_13
REMARK    6  A    between atoms: C_13  and  C_14
REMARK    7  A    between atoms: C_13  and  C_16
REMARK    8  A    between atoms: C_14  and  O_15
REMARK                            x       y       z     vdW  Elec       q    Type
REMARK                         _______ _______ _______ _____ _____    ______ ____
ROOT
ATOM      1  N   UNL     1       7.789   4.785  23.023  0.00  0.00    -0.297 N 
ATOM      2  C   UNL     1       7.071   3.579  23.068  0.00  0.00    +0.225 C 
ATOM      3  O   UNL     1       6.143   3.358  22.274  0.00  0.00    -0.275 OA
ENDROOT
BRANCH   1   5
ATOM      4  C   UNL     1       6.974   7.108  22.470  0.00  0.00    +0.024 C 
ATOM      5  C   UNL     1       7.373   5.726  21.971  0.00  0.00    +0.105 C 
ENDBRANCH   1   5
BRANCH   2   6
ATOM      6  C   UNL     1       7.495   2.463  24.042  0.00  0.00    +0.130 C 
BRANCH   6   7
ATOM      7  C   UNL     1       8.313   1.368  23.363  0.00  0.00    -0.033 A 
ATOM      8  C   UNL     1       8.725   1.469  22.023  0.00  0.00    +0.004 A 
ATOM      9  C   UNL     1       9.433   0.434  21.409  0.00  0.00    +0.000 A 
ATOM     10  C   UNL     1       9.728  -0.725  22.118  0.00  0.00    +0.000 A 
ATOM     11  C   UNL     1       9.311  -0.853  23.440  0.00  0.00    +0.000 A 
ATOM     12  C   UNL     1       8.609   0.185  24.060  0.00  0.00    +0.004 A 
ENDBRANCH   6   7
BRANCH   6  13
ATOM     13  C   UNL     1       6.248   1.864  24.735  0.00  0.00    +0.173 C 
BRANCH  13  14
ATOM     14  O   UNL     1       5.300   1.293  23.836  0.00  0.00    -0.394 OA
ATOM     15  H   UNL     1       5.033   2.009  23.223  0.00  0.00    +0.209 HD
ENDBRANCH  13  14
ENDBRANCH   6  13
ENDBRANCH   2   6
BRANCH   1  16
ATOM     16  C   UNL     1       8.533   5.277  24.191  0.00  0.00    +0.143 C 
BRANCH  16  17
ATOM     17  C   UNL     1      10.044   5.300  24.135  0.00  0.00    -0.027 A 
ATOM     18  C   UNL     1      10.780   6.387  24.621  0.00  0.00    +0.025 A 
ATOM     19  C   UNL     1      12.155   6.405  24.425  0.00  0.00    +0.111 A 
ATOM     20  N   UNL     1      12.836   5.437  23.774  0.00  0.00    -0.263 NA
ATOM     21  C   UNL     1      12.111   4.402  23.303  0.00  0.00    +0.111 A 
ATOM     22  C   UNL     1      10.740   4.290  23.460  0.00  0.00    +0.025 A 
ENDBRANCH  16  17
ENDBRANCH   1  16
TORSDOF 7
ENDMDL
