MODEL 1
REMARK VINA RESULT:      -6.4      0.000      0.000
REMARK  Name = 
REMARK  29 active torsions:
REMARK  status: ('A' for Active; 'I' for Inactive)
REMARK    1  A    between atoms: C_1  and  C_2
REMARK    2  A    between atoms: C_2  and  C_3
REMARK    3  A    between atoms: C_2  and  C_4
REMARK    4  A    between atoms: C_2  and  C_40
REMARK    5  A    between atoms: C_4  and  O_5
REMARK    6  A    between atoms: O_5  and  P_6
REMARK    7  A    between atoms: P_6  and  O_7
REMARK    8  A    between atoms: P_6  and  O_9
REMARK    9  A    between atoms: O_9  and  P_10
REMARK   10  A    between atoms: P_10  and  O_11
REMARK   11  A    between atoms: P_10  and  O_13
REMARK   12  A    between atoms: O_13  and  C_14
REMARK   13  A    between atoms: C_14  and  C_15
REMARK   14  A    between atoms: C_18  and  N_30
REMARK   15  A    between atoms: C_20  and  O_22
REMARK   16  A    between atoms: C_23  and  O_25
REMARK   17  A    between atoms: O_25  and  P_26
REMARK   18  A    between atoms: P_26  and  O_27
REMARK   19  A    between atoms: P_26  and  O_28
REMARK   20  A    between atoms: C_40  and  O_42
REMARK   21  A    between atoms: C_40  and  C_43
REMARK   22  A    between atoms: N_45  and  C_46
REMARK   23  A    between atoms: C_46  and  C_47
REMARK   24  A    between atoms: C_47  and  C_48
REMARK   25  A    between atoms: N_50  and  C_51
REMARK   26  A    between atoms: C_51  and  C_52
REMARK   27  A    between atoms: C_52  and  C_53
REMARK   28  A    between atoms: C_53  and  C_56
REMARK   29  A    between atoms: C_56  and  O_57
REMARK                            x       y       z     vdW  Elec       q    Type
REMARK                         _______ _______ _______ _____ _____    ______ ____
ROOT
ATOM      1  P   UNL     1       6.951  -5.489  23.141  0.00  0.00    +0.483 P 
ATOM      2  O   UNL     1       7.216  -6.386  21.930  0.00  0.00    -0.227 OA
ENDROOT
BRANCH   1   3
ATOM      3  O   UNL     1       6.992  -3.970  22.545  0.00  0.00    -0.302 OA
ATOM      4  H   UNL     1       7.178  -3.352  23.276  0.00  0.00    +0.222 HD
ENDBRANCH   1   3
BRANCH   1   5
ATOM      5  O   UNL     1       8.665  -5.447  23.366  0.00  0.00    -0.186 OA
BRANCH   5   6
ATOM      6  P   UNL     1       9.122  -4.410  24.491  0.00  0.00    +0.483 P 
ATOM      7  O   UNL     1      10.150  -4.930  25.436  0.00  0.00    -0.227 OA
BRANCH   6   8
ATOM      8  O   UNL     1       7.750  -4.001  25.223  0.00  0.00    -0.302 OA
ATOM      9  H   UNL     1       7.699  -4.393  26.115  0.00  0.00    +0.222 HD
ENDBRANCH   6   8
BRANCH   6  10
ATOM     10  O   UNL     1       9.528  -3.063  23.717  0.00  0.00    -0.286 OA
BRANCH  10  11
ATOM     11  C   UNL     1       9.448  -1.852  24.451  0.00  0.00    +0.181 C 
BRANCH  11  13
ATOM     12  C   UNL     1       9.620   0.659  24.335  0.00  0.00    +0.016 C 
ATOM     13  C   UNL     1       9.240  -0.618  23.549  0.00  0.00    +0.024 C 
ATOM     14  C   UNL     1      10.170  -0.679  22.322  0.00  0.00    +0.016 C 
BRANCH  13  15
ATOM     15  C   UNL     1       7.730  -0.582  23.142  0.00  0.00    +0.208 C 
BRANCH  15  16
ATOM     16  C   UNL     1       7.135   0.849  23.271  0.00  0.00    +0.242 C 
ATOM     17  N   UNL     1       6.267   1.007  24.342  0.00  0.00    -0.313 N 
ATOM     18  H   UNL     1       6.507   0.482  25.174  0.00  0.00    +0.149 HD
ATOM     19  O   UNL     1       7.348   1.744  22.460  0.00  0.00    -0.273 OA
BRANCH  17  20
ATOM     20  C   UNL     1       5.622   2.297  24.563  0.00  0.00    +0.113 C 
BRANCH  20  21
ATOM     21  C   UNL     1       6.395   3.176  25.538  0.00  0.00    +0.114 C 
BRANCH  21  22
ATOM     22  C   UNL     1       7.020   4.340  24.812  0.00  0.00    +0.215 C 
ATOM     23  N   UNL     1       8.302   4.109  24.363  0.00  0.00    -0.315 N 
ATOM     24  H   UNL     1       8.795   3.268  24.648  0.00  0.00    +0.149 HD
ATOM     25  O   UNL     1       6.406   5.375  24.575  0.00  0.00    -0.276 OA
BRANCH  23  26
ATOM     26  C   UNL     1       9.003   5.083  23.547  0.00  0.00    +0.107 C 
BRANCH  26  27
ATOM     27  C   UNL     1      10.408   5.387  24.064  0.00  0.00    +0.067 C 
BRANCH  27  28
ATOM     28  C   UNL     1      11.472   4.650  23.260  0.00  0.00    +0.275 C 
ATOM     29  F   UNL     1      11.543   3.355  23.703  0.00  0.00    -0.233 F 
BRANCH  28  30
ATOM     30  C   UNL     1      12.833   5.309  23.390  0.00  0.00    +0.339 C 
ATOM     31  O   UNL     1      13.767   5.149  22.619  0.00  0.00    -0.248 OA
BRANCH  30  32
ATOM     32  O   UNL     1      12.887   6.151  24.453  0.00  0.00    -0.479 OA
ATOM     33  H   UNL     1      13.740   6.641  24.463  0.00  0.00    +0.295 HD
ENDBRANCH  30  32
ENDBRANCH  28  30
ENDBRANCH  27  28
ENDBRANCH  26  27
ENDBRANCH  23  26
ENDBRANCH  21  22
ENDBRANCH  20  21
ENDBRANCH  17  20
ENDBRANCH  15  16
BRANCH  15  34
ATOM     34  O   UNL     1       6.947  -1.507  23.883  0.00  0.00    -0.382 OA
ATOM     35  H   UNL     1       6.044  -1.507  23.528  0.00  0.00    +0.210 HD
ENDBRANCH  15  34
ENDBRANCH  13  15
ENDBRANCH  11  13
ENDBRANCH  10  11
ENDBRANCH   6  10
ENDBRANCH   5   6
ENDBRANCH   1   5
BRANCH   1  36
ATOM     36  O   UNL     1       5.236  -5.530  22.917  0.00  0.00    -0.284 OA
BRANCH  36  37
ATOM     37  C   UNL     1       4.576  -4.255  22.964  0.00  0.00    +0.206 C 
BRANCH  37  38
ATOM     38  C   UNL     1       3.648  -4.146  24.158  0.00  0.00    +0.179 C 
ATOM     39  C   UNL     1       3.860  -5.309  25.124  0.00  0.00    +0.194 C 
ATOM     40  C   UNL     1       4.516  -4.664  26.351  0.00  0.00    +0.196 C 
ATOM     41  C   UNL     1       4.834  -3.229  25.908  0.00  0.00    +0.253 C 
ATOM     42  O   UNL     1       3.922  -2.926  24.843  0.00  0.00    -0.346 OA
BRANCH  41  43
ATOM     43  N   UNL     1       4.674  -2.219  26.933  0.00  0.00    -0.286 N 
ATOM     44  C   UNL     1       5.589  -1.261  27.265  0.00  0.00    +0.167 A 
ATOM     45  N   UNL     1       6.844  -1.121  26.803  0.00  0.00    -0.216 NA
ATOM     46  C   UNL     1       7.431  -0.040  27.372  0.00  0.00    +0.225 A 
ATOM     47  N   UNL     1       6.917   0.825  28.278  0.00  0.00    -0.219 NA
ATOM     48  C   UNL     1       5.643   0.642  28.697  0.00  0.00    +0.147 A 
ATOM     49  N   UNL     1       5.096   1.532  29.607  0.00  0.00    -0.341 N 
ATOM     50  H   UNL     1       4.292   1.153  30.100  0.00  0.00    +0.144 HD
ATOM     51  H   UNL     1       5.804   2.008  30.148  0.00  0.00    +0.144 HD
ATOM     52  C   UNL     1       4.935  -0.457  28.185  0.00  0.00    +0.147 A 
ATOM     53  N   UNL     1       3.662  -0.916  28.433  0.00  0.00    -0.231 NA
ATOM     54  C   UNL     1       3.535  -1.967  27.653  0.00  0.00    +0.203 A 
ENDBRANCH  41  43
BRANCH  40  55
ATOM     55  O   UNL     1       5.710  -5.379  26.695  0.00  0.00    -0.385 OA
ATOM     56  H   UNL     1       6.432  -5.019  26.138  0.00  0.00    +0.210 HD
ENDBRANCH  40  55
BRANCH  39  57
ATOM     57  O   UNL     1       2.601  -5.894  25.472  0.00  0.00    -0.278 OA
BRANCH  57  58
ATOM     58  P   UNL     1       2.442  -7.582  25.130  0.00  0.00    +0.473 P 
ATOM     59  O   UNL     1       2.301  -9.093  24.822  0.00  0.00    -0.228 OA
BRANCH  58  60
ATOM     60  O   UNL     1       1.972  -7.090  23.644  0.00  0.00    -0.303 OA
ATOM     61  H   UNL     1       1.266  -6.425  23.689  0.00  0.00    +0.222 HD
ENDBRANCH  58  60
BRANCH  58  62
ATOM     62  O   UNL     1       4.050  -7.535  24.839  0.00  0.00    -0.303 OA
ATOM     63  H   UNL     1       4.563  -7.151  25.566  0.00  0.00    +0.222 HD
ENDBRANCH  58  62
ENDBRANCH  57  58
ENDBRANCH  39  57
ENDBRANCH  37  38
ENDBRANCH  36  37
ENDBRANCH   1  36
TORSDOF 27
ENDMDL
MODEL 2
REMARK VINA RESULT:      -6.4      2.096      3.693
REMARK  Name = 
REMARK  29 active torsions:
REMARK  status: ('A' for Active; 'I' for Inactive)
REMARK    1  A    between atoms: C_1  and  C_2
REMARK    2  A    between atoms: C_2  and  C_3
REMARK    3  A    between atoms: C_2  and  C_4
REMARK    4  A    between atoms: C_2  and  C_40
REMARK    5  A    between atoms: C_4  and  O_5
REMARK    6  A    between atoms: O_5  and  P_6
REMARK    7  A    between atoms: P_6  and  O_7
REMARK    8  A    between atoms: P_6  and  O_9
REMARK    9  A    between atoms: O_9  and  P_10
REMARK   10  A    between atoms: P_10  and  O_11
REMARK   11  A    between atoms: P_10  and  O_13
REMARK   12  A    between atoms: O_13  and  C_14
REMARK   13  A    between atoms: C_14  and  C_15
REMARK   14  A    between atoms: C_18  and  N_30
REMARK   15  A    between atoms: C_20  and  O_22
REMARK   16  A    between atoms: C_23  and  O_25
REMARK   17  A    between atoms: O_25  and  P_26
REMARK   18  A    between atoms: P_26  and  O_27
REMARK   19  A    between atoms: P_26  and  O_28
REMARK   20  A    between atoms: C_40  and  O_42
REMARK   21  A    between atoms: C_40  and  C_43
REMARK   22  A    between atoms: N_45  and  C_46
REMARK   23  A    between atoms: C_46  and  C_47
REMARK   24  A    between atoms: C_47  and  C_48
REMARK   25  A    between atoms: N_50  and  C_51
REMARK   26  A    between atoms: C_51  and  C_52
REMARK   27  A    between atoms: C_52  and  C_53
REMARK   28  A    between atoms: C_53  and  C_56
REMARK   29  A    between atoms: C_56  and  O_57
REMARK                            x       y       z     vdW  Elec       q    Type
REMARK                         _______ _______ _______ _____ _____    ______ ____
ROOT
ATOM      1  P   UNL     1       7.102  -4.341  22.848  0.00  0.00    +0.483 P 
ATOM      2  O   UNL     1       7.259  -4.959  21.458  0.00  0.00    -0.227 OA
ENDROOT
BRANCH   1   3
ATOM      3  O   UNL     1       5.849  -3.304  22.699  0.00  0.00    -0.302 OA
ATOM      4  H   UNL     1       5.719  -2.847  23.550  0.00  0.00    +0.222 HD
ENDBRANCH   1   3
BRANCH   1   5
ATOM      5  O   UNL     1       8.189  -3.105  22.318  0.00  0.00    -0.186 OA
BRANCH   5   6
ATOM      6  P   UNL     1       9.021  -2.451  23.514  0.00  0.00    +0.483 P 
ATOM      7  O   UNL     1       9.908  -3.399  24.245  0.00  0.00    -0.227 OA
BRANCH   6   8
ATOM      8  O   UNL     1       7.898  -1.792  24.455  0.00  0.00    -0.302 OA
ATOM      9  H   UNL     1       7.435  -1.068  23.994  0.00  0.00    +0.222 HD
ENDBRANCH   6   8
BRANCH   6  10
ATOM     10  O   UNL     1       9.762  -1.169  22.891  0.00  0.00    -0.286 OA
BRANCH  10  11
ATOM     11  C   UNL     1       9.046   0.055  22.905  0.00  0.00    +0.181 C 
BRANCH  11  13
ATOM     12  C   UNL     1       8.871   1.865  24.650  0.00  0.00    +0.016 C 
ATOM     13  C   UNL     1       9.809   1.188  23.624  0.00  0.00    +0.024 C 
ATOM     14  C   UNL     1      11.002   0.619  24.418  0.00  0.00    +0.016 C 
BRANCH  13  15
ATOM     15  C   UNL     1      10.263   2.214  22.535  0.00  0.00    +0.208 C 
BRANCH  15  16
ATOM     16  C   UNL     1      10.750   3.547  23.171  0.00  0.00    +0.242 C 
ATOM     17  N   UNL     1       9.781   4.538  23.223  0.00  0.00    -0.313 N 
ATOM     18  H   UNL     1       8.837   4.211  23.394  0.00  0.00    +0.149 HD
ATOM     19  O   UNL     1      11.908   3.740  23.529  0.00  0.00    -0.273 OA
BRANCH  17  20
ATOM     20  C   UNL     1      10.115   5.846  23.777  0.00  0.00    +0.113 C 
BRANCH  20  21
ATOM     21  C   UNL     1       8.942   6.816  23.727  0.00  0.00    +0.114 C 
BRANCH  21  22
ATOM     22  C   UNL     1       7.723   6.197  24.361  0.00  0.00    +0.215 C 
ATOM     23  N   UNL     1       6.527   6.584  23.793  0.00  0.00    -0.315 N 
ATOM     24  H   UNL     1       6.511   7.333  23.109  0.00  0.00    +0.149 HD
ATOM     25  O   UNL     1       7.798   5.360  25.255  0.00  0.00    -0.276 OA
BRANCH  23  26
ATOM     26  C   UNL     1       5.269   5.992  24.209  0.00  0.00    +0.107 C 
BRANCH  26  27
ATOM     27  C   UNL     1       4.654   5.094  23.137  0.00  0.00    +0.067 C 
BRANCH  27  28
ATOM     28  C   UNL     1       4.995   3.628  23.372  0.00  0.00    +0.275 C 
ATOM     29  F   UNL     1       5.402   3.470  24.671  0.00  0.00    -0.233 F 
BRANCH  28  30
ATOM     30  C   UNL     1       6.084   3.146  22.432  0.00  0.00    +0.339 C 
ATOM     31  O   UNL     1       6.317   1.977  22.167  0.00  0.00    -0.248 OA
BRANCH  30  32
ATOM     32  O   UNL     1       6.759   4.180  21.868  0.00  0.00    -0.479 OA
ATOM     33  H   UNL     1       6.259   4.540  21.100  0.00  0.00    +0.295 HD
ENDBRANCH  30  32
ENDBRANCH  28  30
ENDBRANCH  27  28
ENDBRANCH  26  27
ENDBRANCH  23  26
ENDBRANCH  21  22
ENDBRANCH  20  21
ENDBRANCH  17  20
ENDBRANCH  15  16
BRANCH  15  34
ATOM     34  O   UNL     1       9.247   2.471  21.575  0.00  0.00    -0.382 OA
ATOM     35  H   UNL     1       8.946   3.387  21.678  0.00  0.00    +0.210 HD
ENDBRANCH  15  34
ENDBRANCH  13  15
ENDBRANCH  11  13
ENDBRANCH  10  11
ENDBRANCH   6  10
ENDBRANCH   5   6
ENDBRANCH   1   5
BRANCH   1  36
ATOM     36  O   UNL     1       6.015  -5.578  23.380  0.00  0.00    -0.284 OA
BRANCH  36  37
ATOM     37  C   UNL     1       4.697  -5.130  23.735  0.00  0.00    +0.206 C 
BRANCH  37  38
ATOM     38  C   UNL     1       4.482  -5.148  25.236  0.00  0.00    +0.179 C 
ATOM     39  C   UNL     1       5.775  -5.495  25.969  0.00  0.00    +0.194 C 
ATOM     40  C   UNL     1       6.179  -4.187  26.659  0.00  0.00    +0.196 C 
ATOM     41  C   UNL     1       5.216  -3.137  26.089  0.00  0.00    +0.253 C 
ATOM     42  O   UNL     1       4.053  -3.854  25.653  0.00  0.00    -0.346 OA
BRANCH  41  43
ATOM     43  N   UNL     1       4.787  -2.120  27.027  0.00  0.00    -0.286 N 
ATOM     44  C   UNL     1       5.507  -1.022  27.403  0.00  0.00    +0.167 A 
ATOM     45  N   UNL     1       6.774  -0.713  27.079  0.00  0.00    -0.216 NA
ATOM     46  C   UNL     1       7.125   0.468  27.646  0.00  0.00    +0.225 A 
ATOM     47  N   UNL     1       6.384   1.281  28.435  0.00  0.00    -0.219 NA
ATOM     48  C   UNL     1       5.110   0.926  28.715  0.00  0.00    +0.147 A 
ATOM     49  N   UNL     1       4.332   1.760  29.502  0.00  0.00    -0.341 N 
ATOM     50  H   UNL     1       3.538   1.286  29.923  0.00  0.00    +0.144 HD
ATOM     51  H   UNL     1       4.893   2.360  30.091  0.00  0.00    +0.144 HD
ATOM     52  C   UNL     1       4.636  -0.288  28.193  0.00  0.00    +0.147 A 
ATOM     53  N   UNL     1       3.422  -0.923  28.321  0.00  0.00    -0.231 NA
ATOM     54  C   UNL     1       3.545  -2.014  27.596  0.00  0.00    +0.203 A 
ENDBRANCH  41  43
BRANCH  40  55
ATOM     55  O   UNL     1       7.541  -3.871  26.341  0.00  0.00    -0.385 OA
ATOM     56  H   UNL     1       8.065  -4.689  26.478  0.00  0.00    +0.210 HD
ENDBRANCH  40  55
BRANCH  39  57
ATOM     57  O   UNL     1       5.530  -6.522  26.936  0.00  0.00    -0.278 OA
BRANCH  57  58
ATOM     58  P   UNL     1       5.901  -6.108  28.574  0.00  0.00    +0.473 P 
ATOM     59  O   UNL     1       6.235  -5.738  30.040  0.00  0.00    -0.228 OA
BRANCH  58  60
ATOM     60  O   UNL     1       5.515  -7.661  28.904  0.00  0.00    -0.303 OA
ATOM     61  H   UNL     1       5.527  -7.842  29.858  0.00  0.00    +0.222 HD
ENDBRANCH  58  60
BRANCH  58  62
ATOM     62  O   UNL     1       7.454  -6.391  28.150  0.00  0.00    -0.303 OA
ATOM     63  H   UNL     1       7.545  -6.976  27.383  0.00  0.00    +0.222 HD
ENDBRANCH  58  62
ENDBRANCH  57  58
ENDBRANCH  39  57
ENDBRANCH  37  38
ENDBRANCH  36  37
ENDBRANCH   1  36
TORSDOF 27
ENDMDL
MODEL 3
REMARK VINA RESULT:      -6.3      2.579      6.784
REMARK  Name = 
REMARK  29 active torsions:
REMARK  status: ('A' for Active; 'I' for Inactive)
REMARK    1  A    between atoms: C_1  and  C_2
REMARK    2  A    between atoms: C_2  and  C_3
REMARK    3  A    between atoms: C_2  and  C_4
REMARK    4  A    between atoms: C_2  and  C_40
REMARK    5  A    between atoms: C_4  and  O_5
REMARK    6  A    between atoms: O_5  and  P_6
REMARK    7  A    between atoms: P_6  and  O_7
REMARK    8  A    between atoms: P_6  and  O_9
REMARK    9  A    between atoms: O_9  and  P_10
REMARK   10  A    between atoms: P_10  and  O_11
REMARK   11  A    between atoms: P_10  and  O_13
REMARK   12  A    between atoms: O_13  and  C_14
REMARK   13  A    between atoms: C_14  and  C_15
REMARK   14  A    between atoms: C_18  and  N_30
REMARK   15  A    between atoms: C_20  and  O_22
REMARK   16  A    between atoms: C_23  and  O_25
REMARK   17  A    between atoms: O_25  and  P_26
REMARK   18  A    between atoms: P_26  and  O_27
REMARK   19  A    between atoms: P_26  and  O_28
REMARK   20  A    between atoms: C_40  and  O_42
REMARK   21  A    between atoms: C_40  and  C_43
REMARK   22  A    between atoms: N_45  and  C_46
REMARK   23  A    between atoms: C_46  and  C_47
REMARK   24  A    between atoms: C_47  and  C_48
REMARK   25  A    between atoms: N_50  and  C_51
REMARK   26  A    between atoms: C_51  and  C_52
REMARK   27  A    between atoms: C_52  and  C_53
REMARK   28  A    between atoms: C_53  and  C_56
REMARK   29  A    between atoms: C_56  and  O_57
REMARK                            x       y       z     vdW  Elec       q    Type
REMARK                         _______ _______ _______ _____ _____    ______ ____
ROOT
ATOM      1  P   UNL     1       5.017  -5.141  23.678  0.00  0.00    +0.483 P 
ATOM      2  O   UNL     1       3.962  -4.907  22.595  0.00  0.00    -0.227 OA
ENDROOT
BRANCH   1   3
ATOM      3  O   UNL     1       5.669  -6.592  23.310  0.00  0.00    -0.302 OA
ATOM      4  H   UNL     1       6.640  -6.501  23.286  0.00  0.00    +0.222 HD
ENDBRANCH   1   3
BRANCH   1   5
ATOM      5  O   UNL     1       3.774  -5.930  24.585  0.00  0.00    -0.186 OA
BRANCH   5   6
ATOM      6  P   UNL     1       2.584  -4.948  24.999  0.00  0.00    +0.483 P 
ATOM      7  O   UNL     1       1.338  -5.111  24.199  0.00  0.00    -0.227 OA
BRANCH   6   8
ATOM      8  O   UNL     1       3.227  -3.481  24.864  0.00  0.00    -0.302 OA
ATOM      9  H   UNL     1       3.750  -3.402  24.045  0.00  0.00    +0.222 HD
ENDBRANCH   6   8
BRANCH   6  10
ATOM     10  O   UNL     1       2.402  -5.113  26.586  0.00  0.00    -0.286 OA
BRANCH  10  11
ATOM     11  C   UNL     1       2.439  -6.434  27.101  0.00  0.00    +0.181 C 
BRANCH  11  13
ATOM     12  C   UNL     1       2.869  -5.253  29.286  0.00  0.00    +0.016 C 
ATOM     13  C   UNL     1       3.165  -6.526  28.459  0.00  0.00    +0.024 C 
ATOM     14  C   UNL     1       2.637  -7.721  29.277  0.00  0.00    +0.016 C 
BRANCH  13  15
ATOM     15  C   UNL     1       4.697  -6.645  28.166  0.00  0.00    +0.208 C 
BRANCH  15  16
ATOM     16  C   UNL     1       5.419  -5.277  28.324  0.00  0.00    +0.242 C 
ATOM     17  N   UNL     1       5.340  -4.462  27.204  0.00  0.00    -0.313 N 
ATOM     18  H   UNL     1       4.469  -4.518  26.689  0.00  0.00    +0.149 HD
ATOM     19  O   UNL     1       6.068  -4.967  29.318  0.00  0.00    -0.273 OA
BRANCH  17  20
ATOM     20  C   UNL     1       5.995  -3.158  27.213  0.00  0.00    +0.113 C 
BRANCH  20  21
ATOM     21  C   UNL     1       5.041  -2.029  27.578  0.00  0.00    +0.114 C 
BRANCH  21  22
ATOM     22  C   UNL     1       5.057  -0.964  26.512  0.00  0.00    +0.215 C 
ATOM     23  N   UNL     1       5.837   0.132  26.814  0.00  0.00    -0.315 N 
ATOM     24  H   UNL     1       6.227   0.235  27.745  0.00  0.00    +0.149 HD
ATOM     25  O   UNL     1       4.485  -1.100  25.435  0.00  0.00    -0.276 OA
BRANCH  23  26
ATOM     26  C   UNL     1       6.052   1.194  25.847  0.00  0.00    +0.107 C 
BRANCH  26  27
ATOM     27  C   UNL     1       5.832   2.585  26.438  0.00  0.00    +0.067 C 
BRANCH  27  28
ATOM     28  C   UNL     1       7.119   3.159  27.018  0.00  0.00    +0.275 C 
ATOM     29  F   UNL     1       7.270   2.697  28.300  0.00  0.00    -0.233 F 
BRANCH  28  30
ATOM     30  C   UNL     1       7.109   4.676  27.019  0.00  0.00    +0.339 C 
ATOM     31  O   UNL     1       6.703   5.376  26.105  0.00  0.00    -0.248 OA
BRANCH  30  32
ATOM     32  O   UNL     1       7.567   5.183  28.192  0.00  0.00    -0.479 OA
ATOM     33  H   UNL     1       7.426   6.157  28.226  0.00  0.00    +0.295 HD
ENDBRANCH  30  32
ENDBRANCH  28  30
ENDBRANCH  27  28
ENDBRANCH  26  27
ENDBRANCH  23  26
ENDBRANCH  21  22
ENDBRANCH  20  21
ENDBRANCH  17  20
ENDBRANCH  15  16
BRANCH  15  34
ATOM     34  O   UNL     1       4.963  -7.194  26.883  0.00  0.00    -0.382 OA
ATOM     35  H   UNL     1       4.306  -6.855  26.256  0.00  0.00    +0.210 HD
ENDBRANCH  15  34
ENDBRANCH  13  15
ENDBRANCH  11  13
ENDBRANCH  10  11
ENDBRANCH   6  10
ENDBRANCH   5   6
ENDBRANCH   1   5
BRANCH   1  36
ATOM     36  O   UNL     1       6.261  -4.352  22.772  0.00  0.00    -0.284 OA
BRANCH  36  37
ATOM     37  C   UNL     1       6.323  -2.925  22.921  0.00  0.00    +0.206 C 
BRANCH  37  38
ATOM     38  C   UNL     1       7.473  -2.501  23.812  0.00  0.00    +0.179 C 
ATOM     39  C   UNL     1       8.806  -2.999  23.258  0.00  0.00    +0.194 C 
ATOM     40  C   UNL     1       9.513  -1.725  22.778  0.00  0.00    +0.196 C 
ATOM     41  C   UNL     1       8.445  -0.627  22.887  0.00  0.00    +0.253 C 
ATOM     42  O   UNL     1       7.507  -1.077  23.874  0.00  0.00    -0.346 OA
BRANCH  41  43
ATOM     43  N   UNL     1       8.937   0.671  23.298  0.00  0.00    -0.286 N 
ATOM     44  C   UNL     1       8.359   1.875  23.011  0.00  0.00    +0.167 A 
ATOM     45  N   UNL     1       7.303   2.117  22.215  0.00  0.00    -0.216 NA
ATOM     46  C   UNL     1       7.032   3.445  22.192  0.00  0.00    +0.225 A 
ATOM     47  N   UNL     1       7.670   4.450  22.836  0.00  0.00    -0.219 NA
ATOM     48  C   UNL     1       8.717   4.146  23.635  0.00  0.00    +0.147 A 
ATOM     49  N   UNL     1       9.366   5.162  24.317  0.00  0.00    -0.341 N 
ATOM     50  H   UNL     1      10.303   4.907  24.617  0.00  0.00    +0.144 HD
ATOM     51  H   UNL     1       9.238   6.061  23.874  0.00  0.00    +0.144 HD
ATOM     52  C   UNL     1       9.103   2.799  23.729  0.00  0.00    +0.147 A 
ATOM     53  N   UNL     1      10.123   2.189  24.421  0.00  0.00    -0.231 NA
ATOM     54  C   UNL     1       9.984   0.910  24.150  0.00  0.00    +0.203 A 
ENDBRANCH  41  43
BRANCH  40  55
ATOM     55  O   UNL     1       9.950  -1.893  21.423  0.00  0.00    -0.385 OA
ATOM     56  H   UNL     1      10.673  -1.248  21.272  0.00  0.00    +0.210 HD
ENDBRANCH  40  55
BRANCH  39  57
ATOM     57  O   UNL     1       9.561  -3.636  24.293  0.00  0.00    -0.278 OA
BRANCH  57  58
ATOM     58  P   UNL     1       8.703  -4.815  25.224  0.00  0.00    +0.473 P 
ATOM     59  O   UNL     1       7.936  -5.871  26.058  0.00  0.00    -0.228 OA
BRANCH  58  60
ATOM     60  O   UNL     1       8.608  -5.646  23.820  0.00  0.00    -0.303 OA
ATOM     61  H   UNL     1       8.815  -6.587  23.942  0.00  0.00    +0.222 HD
ENDBRANCH  58  60
BRANCH  58  62
ATOM     62  O   UNL     1      10.185  -5.353  25.657  0.00  0.00    -0.303 OA
ATOM     63  H   UNL     1      10.194  -5.817  26.507  0.00  0.00    +0.222 HD
ENDBRANCH  58  62
ENDBRANCH  57  58
ENDBRANCH  39  57
ENDBRANCH  37  38
ENDBRANCH  36  37
ENDBRANCH   1  36
TORSDOF 27
ENDMDL
MODEL 4
REMARK VINA RESULT:      -6.2      2.205      3.948
REMARK  Name = 
REMARK  29 active torsions:
REMARK  status: ('A' for Active; 'I' for Inactive)
REMARK    1  A    between atoms: C_1  and  C_2
REMARK    2  A    between atoms: C_2  and  C_3
REMARK    3  A    between atoms: C_2  and  C_4
REMARK    4  A    between atoms: C_2  and  C_40
REMARK    5  A    between atoms: C_4  and  O_5
REMARK    6  A    between atoms: O_5  and  P_6
REMARK    7  A    between atoms: P_6  and  O_7
REMARK    8  A    between atoms: P_6  and  O_9
REMARK    9  A    between atoms: O_9  and  P_10
REMARK   10  A    between atoms: P_10  and  O_11
REMARK   11  A    between atoms: P_10  and  O_13
REMARK   12  A    between atoms: O_13  and  C_14
REMARK   13  A    between atoms: C_14  and  C_15
REMARK   14  A    between atoms: C_18  and  N_30
REMARK   15  A    between atoms: C_20  and  O_22
REMARK   16  A    between atoms: C_23  and  O_25
REMARK   17  A    between atoms: O_25  and  P_26
REMARK   18  A    between atoms: P_26  and  O_27
REMARK   19  A    between atoms: P_26  and  O_28
REMARK   20  A    between atoms: C_40  and  O_42
REMARK   21  A    between atoms: C_40  and  C_43
REMARK   22  A    between atoms: N_45  and  C_46
REMARK   23  A    between atoms: C_46  and  C_47
REMARK   24  A    between atoms: C_47  and  C_48
REMARK   25  A    between atoms: N_50  and  C_51
REMARK   26  A    between atoms: C_51  and  C_52
REMARK   27  A    between atoms: C_52  and  C_53
REMARK   28  A    between atoms: C_53  and  C_56
REMARK   29  A    between atoms: C_56  and  O_57
REMARK                            x       y       z     vdW  Elec       q    Type
REMARK                         _______ _______ _______ _____ _____    ______ ____
ROOT
ATOM      1  P   UNL     1       9.034  -4.499  24.897  0.00  0.00    +0.483 P 
ATOM      2  O   UNL     1      10.418  -5.041  25.260  0.00  0.00    -0.227 OA
ENDROOT
BRANCH   1   3
ATOM      3  O   UNL     1       8.602  -5.335  23.563  0.00  0.00    -0.302 OA
ATOM      4  H   UNL     1       9.402  -5.733  23.171  0.00  0.00    +0.222 HD
ENDBRANCH   1   3
BRANCH   1   5
ATOM      5  O   UNL     1       9.852  -3.341  23.907  0.00  0.00    -0.186 OA
BRANCH   5   6
ATOM      6  P   UNL     1       8.852  -2.374  23.122  0.00  0.00    +0.483 P 
ATOM      7  O   UNL     1       7.534  -2.983  22.787  0.00  0.00    -0.227 OA
BRANCH   6   8
ATOM      8  O   UNL     1       9.683  -1.926  21.822  0.00  0.00    -0.302 OA
ATOM      9  H   UNL     1       9.658  -0.958  21.707  0.00  0.00    +0.222 HD
ENDBRANCH   6   8
BRANCH   6  10
ATOM     10  O   UNL     1       8.776  -1.019  23.982  0.00  0.00    -0.286 OA
BRANCH  10  11
ATOM     11  C   UNL     1       8.768   0.200  23.258  0.00  0.00    +0.181 C 
BRANCH  11  13
ATOM     12  C   UNL     1       8.899   2.136  24.866  0.00  0.00    +0.016 C 
ATOM     13  C   UNL     1       9.701   1.266  23.869  0.00  0.00    +0.024 C 
ATOM     14  C   UNL     1      10.834   0.599  24.673  0.00  0.00    +0.016 C 
BRANCH  13  15
ATOM     15  C   UNL     1      10.248   2.141  22.695  0.00  0.00    +0.208 C 
BRANCH  15  16
ATOM     16  C   UNL     1      10.678   3.553  23.184  0.00  0.00    +0.242 C 
ATOM     17  N   UNL     1       9.678   4.511  23.099  0.00  0.00    -0.313 N 
ATOM     18  H   UNL     1       8.740   4.175  23.284  0.00  0.00    +0.149 HD
ATOM     19  O   UNL     1      11.819   3.825  23.544  0.00  0.00    -0.273 OA
BRANCH  17  20
ATOM     20  C   UNL     1       9.957   5.885  23.506  0.00  0.00    +0.113 C 
BRANCH  20  21
ATOM     21  C   UNL     1       8.723   6.595  24.045  0.00  0.00    +0.114 C 
BRANCH  21  22
ATOM     22  C   UNL     1       7.540   6.346  23.145  0.00  0.00    +0.215 C 
ATOM     23  N   UNL     1       6.331   6.268  23.802  0.00  0.00    -0.315 N 
ATOM     24  H   UNL     1       6.306   6.238  24.816  0.00  0.00    +0.149 HD
ATOM     25  O   UNL     1       7.641   6.296  21.923  0.00  0.00    -0.276 OA
BRANCH  23  26
ATOM     26  C   UNL     1       5.082   6.147  23.071  0.00  0.00    +0.107 C 
BRANCH  26  27
ATOM     27  C   UNL     1       4.284   4.905  23.465  0.00  0.00    +0.067 C 
BRANCH  27  28
ATOM     28  C   UNL     1       4.523   3.754  22.496  0.00  0.00    +0.275 C 
ATOM     29  F   UNL     1       3.396   2.977  22.446  0.00  0.00    -0.233 F 
BRANCH  28  30
ATOM     30  C   UNL     1       5.711   2.906  22.911  0.00  0.00    +0.339 C 
ATOM     31  O   UNL     1       5.663   1.958  23.679  0.00  0.00    -0.248 OA
BRANCH  30  32
ATOM     32  O   UNL     1       6.852   3.295  22.286  0.00  0.00    -0.479 OA
ATOM     33  H   UNL     1       7.538   3.547  22.945  0.00  0.00    +0.295 HD
ENDBRANCH  30  32
ENDBRANCH  28  30
ENDBRANCH  27  28
ENDBRANCH  26  27
ENDBRANCH  23  26
ENDBRANCH  21  22
ENDBRANCH  20  21
ENDBRANCH  17  20
ENDBRANCH  15  16
BRANCH  15  34
ATOM     34  O   UNL     1       9.321   2.255  21.624  0.00  0.00    -0.382 OA
ATOM     35  H   UNL     1       9.117   3.192  21.486  0.00  0.00    +0.210 HD
ENDBRANCH  15  34
ENDBRANCH  13  15
ENDBRANCH  11  13
ENDBRANCH  10  11
ENDBRANCH   6  10
ENDBRANCH   5   6
ENDBRANCH   1   5
BRANCH   1  36
ATOM     36  O   UNL     1       8.215  -5.658  25.888  0.00  0.00    -0.284 OA
BRANCH  36  37
ATOM     37  C   UNL     1       7.190  -5.125  26.741  0.00  0.00    +0.206 C 
BRANCH  37  38
ATOM     38  C   UNL     1       6.051  -4.521  25.944  0.00  0.00    +0.179 C 
ATOM     39  C   UNL     1       4.729  -5.211  26.272  0.00  0.00    +0.194 C 
ATOM     40  C   UNL     1       3.935  -4.152  27.047  0.00  0.00    +0.196 C 
ATOM     41  C   UNL     1       4.943  -3.022  27.298  0.00  0.00    +0.253 C 
ATOM     42  O   UNL     1       5.940  -3.139  26.274  0.00  0.00    -0.346 OA
BRANCH  41  43
ATOM     43  N   UNL     1       4.394  -1.683  27.235  0.00  0.00    -0.286 N 
ATOM     44  C   UNL     1       5.107  -0.520  27.316  0.00  0.00    +0.167 A 
ATOM     45  N   UNL     1       6.417  -0.369  27.574  0.00  0.00    -0.216 NA
ATOM     46  C   UNL     1       6.745   0.946  27.562  0.00  0.00    +0.225 A 
ATOM     47  N   UNL     1       5.947   2.016  27.337  0.00  0.00    -0.219 NA
ATOM     48  C   UNL     1       4.639   1.802  27.068  0.00  0.00    +0.147 A 
ATOM     49  N   UNL     1       3.814   2.886  26.814  0.00  0.00    -0.341 N 
ATOM     50  H   UNL     1       2.828   2.677  26.945  0.00  0.00    +0.144 HD
ATOM     51  H   UNL     1       4.175   3.741  27.213  0.00  0.00    +0.144 HD
ATOM     52  C   UNL     1       4.176   0.476  27.066  0.00  0.00    +0.147 A 
ATOM     53  N   UNL     1       2.922  -0.051  26.860  0.00  0.00    -0.231 NA
ATOM     54  C   UNL     1       3.095  -1.351  26.955  0.00  0.00    +0.203 A 
ENDBRANCH  41  43
BRANCH  40  55
ATOM     55  O   UNL     1       3.459  -4.708  28.279  0.00  0.00    -0.385 OA
ATOM     56  H   UNL     1       4.219  -5.156  28.706  0.00  0.00    +0.210 HD
ENDBRANCH  40  55
BRANCH  39  57
ATOM     57  O   UNL     1       4.049  -5.570  25.065  0.00  0.00    -0.278 OA
BRANCH  57  58
ATOM     58  P   UNL     1       5.068  -5.922  23.712  0.00  0.00    +0.473 P 
ATOM     59  O   UNL     1       5.979  -6.236  22.499  0.00  0.00    -0.228 OA
BRANCH  58  60
ATOM     60  O   UNL     1       4.537  -7.456  23.893  0.00  0.00    -0.303 OA
ATOM     61  H   UNL     1       5.131  -8.097  23.470  0.00  0.00    +0.222 HD
ENDBRANCH  58  60
BRANCH  58  62
ATOM     62  O   UNL     1       3.812  -5.398  22.804  0.00  0.00    -0.303 OA
ATOM     63  H   UNL     1       3.162  -6.090  22.609  0.00  0.00    +0.222 HD
ENDBRANCH  58  62
ENDBRANCH  57  58
ENDBRANCH  39  57
ENDBRANCH  37  38
ENDBRANCH  36  37
ENDBRANCH   1  36
TORSDOF 27
ENDMDL
MODEL 5
REMARK VINA RESULT:      -6.2      3.187      5.928
REMARK  Name = 
REMARK  29 active torsions:
REMARK  status: ('A' for Active; 'I' for Inactive)
REMARK    1  A    between atoms: C_1  and  C_2
REMARK    2  A    between atoms: C_2  and  C_3
REMARK    3  A    between atoms: C_2  and  C_4
REMARK    4  A    between atoms: C_2  and  C_40
REMARK    5  A    between atoms: C_4  and  O_5
REMARK    6  A    between atoms: O_5  and  P_6
REMARK    7  A    between atoms: P_6  and  O_7
REMARK    8  A    between atoms: P_6  and  O_9
REMARK    9  A    between atoms: O_9  and  P_10
REMARK   10  A    between atoms: P_10  and  O_11
REMARK   11  A    between atoms: P_10  and  O_13
REMARK   12  A    between atoms: O_13  and  C_14
REMARK   13  A    between atoms: C_14  and  C_15
REMARK   14  A    between atoms: C_18  and  N_30
REMARK   15  A    between atoms: C_20  and  O_22
REMARK   16  A    between atoms: C_23  and  O_25
REMARK   17  A    between atoms: O_25  and  P_26
REMARK   18  A    between atoms: P_26  and  O_27
REMARK   19  A    between atoms: P_26  and  O_28
REMARK   20  A    between atoms: C_40  and  O_42
REMARK   21  A    between atoms: C_40  and  C_43
REMARK   22  A    between atoms: N_45  and  C_46
REMARK   23  A    between atoms: C_46  and  C_47
REMARK   24  A    between atoms: C_47  and  C_48
REMARK   25  A    between atoms: N_50  and  C_51
REMARK   26  A    between atoms: C_51  and  C_52
REMARK   27  A    between atoms: C_52  and  C_53
REMARK   28  A    between atoms: C_53  and  C_56
REMARK   29  A    between atoms: C_56  and  O_57
REMARK                            x       y       z     vdW  Elec       q    Type
REMARK                         _______ _______ _______ _____ _____    ______ ____
ROOT
ATOM      1  P   UNL     1       9.221  -2.631  23.898  0.00  0.00    +0.483 P 
ATOM      2  O   UNL     1      10.550  -2.469  23.159  0.00  0.00    -0.227 OA
ENDROOT
BRANCH   1   3
ATOM      3  O   UNL     1       8.212  -3.282  22.792  0.00  0.00    -0.302 OA
ATOM      4  H   UNL     1       8.727  -3.867  22.206  0.00  0.00    +0.222 HD
ENDBRANCH   1   3
BRANCH   1   5
ATOM      5  O   UNL     1       8.821  -1.047  23.330  0.00  0.00    -0.186 OA
BRANCH   5   6
ATOM      6  P   UNL     1       7.655  -0.357  24.175  0.00  0.00    +0.483 P 
ATOM      7  O   UNL     1       7.200  -1.138  25.359  0.00  0.00    -0.227 OA
BRANCH   6   8
ATOM      8  O   UNL     1       6.486  -0.115  23.099  0.00  0.00    -0.302 OA
ATOM      9  H   UNL     1       6.008  -0.943  22.909  0.00  0.00    +0.222 HD
ENDBRANCH   6   8
BRANCH   6  10
ATOM     10  O   UNL     1       8.159   1.134  24.495  0.00  0.00    -0.286 OA
BRANCH  10  11
ATOM     11  C   UNL     1       9.474   1.468  24.082  0.00  0.00    +0.181 C 
BRANCH  11  13
ATOM     12  C   UNL     1       8.909   3.892  24.483  0.00  0.00    +0.016 C 
ATOM     13  C   UNL     1       9.575   2.896  23.504  0.00  0.00    +0.024 C 
ATOM     14  C   UNL     1      11.050   3.324  23.369  0.00  0.00    +0.016 C 
BRANCH  13  15
ATOM     15  C   UNL     1       8.833   2.900  22.128  0.00  0.00    +0.208 C 
BRANCH  15  16
ATOM     16  C   UNL     1       7.429   3.559  22.236  0.00  0.00    +0.242 C 
ATOM     17  N   UNL     1       6.406   2.670  22.533  0.00  0.00    -0.313 N 
ATOM     18  H   UNL     1       6.659   1.913  23.157  0.00  0.00    +0.149 HD
ATOM     19  O   UNL     1       7.221   4.747  22.006  0.00  0.00    -0.273 OA
BRANCH  17  20
ATOM     20  C   UNL     1       5.035   3.157  22.640  0.00  0.00    +0.113 C 
BRANCH  20  21
ATOM     21  C   UNL     1       4.392   2.798  23.973  0.00  0.00    +0.114 C 
BRANCH  21  22
ATOM     22  C   UNL     1       5.226   3.320  25.114  0.00  0.00    +0.215 C 
ATOM     23  N   UNL     1       5.641   2.353  26.005  0.00  0.00    -0.315 N 
ATOM     24  H   UNL     1       5.270   1.411  25.939  0.00  0.00    +0.149 HD
ATOM     25  O   UNL     1       5.569   4.495  25.197  0.00  0.00    -0.276 OA
BRANCH  23  26
ATOM     26  C   UNL     1       6.546   2.670  27.095  0.00  0.00    +0.107 C 
BRANCH  26  27
ATOM     27  C   UNL     1       6.839   1.467  27.989  0.00  0.00    +0.067 C 
BRANCH  27  28
ATOM     28  C   UNL     1       6.056   1.535  29.295  0.00  0.00    +0.275 C 
ATOM     29  F   UNL     1       6.826   1.008  30.300  0.00  0.00    -0.233 F 
BRANCH  28  30
ATOM     30  C   UNL     1       4.745   0.777  29.204  0.00  0.00    +0.339 C 
ATOM     31  O   UNL     1       3.906   0.928  28.330  0.00  0.00    -0.248 OA
BRANCH  30  32
ATOM     32  O   UNL     1       4.622  -0.141  30.197  0.00  0.00    -0.479 OA
ATOM     33  H   UNL     1       3.711  -0.512  30.213  0.00  0.00    +0.295 HD
ENDBRANCH  30  32
ENDBRANCH  28  30
ENDBRANCH  27  28
ENDBRANCH  26  27
ENDBRANCH  23  26
ENDBRANCH  21  22
ENDBRANCH  20  21
ENDBRANCH  17  20
ENDBRANCH  15  16
BRANCH  15  34
ATOM     34  O   UNL     1       8.722   1.599  21.568  0.00  0.00    -0.382 OA
ATOM     35  H   UNL     1       9.612   1.259  21.390  0.00  0.00    +0.210 HD
ENDBRANCH  15  34
ENDBRANCH  13  15
ENDBRANCH  11  13
ENDBRANCH  10  11
ENDBRANCH   6  10
ENDBRANCH   5   6
ENDBRANCH   1   5
BRANCH   1  36
ATOM     36  O   UNL     1       9.620  -4.215  24.468  0.00  0.00    -0.284 OA
BRANCH  36  37
ATOM     37  C   UNL     1       9.368  -4.451  25.862  0.00  0.00    +0.206 C 
BRANCH  37  38
ATOM     38  C   UNL     1       8.222  -5.422  26.071  0.00  0.00    +0.179 C 
ATOM     39  C   UNL     1       7.370  -5.011  27.269  0.00  0.00    +0.194 C 
ATOM     40  C   UNL     1       6.050  -4.539  26.647  0.00  0.00    +0.196 C 
ATOM     41  C   UNL     1       6.326  -4.504  25.138  0.00  0.00    +0.253 C 
ATOM     42  O   UNL     1       7.402  -5.422  24.905  0.00  0.00    -0.346 OA
BRANCH  41  43
ATOM     43  N   UNL     1       5.214  -4.898  24.299  0.00  0.00    -0.286 N 
ATOM     44  C   UNL     1       4.409  -5.985  24.492  0.00  0.00    +0.167 A 
ATOM     45  N   UNL     1       4.538  -6.956  25.412  0.00  0.00    -0.216 NA
ATOM     46  C   UNL     1       3.532  -7.856  25.284  0.00  0.00    +0.225 A 
ATOM     47  N   UNL     1       2.510  -7.862  24.395  0.00  0.00    -0.219 NA
ATOM     48  C   UNL     1       2.423  -6.851  23.502  0.00  0.00    +0.147 A 
ATOM     49  N   UNL     1       1.370  -6.832  22.602  0.00  0.00    -0.341 N 
ATOM     50  H   UNL     1       1.551  -6.251  21.788  0.00  0.00    +0.144 HD
ATOM     51  H   UNL     1       0.981  -7.752  22.451  0.00  0.00    +0.144 HD
ATOM     52  C   UNL     1       3.419  -5.862  23.529  0.00  0.00    +0.147 A 
ATOM     53  N   UNL     1       3.618  -4.747  22.748  0.00  0.00    -0.231 NA
ATOM     54  C   UNL     1       4.697  -4.185  23.248  0.00  0.00    +0.203 A 
ENDBRANCH  41  43
BRANCH  40  55
ATOM     55  O   UNL     1       5.715  -3.238  27.146  0.00  0.00    -0.385 OA
ATOM     56  H   UNL     1       5.980  -3.214  28.090  0.00  0.00    +0.210 HD
ENDBRANCH  40  55
BRANCH  39  57
ATOM     57  O   UNL     1       7.152  -6.137  28.125  0.00  0.00    -0.278 OA
BRANCH  57  58
ATOM     58  P   UNL     1       5.630  -6.164  28.948  0.00  0.00    +0.473 P 
ATOM     59  O   UNL     1       4.269  -6.190  29.686  0.00  0.00    -0.228 OA
BRANCH  58  60
ATOM     60  O   UNL     1       5.467  -7.655  28.297  0.00  0.00    -0.303 OA
ATOM     61  H   UNL     1       4.772  -7.680  27.621  0.00  0.00    +0.222 HD
ENDBRANCH  58  60
BRANCH  58  62
ATOM     62  O   UNL     1       6.499  -6.627  30.253  0.00  0.00    -0.303 OA
ATOM     63  H   UNL     1       6.591  -5.933  30.922  0.00  0.00    +0.222 HD
ENDBRANCH  58  62
ENDBRANCH  57  58
ENDBRANCH  39  57
ENDBRANCH  37  38
ENDBRANCH  36  37
ENDBRANCH   1  36
TORSDOF 27
ENDMDL
MODEL 6
REMARK VINA RESULT:      -6.2      3.279      7.770
REMARK  Name = 
REMARK  29 active torsions:
REMARK  status: ('A' for Active; 'I' for Inactive)
REMARK    1  A    between atoms: C_1  and  C_2
REMARK    2  A    between atoms: C_2  and  C_3
REMARK    3  A    between atoms: C_2  and  C_4
REMARK    4  A    between atoms: C_2  and  C_40
REMARK    5  A    between atoms: C_4  and  O_5
REMARK    6  A    between atoms: O_5  and  P_6
REMARK    7  A    between atoms: P_6  and  O_7
REMARK    8  A    between atoms: P_6  and  O_9
REMARK    9  A    between atoms: O_9  and  P_10
REMARK   10  A    between atoms: P_10  and  O_11
REMARK   11  A    between atoms: P_10  and  O_13
REMARK   12  A    between atoms: O_13  and  C_14
REMARK   13  A    between atoms: C_14  and  C_15
REMARK   14  A    between atoms: C_18  and  N_30
REMARK   15  A    between atoms: C_20  and  O_22
REMARK   16  A    between atoms: C_23  and  O_25
REMARK   17  A    between atoms: O_25  and  P_26
REMARK   18  A    between atoms: P_26  and  O_27
REMARK   19  A    between atoms: P_26  and  O_28
REMARK   20  A    between atoms: C_40  and  O_42
REMARK   21  A    between atoms: C_40  and  C_43
REMARK   22  A    between atoms: N_45  and  C_46
REMARK   23  A    between atoms: C_46  and  C_47
REMARK   24  A    between atoms: C_47  and  C_48
REMARK   25  A    between atoms: N_50  and  C_51
REMARK   26  A    between atoms: C_51  and  C_52
REMARK   27  A    between atoms: C_52  and  C_53
REMARK   28  A    between atoms: C_53  and  C_56
REMARK   29  A    between atoms: C_56  and  O_57
REMARK                            x       y       z     vdW  Elec       q    Type
REMARK                         _______ _______ _______ _____ _____    ______ ____
ROOT
ATOM      1  P   UNL     1       9.560   1.425  22.938  0.00  0.00    +0.483 P 
ATOM      2  O   UNL     1      10.607   1.830  23.978  0.00  0.00    -0.227 OA
ENDROOT
BRANCH   1   3
ATOM      3  O   UNL     1      10.199   1.888  21.509  0.00  0.00    -0.302 OA
ATOM      4  H   UNL     1      10.716   1.147  21.143  0.00  0.00    +0.222 HD
ENDBRANCH   1   3
BRANCH   1   5
ATOM      5  O   UNL     1       8.882   3.002  23.147  0.00  0.00    -0.186 OA
BRANCH   5   6
ATOM      6  P   UNL     1       7.458   3.166  22.442  0.00  0.00    +0.483 P 
ATOM      7  O   UNL     1       7.216   2.232  21.307  0.00  0.00    -0.227 OA
BRANCH   6   8
ATOM      8  O   UNL     1       7.419   4.711  22.000  0.00  0.00    -0.302 OA
ATOM      9  H   UNL     1       6.880   4.832  21.197  0.00  0.00    +0.222 HD
ENDBRANCH   6   8
BRANCH   6  10
ATOM     10  O   UNL     1       6.368   3.104  23.620  0.00  0.00    -0.286 OA
BRANCH  10  11
ATOM     11  C   UNL     1       6.156   4.294  24.361  0.00  0.00    +0.181 C 
BRANCH  11  13
ATOM     12  C   UNL     1       8.000   4.857  25.984  0.00  0.00    +0.016 C 
ATOM     13  C   UNL     1       6.619   4.177  25.828  0.00  0.00    +0.024 C 
ATOM     14  C   UNL     1       5.648   4.922  26.765  0.00  0.00    +0.016 C 
BRANCH  13  15
ATOM     15  C   UNL     1       6.715   2.655  26.171  0.00  0.00    +0.208 C 
BRANCH  15  16
ATOM     16  C   UNL     1       6.242   2.362  27.623  0.00  0.00    +0.242 C 
ATOM     17  N   UNL     1       5.004   1.741  27.701  0.00  0.00    -0.313 N 
ATOM     18  H   UNL     1       4.804   1.080  26.961  0.00  0.00    +0.149 HD
ATOM     19  O   UNL     1       6.866   2.713  28.619  0.00  0.00    -0.273 OA
BRANCH  17  20
ATOM     20  C   UNL     1       4.433   1.431  29.008  0.00  0.00    +0.113 C 
BRANCH  20  21
ATOM     21  C   UNL     1       4.810   0.038  29.492  0.00  0.00    +0.114 C 
BRANCH  21  22
ATOM     22  C   UNL     1       3.834  -0.982  28.965  0.00  0.00    +0.215 C 
ATOM     23  N   UNL     1       4.071  -2.272  29.392  0.00  0.00    -0.315 N 
ATOM     24  H   UNL     1       4.925  -2.489  29.895  0.00  0.00    +0.149 HD
ATOM     25  O   UNL     1       2.866  -0.674  28.277  0.00  0.00    -0.276 OA
BRANCH  23  26
ATOM     26  C   UNL     1       3.157  -3.353  29.069  0.00  0.00    +0.107 C 
BRANCH  26  27
ATOM     27  C   UNL     1       3.823  -4.470  28.267  0.00  0.00    +0.067 C 
BRANCH  27  28
ATOM     28  C   UNL     1       5.292  -4.629  28.639  0.00  0.00    +0.275 C 
ATOM     29  F   UNL     1       6.061  -4.048  27.664  0.00  0.00    -0.233 F 
BRANCH  28  30
ATOM     30  C   UNL     1       5.679  -6.088  28.794  0.00  0.00    +0.339 C 
ATOM     31  O   UNL     1       4.912  -6.990  29.092  0.00  0.00    -0.248 OA
BRANCH  30  32
ATOM     32  O   UNL     1       6.991  -6.295  28.513  0.00  0.00    -0.479 OA
ATOM     33  H   UNL     1       7.159  -7.247  28.330  0.00  0.00    +0.295 HD
ENDBRANCH  30  32
ENDBRANCH  28  30
ENDBRANCH  27  28
ENDBRANCH  26  27
ENDBRANCH  23  26
ENDBRANCH  21  22
ENDBRANCH  20  21
ENDBRANCH  17  20
ENDBRANCH  15  16
BRANCH  15  34
ATOM     34  O   UNL     1       8.022   2.134  25.968  0.00  0.00    -0.382 OA
ATOM     35  H   UNL     1       8.334   1.741  26.798  0.00  0.00    +0.210 HD
ENDBRANCH  15  34
ENDBRANCH  13  15
ENDBRANCH  11  13
ENDBRANCH  10  11
ENDBRANCH   6  10
ENDBRANCH   5   6
ENDBRANCH   1   5
BRANCH   1  36
ATOM     36  O   UNL     1      10.238  -0.154  22.730  0.00  0.00    -0.284 OA
BRANCH  36  37
ATOM     37  C   UNL     1       9.499  -1.034  21.870  0.00  0.00    +0.206 C 
BRANCH  37  38
ATOM     38  C   UNL     1       9.001  -2.259  22.612  0.00  0.00    +0.179 C 
ATOM     39  C   UNL     1       9.588  -2.321  24.020  0.00  0.00    +0.194 C 
ATOM     40  C   UNL     1       8.393  -2.035  24.938  0.00  0.00    +0.196 C 
ATOM     41  C   UNL     1       7.267  -1.611  23.984  0.00  0.00    +0.253 C 
ATOM     42  O   UNL     1       7.581  -2.191  22.711  0.00  0.00    -0.346 OA
BRANCH  41  43
ATOM     43  N   UNL     1       5.942  -2.054  24.362  0.00  0.00    -0.286 N 
ATOM     44  C   UNL     1       5.335  -3.208  23.953  0.00  0.00    +0.167 A 
ATOM     45  N   UNL     1       5.778  -4.102  23.053  0.00  0.00    -0.216 NA
ATOM     46  C   UNL     1       4.889  -5.118  22.928  0.00  0.00    +0.225 A 
ATOM     47  N   UNL     1       3.709  -5.293  23.567  0.00  0.00    -0.219 NA
ATOM     48  C   UNL     1       3.320  -4.368  24.474  0.00  0.00    +0.147 A 
ATOM     49  N   UNL     1       2.125  -4.545  25.152  0.00  0.00    -0.341 N 
ATOM     50  H   UNL     1       1.760  -3.684  25.550  0.00  0.00    +0.144 HD
ATOM     51  H   UNL     1       1.485  -5.143  24.648  0.00  0.00    +0.144 HD
ATOM     52  C   UNL     1       4.155  -3.258  24.681  0.00  0.00    +0.147 A 
ATOM     53  N   UNL     1       4.025  -2.158  25.496  0.00  0.00    -0.231 NA
ATOM     54  C   UNL     1       5.123  -1.464  25.289  0.00  0.00    +0.203 A 
ENDBRANCH  41  43
BRANCH  40  55
ATOM     55  O   UNL     1       8.725  -0.982  25.853  0.00  0.00    -0.385 OA
ATOM     56  H   UNL     1       7.930  -0.819  26.403  0.00  0.00    +0.210 HD
ENDBRANCH  40  55
BRANCH  39  57
ATOM     57  O   UNL     1      10.120  -3.625  24.273  0.00  0.00    -0.278 OA
BRANCH  57  58
ATOM     58  P   UNL     1       9.135  -4.654  25.255  0.00  0.00    +0.473 P 
ATOM     59  O   UNL     1       8.255  -5.576  26.135  0.00  0.00    -0.228 OA
BRANCH  58  60
ATOM     60  O   UNL     1       8.607  -5.266  23.835  0.00  0.00    -0.303 OA
ATOM     61  H   UNL     1       8.515  -4.578  23.156  0.00  0.00    +0.222 HD
ENDBRANCH  58  60
BRANCH  58  62
ATOM     62  O   UNL     1      10.471  -5.590  25.374  0.00  0.00    -0.303 OA
ATOM     63  H   UNL     1      10.396  -6.432  24.901  0.00  0.00    +0.222 HD
ENDBRANCH  58  62
ENDBRANCH  57  58
ENDBRANCH  39  57
ENDBRANCH  37  38
ENDBRANCH  36  37
ENDBRANCH   1  36
TORSDOF 27
ENDMDL
MODEL 7
REMARK VINA RESULT:      -6.2      3.366      7.042
REMARK  Name = 
REMARK  29 active torsions:
REMARK  status: ('A' for Active; 'I' for Inactive)
REMARK    1  A    between atoms: C_1  and  C_2
REMARK    2  A    between atoms: C_2  and  C_3
REMARK    3  A    between atoms: C_2  and  C_4
REMARK    4  A    between atoms: C_2  and  C_40
REMARK    5  A    between atoms: C_4  and  O_5
REMARK    6  A    between atoms: O_5  and  P_6
REMARK    7  A    between atoms: P_6  and  O_7
REMARK    8  A    between atoms: P_6  and  O_9
REMARK    9  A    between atoms: O_9  and  P_10
REMARK   10  A    between atoms: P_10  and  O_11
REMARK   11  A    between atoms: P_10  and  O_13
REMARK   12  A    between atoms: O_13  and  C_14
REMARK   13  A    between atoms: C_14  and  C_15
REMARK   14  A    between atoms: C_18  and  N_30
REMARK   15  A    between atoms: C_20  and  O_22
REMARK   16  A    between atoms: C_23  and  O_25
REMARK   17  A    between atoms: O_25  and  P_26
REMARK   18  A    between atoms: P_26  and  O_27
REMARK   19  A    between atoms: P_26  and  O_28
REMARK   20  A    between atoms: C_40  and  O_42
REMARK   21  A    between atoms: C_40  and  C_43
REMARK   22  A    between atoms: N_45  and  C_46
REMARK   23  A    between atoms: C_46  and  C_47
REMARK   24  A    between atoms: C_47  and  C_48
REMARK   25  A    between atoms: N_50  and  C_51
REMARK   26  A    between atoms: C_51  and  C_52
REMARK   27  A    between atoms: C_52  and  C_53
REMARK   28  A    between atoms: C_53  and  C_56
REMARK   29  A    between atoms: C_56  and  O_57
REMARK                            x       y       z     vdW  Elec       q    Type
REMARK                         _______ _______ _______ _____ _____    ______ ____
ROOT
ATOM      1  P   UNL     1       5.320   0.767  25.284  0.00  0.00    +0.483 P 
ATOM      2  O   UNL     1       6.352   0.646  26.407  0.00  0.00    -0.227 OA
ENDROOT
BRANCH   1   3
ATOM      3  O   UNL     1       5.877  -0.214  24.104  0.00  0.00    -0.302 OA
ATOM      4  H   UNL     1       6.484   0.295  23.536  0.00  0.00    +0.222 HD
ENDBRANCH   1   3
BRANCH   1   5
ATOM      5  O   UNL     1       6.285   2.061  24.665  0.00  0.00    -0.186 OA
BRANCH   5   6
ATOM      6  P   UNL     1       5.686   2.704  23.331  0.00  0.00    +0.483 P 
ATOM      7  O   UNL     1       4.202   2.832  23.316  0.00  0.00    -0.227 OA
BRANCH   6   8
ATOM      8  O   UNL     1       6.244   1.756  22.158  0.00  0.00    -0.302 OA
ATOM      9  H   UNL     1       6.238   2.220  21.301  0.00  0.00    +0.222 HD
ENDBRANCH   6   8
BRANCH   6  10
ATOM     10  O   UNL     1       6.491   4.073  23.096  0.00  0.00    -0.286 OA
BRANCH  10  11
ATOM     11  C   UNL     1       6.505   5.000  24.169  0.00  0.00    +0.181 C 
BRANCH  11  13
ATOM     12  C   UNL     1       8.370   6.172  22.942  0.00  0.00    +0.016 C 
ATOM     13  C   UNL     1       7.867   5.709  24.330  0.00  0.00    +0.024 C 
ATOM     14  C   UNL     1       7.720   6.976  25.196  0.00  0.00    +0.016 C 
BRANCH  13  15
ATOM     15  C   UNL     1       8.861   4.679  24.958  0.00  0.00    +0.208 C 
BRANCH  15  16
ATOM     16  C   UNL     1       9.729   3.983  23.871  0.00  0.00    +0.242 C 
ATOM     17  N   UNL     1       9.160   2.834  23.342  0.00  0.00    -0.313 N 
ATOM     18  H   UNL     1       8.151   2.854  23.248  0.00  0.00    +0.149 HD
ATOM     19  O   UNL     1      10.851   4.366  23.556  0.00  0.00    -0.273 OA
BRANCH  17  20
ATOM     20  C   UNL     1       9.882   2.072  22.328  0.00  0.00    +0.113 C 
BRANCH  20  21
ATOM     21  C   UNL     1       9.779   0.568  22.547  0.00  0.00    +0.114 C 
BRANCH  21  22
ATOM     22  C   UNL     1       9.956   0.238  24.007  0.00  0.00    +0.215 C 
ATOM     23  N   UNL     1       8.934  -0.512  24.548  0.00  0.00    -0.315 N 
ATOM     24  H   UNL     1       8.088  -0.677  24.012  0.00  0.00    +0.149 HD
ATOM     25  O   UNL     1      10.963   0.547  24.635  0.00  0.00    -0.276 OA
BRANCH  23  26
ATOM     26  C   UNL     1       9.005  -1.012  25.910  0.00  0.00    +0.107 C 
BRANCH  26  27
ATOM     27  C   UNL     1       8.584  -2.476  26.025  0.00  0.00    +0.067 C 
BRANCH  27  28
ATOM     28  C   UNL     1       8.581  -3.167  24.667  0.00  0.00    +0.275 C 
ATOM     29  F   UNL     1       7.522  -2.699  23.934  0.00  0.00    -0.233 F 
BRANCH  28  30
ATOM     30  C   UNL     1       8.482  -4.675  24.803  0.00  0.00    +0.339 C 
ATOM     31  O   UNL     1       9.403  -5.458  24.626  0.00  0.00    -0.248 OA
BRANCH  30  32
ATOM     32  O   UNL     1       7.244  -5.066  25.196  0.00  0.00    -0.479 OA
ATOM     33  H   UNL     1       6.794  -5.565  24.477  0.00  0.00    +0.295 HD
ENDBRANCH  30  32
ENDBRANCH  28  30
ENDBRANCH  27  28
ENDBRANCH  26  27
ENDBRANCH  23  26
ENDBRANCH  21  22
ENDBRANCH  20  21
ENDBRANCH  17  20
ENDBRANCH  15  16
BRANCH  15  34
ATOM     34  O   UNL     1       8.203   3.706  25.756  0.00  0.00    -0.382 OA
ATOM     35  H   UNL     1       8.585   3.721  26.647  0.00  0.00    +0.210 HD
ENDBRANCH  15  34
ENDBRANCH  13  15
ENDBRANCH  11  13
ENDBRANCH  10  11
ENDBRANCH   6  10
ENDBRANCH   5   6
ENDBRANCH   1   5
BRANCH   1  36
ATOM     36  O   UNL     1       4.352  -0.527  25.904  0.00  0.00    -0.284 OA
BRANCH  36  37
ATOM     37  C   UNL     1       4.880  -1.192  27.062  0.00  0.00    +0.206 C 
BRANCH  37  38
ATOM     38  C   UNL     1       5.416  -2.570  26.726  0.00  0.00    +0.179 C 
ATOM     39  C   UNL     1       5.073  -3.572  27.825  0.00  0.00    +0.194 C 
ATOM     40  C   UNL     1       4.029  -4.493  27.181  0.00  0.00    +0.196 C 
ATOM     41  C   UNL     1       3.688  -3.816  25.846  0.00  0.00    +0.253 C 
ATOM     42  O   UNL     1       4.823  -3.008  25.505  0.00  0.00    -0.346 OA
BRANCH  41  43
ATOM     43  N   UNL     1       3.437  -4.720  24.744  0.00  0.00    -0.286 N 
ATOM     44  C   UNL     1       2.425  -5.634  24.670  0.00  0.00    +0.167 A 
ATOM     45  N   UNL     1       1.535  -5.960  25.623  0.00  0.00    -0.216 NA
ATOM     46  C   UNL     1       0.683  -6.908  25.160  0.00  0.00    +0.225 A 
ATOM     47  N   UNL     1       0.656  -7.499  23.942  0.00  0.00    -0.219 NA
ATOM     48  C   UNL     1       1.568  -7.120  23.018  0.00  0.00    +0.147 A 
ATOM     49  N   UNL     1       1.537  -7.700  21.760  0.00  0.00    -0.341 N 
ATOM     50  H   UNL     1       2.417  -7.612  21.258  0.00  0.00    +0.144 HD
ATOM     51  H   UNL     1       1.084  -8.603  21.767  0.00  0.00    +0.144 HD
ATOM     52  C   UNL     1       2.514  -6.151  23.387  0.00  0.00    +0.147 A 
ATOM     53  N   UNL     1       3.563  -5.592  22.695  0.00  0.00    -0.231 NA
ATOM     54  C   UNL     1       4.086  -4.727  23.536  0.00  0.00    +0.203 A 
ENDBRANCH  41  43
BRANCH  40  55
ATOM     55  O   UNL     1       2.876  -4.586  28.028  0.00  0.00    -0.385 OA
ATOM     56  H   UNL     1       3.083  -5.242  28.726  0.00  0.00    +0.210 HD
ENDBRANCH  40  55
BRANCH  39  57
ATOM     57  O   UNL     1       6.241  -4.313  28.194  0.00  0.00    -0.278 OA
BRANCH  57  58
ATOM     58  P   UNL     1       6.003  -6.009  28.436  0.00  0.00    +0.473 P 
ATOM     59  O   UNL     1       5.791  -7.528  28.653  0.00  0.00    -0.228 OA
BRANCH  58  60
ATOM     60  O   UNL     1       7.540  -6.156  27.900  0.00  0.00    -0.303 OA
ATOM     61  H   UNL     1       7.672  -5.706  27.050  0.00  0.00    +0.222 HD
ENDBRANCH  58  60
BRANCH  58  62
ATOM     62  O   UNL     1       6.380  -5.701  29.996  0.00  0.00    -0.303 OA
ATOM     63  H   UNL     1       6.749  -4.817  30.138  0.00  0.00    +0.222 HD
ENDBRANCH  58  62
ENDBRANCH  57  58
ENDBRANCH  39  57
ENDBRANCH  37  38
ENDBRANCH  36  37
ENDBRANCH   1  36
TORSDOF 27
ENDMDL
MODEL 8
REMARK VINA RESULT:      -6.2      3.091      6.676
REMARK  Name = 
REMARK  29 active torsions:
REMARK  status: ('A' for Active; 'I' for Inactive)
REMARK    1  A    between atoms: C_1  and  C_2
REMARK    2  A    between atoms: C_2  and  C_3
REMARK    3  A    between atoms: C_2  and  C_4
REMARK    4  A    between atoms: C_2  and  C_40
REMARK    5  A    between atoms: C_4  and  O_5
REMARK    6  A    between atoms: O_5  and  P_6
REMARK    7  A    between atoms: P_6  and  O_7
REMARK    8  A    between atoms: P_6  and  O_9
REMARK    9  A    between atoms: O_9  and  P_10
REMARK   10  A    between atoms: P_10  and  O_11
REMARK   11  A    between atoms: P_10  and  O_13
REMARK   12  A    between atoms: O_13  and  C_14
REMARK   13  A    between atoms: C_14  and  C_15
REMARK   14  A    between atoms: C_18  and  N_30
REMARK   15  A    between atoms: C_20  and  O_22
REMARK   16  A    between atoms: C_23  and  O_25
REMARK   17  A    between atoms: O_25  and  P_26
REMARK   18  A    between atoms: P_26  and  O_27
REMARK   19  A    between atoms: P_26  and  O_28
REMARK   20  A    between atoms: C_40  and  O_42
REMARK   21  A    between atoms: C_40  and  C_43
REMARK   22  A    between atoms: N_45  and  C_46
REMARK   23  A    between atoms: C_46  and  C_47
REMARK   24  A    between atoms: C_47  and  C_48
REMARK   25  A    between atoms: N_50  and  C_51
REMARK   26  A    between atoms: C_51  and  C_52
REMARK   27  A    between atoms: C_52  and  C_53
REMARK   28  A    between atoms: C_53  and  C_56
REMARK   29  A    between atoms: C_56  and  O_57
REMARK                            x       y       z     vdW  Elec       q    Type
REMARK                         _______ _______ _______ _____ _____    ______ ____
ROOT
ATOM      1  P   UNL     1       7.205   0.393  25.532  0.00  0.00    +0.483 P 
ATOM      2  O   UNL     1       8.693   0.376  25.180  0.00  0.00    -0.227 OA
ENDROOT
BRANCH   1   3
ATOM      3  O   UNL     1       6.477  -0.358  24.279  0.00  0.00    -0.302 OA
ATOM      4  H   UNL     1       6.219  -1.255  24.559  0.00  0.00    +0.222 HD
ENDBRANCH   1   3
BRANCH   1   5
ATOM      5  O   UNL     1       7.118   1.897  24.683  0.00  0.00    -0.186 OA
BRANCH   5   6
ATOM      6  P   UNL     1       5.661   2.203  24.104  0.00  0.00    +0.483 P 
ATOM      7  O   UNL     1       4.542   1.643  24.912  0.00  0.00    -0.227 OA
BRANCH   6   8
ATOM      8  O   UNL     1       5.706   1.619  22.607  0.00  0.00    -0.302 OA
ATOM      9  H   UNL     1       5.221   2.199  21.991  0.00  0.00    +0.222 HD
ENDBRANCH   6   8
BRANCH   6  10
ATOM     10  O   UNL     1       5.601   3.790  23.867  0.00  0.00    -0.286 OA
BRANCH  10  11
ATOM     11  C   UNL     1       6.597   4.351  23.027  0.00  0.00    +0.181 C 
BRANCH  11  13
ATOM     12  C   UNL     1       7.795   6.470  22.376  0.00  0.00    +0.016 C 
ATOM     13  C   UNL     1       7.118   5.710  23.540  0.00  0.00    +0.024 C 
ATOM     14  C   UNL     1       5.950   6.590  24.027  0.00  0.00    +0.016 C 
BRANCH  13  15
ATOM     15  C   UNL     1       8.149   5.418  24.678  0.00  0.00    +0.208 C 
BRANCH  15  16
ATOM     16  C   UNL     1       9.457   4.788  24.120  0.00  0.00    +0.242 C 
ATOM     17  N   UNL     1       9.470   3.400  24.138  0.00  0.00    -0.313 N 
ATOM     18  H   UNL     1       8.577   2.957  23.958  0.00  0.00    +0.149 HD
ATOM     19  O   UNL     1      10.426   5.449  23.763  0.00  0.00    -0.273 OA
BRANCH  17  20
ATOM     20  C   UNL     1      10.648   2.683  23.662  0.00  0.00    +0.113 C 
BRANCH  20  21
ATOM     21  C   UNL     1      10.583   2.381  22.171  0.00  0.00    +0.114 C 
BRANCH  21  22
ATOM     22  C   UNL     1       9.432   1.454  21.874  0.00  0.00    +0.215 C 
ATOM     23  N   UNL     1       9.702   0.121  22.098  0.00  0.00    -0.315 N 
ATOM     24  H   UNL     1      10.651  -0.176  22.302  0.00  0.00    +0.149 HD
ATOM     25  O   UNL     1       8.326   1.864  21.537  0.00  0.00    -0.276 OA
BRANCH  23  26
ATOM     26  C   UNL     1       8.668  -0.890  21.972  0.00  0.00    +0.107 C 
BRANCH  26  27
ATOM     27  C   UNL     1       9.185  -2.302  22.241  0.00  0.00    +0.067 C 
BRANCH  27  28
ATOM     28  C   UNL     1       8.570  -2.893  23.504  0.00  0.00    +0.275 C 
ATOM     29  F   UNL     1       9.533  -3.602  24.175  0.00  0.00    -0.233 F 
BRANCH  28  30
ATOM     30  C   UNL     1       7.395  -3.798  23.188  0.00  0.00    +0.339 C 
ATOM     31  O   UNL     1       7.475  -4.990  22.934  0.00  0.00    -0.248 OA
BRANCH  30  32
ATOM     32  O   UNL     1       6.212  -3.137  23.264  0.00  0.00    -0.479 OA
ATOM     33  H   UNL     1       6.125  -2.683  24.133  0.00  0.00    +0.295 HD
ENDBRANCH  30  32
ENDBRANCH  28  30
ENDBRANCH  27  28
ENDBRANCH  26  27
ENDBRANCH  23  26
ENDBRANCH  21  22
ENDBRANCH  20  21
ENDBRANCH  17  20
ENDBRANCH  15  16
BRANCH  15  34
ATOM     34  O   UNL     1       7.608   4.597  25.704  0.00  0.00    -0.382 OA
ATOM     35  H   UNL     1       7.196   3.819  25.296  0.00  0.00    +0.210 HD
ENDBRANCH  15  34
ENDBRANCH  13  15
ENDBRANCH  11  13
ENDBRANCH  10  11
ENDBRANCH   6  10
ENDBRANCH   5   6
ENDBRANCH   1   5
BRANCH   1  36
ATOM     36  O   UNL     1       7.291  -1.111  26.384  0.00  0.00    -0.284 OA
BRANCH  36  37
ATOM     37  C   UNL     1       6.093  -1.499  27.074  0.00  0.00    +0.206 C 
BRANCH  37  38
ATOM     38  C   UNL     1       5.703  -2.931  26.764  0.00  0.00    +0.179 C 
ATOM     39  C   UNL     1       5.095  -3.609  27.989  0.00  0.00    +0.194 C 
ATOM     40  C   UNL     1       3.613  -3.774  27.631  0.00  0.00    +0.196 C 
ATOM     41  C   UNL     1       3.440  -2.980  26.329  0.00  0.00    +0.253 C 
ATOM     42  O   UNL     1       4.736  -2.927  25.716  0.00  0.00    -0.346 OA
BRANCH  41  43
ATOM     43  N   UNL     1       2.518  -3.556  25.374  0.00  0.00    -0.286 N 
ATOM     44  C   UNL     1       2.817  -4.517  24.450  0.00  0.00    +0.167 A 
ATOM     45  N   UNL     1       4.020  -5.041  24.161  0.00  0.00    -0.216 NA
ATOM     46  C   UNL     1       3.900  -5.975  23.186  0.00  0.00    +0.225 A 
ATOM     47  N   UNL     1       2.783  -6.385  22.540  0.00  0.00    -0.219 NA
ATOM     48  C   UNL     1       1.597  -5.833  22.883  0.00  0.00    +0.147 A 
ATOM     49  N   UNL     1       0.443  -6.259  22.246  0.00  0.00    -0.341 N 
ATOM     50  H   UNL     1      -0.321  -5.593  22.317  0.00  0.00    +0.144 HD
ATOM     51  H   UNL     1       0.635  -6.665  21.341  0.00  0.00    +0.144 HD
ATOM     52  C   UNL     1       1.597  -4.840  23.875  0.00  0.00    +0.147 A 
ATOM     53  N   UNL     1       0.578  -4.086  24.410  0.00  0.00    -0.231 NA
ATOM     54  C   UNL     1       1.166  -3.336  25.316  0.00  0.00    +0.203 A 
ENDBRANCH  41  43
BRANCH  40  55
ATOM     55  O   UNL     1       2.798  -3.238  28.681  0.00  0.00    -0.385 OA
ATOM     56  H   UNL     1       3.163  -3.570  29.528  0.00  0.00    +0.210 HD
ENDBRANCH  40  55
BRANCH  39  57
ATOM     57  O   UNL     1       5.710  -4.885  28.199  0.00  0.00    -0.278 OA
BRANCH  57  58
ATOM     58  P   UNL     1       6.981  -5.290  27.099  0.00  0.00    +0.473 P 
ATOM     59  O   UNL     1       8.119  -5.654  26.113  0.00  0.00    -0.228 OA
BRANCH  58  60
ATOM     60  O   UNL     1       7.454  -6.342  28.256  0.00  0.00    -0.303 OA
ATOM     61  H   UNL     1       8.348  -6.147  28.580  0.00  0.00    +0.222 HD
ENDBRANCH  58  60
BRANCH  58  62
ATOM     62  O   UNL     1       5.877  -6.271  26.398  0.00  0.00    -0.303 OA
ATOM     63  H   UNL     1       5.392  -6.822  27.031  0.00  0.00    +0.222 HD
ENDBRANCH  58  62
ENDBRANCH  57  58
ENDBRANCH  39  57
ENDBRANCH  37  38
ENDBRANCH  36  37
ENDBRANCH   1  36
TORSDOF 27
ENDMDL
MODEL 9
REMARK VINA RESULT:      -6.1      3.959      9.351
REMARK  Name = 
REMARK  29 active torsions:
REMARK  status: ('A' for Active; 'I' for Inactive)
REMARK    1  A    between atoms: C_1  and  C_2
REMARK    2  A    between atoms: C_2  and  C_3
REMARK    3  A    between atoms: C_2  and  C_4
REMARK    4  A    between atoms: C_2  and  C_40
REMARK    5  A    between atoms: C_4  and  O_5
REMARK    6  A    between atoms: O_5  and  P_6
REMARK    7  A    between atoms: P_6  and  O_7
REMARK    8  A    between atoms: P_6  and  O_9
REMARK    9  A    between atoms: O_9  and  P_10
REMARK   10  A    between atoms: P_10  and  O_11
REMARK   11  A    between atoms: P_10  and  O_13
REMARK   12  A    between atoms: O_13  and  C_14
REMARK   13  A    between atoms: C_14  and  C_15
REMARK   14  A    between atoms: C_18  and  N_30
REMARK   15  A    between atoms: C_20  and  O_22
REMARK   16  A    between atoms: C_23  and  O_25
REMARK   17  A    between atoms: O_25  and  P_26
REMARK   18  A    between atoms: P_26  and  O_27
REMARK   19  A    between atoms: P_26  and  O_28
REMARK   20  A    between atoms: C_40  and  O_42
REMARK   21  A    between atoms: C_40  and  C_43
REMARK   22  A    between atoms: N_45  and  C_46
REMARK   23  A    between atoms: C_46  and  C_47
REMARK   24  A    between atoms: C_47  and  C_48
REMARK   25  A    between atoms: N_50  and  C_51
REMARK   26  A    between atoms: C_51  and  C_52
REMARK   27  A    between atoms: C_52  and  C_53
REMARK   28  A    between atoms: C_53  and  C_56
REMARK   29  A    between atoms: C_56  and  O_57
REMARK                            x       y       z     vdW  Elec       q    Type
REMARK                         _______ _______ _______ _____ _____    ______ ____
ROOT
ATOM      1  P   UNL     1       5.573   3.958  23.329  0.00  0.00    +0.483 P 
ATOM      2  O   UNL     1       6.447   4.910  24.148  0.00  0.00    -0.227 OA
ENDROOT
BRANCH   1   3
ATOM      3  O   UNL     1       4.805   4.923  22.259  0.00  0.00    -0.302 OA
ATOM      4  H   UNL     1       5.421   5.140  21.535  0.00  0.00    +0.222 HD
ENDBRANCH   1   3
BRANCH   1   5
ATOM      5  O   UNL     1       4.327   4.254  24.491  0.00  0.00    -0.186 OA
BRANCH   5   6
ATOM      6  P   UNL     1       2.993   3.425  24.199  0.00  0.00    +0.483 P 
ATOM      7  O   UNL     1       2.860   2.935  22.799  0.00  0.00    -0.227 OA
BRANCH   6   8
ATOM      8  O   UNL     1       1.811   4.426  24.627  0.00  0.00    -0.302 OA
ATOM      9  H   UNL     1       1.497   4.231  25.530  0.00  0.00    +0.222 HD
ENDBRANCH   6   8
BRANCH   6  10
ATOM     10  O   UNL     1       2.922   2.285  25.329  0.00  0.00    -0.286 OA
BRANCH  10  11
ATOM     11  C   UNL     1       3.964   2.269  26.290  0.00  0.00    +0.181 C 
BRANCH  11  13
ATOM     12  C   UNL     1       4.252   1.509  28.676  0.00  0.00    +0.016 C 
ATOM     13  C   UNL     1       3.882   1.058  27.243  0.00  0.00    +0.024 C 
ATOM     14  C   UNL     1       2.441   0.514  27.306  0.00  0.00    +0.016 C 
BRANCH  13  15
ATOM     15  C   UNL     1       4.894  -0.016  26.727  0.00  0.00    +0.208 C 
BRANCH  15  16
ATOM     16  C   UNL     1       4.290  -1.448  26.784  0.00  0.00    +0.242 C 
ATOM     17  N   UNL     1       4.343  -2.037  28.039  0.00  0.00    -0.313 N 
ATOM     18  H   UNL     1       4.217  -1.403  28.820  0.00  0.00    +0.149 HD
ATOM     19  O   UNL     1       3.869  -2.043  25.797  0.00  0.00    -0.273 OA
BRANCH  17  20
ATOM     20  C   UNL     1       3.829  -3.390  28.224  0.00  0.00    +0.113 C 
BRANCH  20  21
ATOM     21  C   UNL     1       4.904  -4.363  28.689  0.00  0.00    +0.114 C 
BRANCH  21  22
ATOM     22  C   UNL     1       5.184  -5.385  27.616  0.00  0.00    +0.215 C 
ATOM     23  N   UNL     1       4.611  -5.100  26.395  0.00  0.00    -0.315 N 
ATOM     24  H   UNL     1       3.946  -4.338  26.313  0.00  0.00    +0.149 HD
ATOM     25  O   UNL     1       5.924  -6.346  27.799  0.00  0.00    -0.276 OA
BRANCH  23  26
ATOM     26  C   UNL     1       4.877  -5.921  25.228  0.00  0.00    +0.107 C 
BRANCH  26  27
ATOM     27  C   UNL     1       5.844  -5.259  24.248  0.00  0.00    +0.067 C 
BRANCH  27  28
ATOM     28  C   UNL     1       5.167  -4.941  22.921  0.00  0.00    +0.275 C 
ATOM     29  F   UNL     1       5.620  -5.819  21.971  0.00  0.00    -0.233 F 
BRANCH  28  30
ATOM     30  C   UNL     1       5.444  -3.518  22.474  0.00  0.00    +0.339 C 
ATOM     31  O   UNL     1       5.541  -3.152  21.313  0.00  0.00    -0.248 OA
BRANCH  30  32
ATOM     32  O   UNL     1       5.530  -2.666  23.528  0.00  0.00    -0.479 OA
ATOM     33  H   UNL     1       4.724  -2.729  24.089  0.00  0.00    +0.295 HD
ENDBRANCH  30  32
ENDBRANCH  28  30
ENDBRANCH  27  28
ENDBRANCH  26  27
ENDBRANCH  23  26
ENDBRANCH  21  22
ENDBRANCH  20  21
ENDBRANCH  17  20
ENDBRANCH  15  16
BRANCH  15  34
ATOM     34  O   UNL     1       6.130   0.022  27.428  0.00  0.00    -0.382 OA
ATOM     35  H   UNL     1       5.961   0.295  28.343  0.00  0.00    +0.210 HD
ENDBRANCH  15  34
ENDBRANCH  13  15
ENDBRANCH  11  13
ENDBRANCH  10  11
ENDBRANCH   6  10
ENDBRANCH   5   6
ENDBRANCH   1   5
BRANCH   1  36
ATOM     36  O   UNL     1       6.820   3.661  22.166  0.00  0.00    -0.284 OA
BRANCH  36  37
ATOM     37  C   UNL     1       7.068   2.279  21.866  0.00  0.00    +0.206 C 
BRANCH  37  38
ATOM     38  C   UNL     1       8.489   1.875  22.205  0.00  0.00    +0.179 C 
ATOM     39  C   UNL     1       8.928   2.486  23.534  0.00  0.00    +0.194 C 
ATOM     40  C   UNL     1       9.012   1.289  24.489  0.00  0.00    +0.196 C 
ATOM     41  C   UNL     1       8.401   0.123  23.699  0.00  0.00    +0.253 C 
ATOM     42  O   UNL     1       8.551   0.455  22.312  0.00  0.00    -0.346 OA
BRANCH  41  43
ATOM     43  N   UNL     1       9.026  -1.164  23.919  0.00  0.00    -0.286 N 
ATOM     44  C   UNL     1       8.685  -2.067  24.886  0.00  0.00    +0.167 A 
ATOM     45  N   UNL     1       7.796  -1.914  25.883  0.00  0.00    -0.216 NA
ATOM     46  C   UNL     1       7.737  -3.043  26.631  0.00  0.00    +0.225 A 
ATOM     47  N   UNL     1       8.429  -4.197  26.479  0.00  0.00    -0.219 NA
ATOM     48  C   UNL     1       9.300  -4.298  25.449  0.00  0.00    +0.147 A 
ATOM     49  N   UNL     1       9.998  -5.481  25.267  0.00  0.00    -0.341 N 
ATOM     50  H   UNL     1      10.836  -5.367  24.703  0.00  0.00    +0.144 HD
ATOM     51  H   UNL     1      10.071  -6.016  26.121  0.00  0.00    +0.144 HD
ATOM     52  C   UNL     1       9.457  -3.184  24.609  0.00  0.00    +0.147 A 
ATOM     53  N   UNL     1      10.269  -2.972  23.519  0.00  0.00    -0.231 NA
ATOM     54  C   UNL     1       9.972  -1.754  23.122  0.00  0.00    +0.203 A 
ENDBRANCH  41  43
BRANCH  40  55
ATOM     55  O   UNL     1       8.260   1.563  25.678  0.00  0.00    -0.385 OA
ATOM     56  H   UNL     1       8.869   2.000  26.310  0.00  0.00    +0.210 HD
ENDBRANCH  40  55
BRANCH  39  57
ATOM     57  O   UNL     1      10.209   3.108  23.389  0.00  0.00    -0.278 OA
BRANCH  57  58
ATOM     58  P   UNL     1      10.322   4.730  23.980  0.00  0.00    +0.473 P 
ATOM     59  O   UNL     1      10.422   6.182  24.507  0.00  0.00    -0.228 OA
BRANCH  58  60
ATOM     60  O   UNL     1      11.564   4.875  22.927  0.00  0.00    -0.303 OA
ATOM     61  H   UNL     1      12.358   4.412  23.238  0.00  0.00    +0.222 HD
ENDBRANCH  58  60
BRANCH  58  62
ATOM     62  O   UNL     1       9.132   5.058  22.907  0.00  0.00    -0.303 OA
ATOM     63  H   UNL     1       8.921   4.313  22.325  0.00  0.00    +0.222 HD
ENDBRANCH  58  62
ENDBRANCH  57  58
ENDBRANCH  39  57
ENDBRANCH  37  38
ENDBRANCH  36  37
ENDBRANCH   1  36
TORSDOF 27
ENDMDL
