MODEL 1
REMARK VINA RESULT:      -6.7      0.000      0.000
REMARK  Name = 
REMARK  8 active torsions:
REMARK  status: ('A' for Active; 'I' for Inactive)
REMARK    1  A    between atoms: C_2  and  C_3
REMARK    2  A    between atoms: C_2  and  C_4
REMARK    3  A    between atoms: C_2  and  C_18
REMARK    4  A    between atoms: C_4  and  N_5
REMARK    5  A    between atoms: C_6  and  C_8
REMARK    6  A    between atoms: C_11  and  S_14
REMARK    7  A    between atoms: S_14  and  N_15
REMARK    8  A    between atoms: C_18  and  N_19
REMARK                            x       y       z     vdW  Elec       q    Type
REMARK                         _______ _______ _______ _____ _____    ______ ____
ROOT
ATOM      1  N   UNL     1       6.402  -0.451  23.046  0.00  0.00    -0.311 N 
ATOM      2  H   UNL     1       7.004  -0.133  22.298  0.00  0.00    +0.149 HD
ATOM      3  C   UNL     1       6.005   0.450  24.012  0.00  0.00    +0.244 C 
ATOM      4  O   UNL     1       5.452   0.138  25.057  0.00  0.00    -0.270 OA
ENDROOT
BRANCH   3   5
ATOM      5  C   UNL     1       6.340   1.871  23.733  0.00  0.00    +0.037 A 
ATOM      6  C   UNL     1       6.490   2.750  24.813  0.00  0.00    +0.015 A 
ATOM      7  C   UNL     1       6.869   4.075  24.589  0.00  0.00    +0.029 A 
ATOM      8  C   UNL     1       7.075   4.522  23.280  0.00  0.00    +0.105 A 
ATOM      9  C   UNL     1       6.894   3.659  22.194  0.00  0.00    +0.029 A 
ATOM     10  C   UNL     1       6.518   2.333  22.421  0.00  0.00    +0.015 A 
BRANCH   8  11
ATOM     11  S   UNL     1       7.663   6.165  22.992  0.00  0.00    +0.056 S 
ATOM     12  O   UNL     1       9.094   6.189  23.182  0.00  0.00    -0.153 OA
ATOM     13  O   UNL     1       6.781   7.108  23.639  0.00  0.00    -0.153 OA
BRANCH  11  14
ATOM     14  N   UNL     1       7.410   6.347  21.344  0.00  0.00    -0.204 NA
ATOM     15  H   UNL     1       6.630   6.984  21.182  0.00  0.00    +0.144 HD
ATOM     16  H   UNL     1       7.285   5.430  20.912  0.00  0.00    +0.144 HD
ENDBRANCH  11  14
ENDBRANCH   8  11
ENDBRANCH   3   5
BRANCH   1  17
ATOM     17  C   UNL     1       6.214  -1.881  23.201  0.00  0.00    +0.109 C 
BRANCH  17  18
ATOM     18  C   UNL     1       7.292  -2.694  22.470  0.00  0.00    +0.023 C 
ATOM     19  C   UNL     1       6.730  -4.058  22.066  0.00  0.00    +0.011 C 
BRANCH  18  20
ATOM     20  C   UNL     1       8.616  -2.815  23.249  0.00  0.00    +0.126 C 
BRANCH  20  21
ATOM     21  N   UNL     1       9.046  -1.639  23.994  0.00  0.00    -0.346 N 
ATOM     22  C   UNL     1       9.460  -0.436  23.451  0.00  0.00    +0.049 A 
ATOM     23  C   UNL     1       9.664   0.443  24.522  0.00  0.00    -0.000 A 
ATOM     24  C   UNL     1      10.071   1.766  24.259  0.00  0.00    +0.010 A 
ATOM     25  C   UNL     1      10.266   2.178  22.939  0.00  0.00    +0.001 A 
ATOM     26  C   UNL     1      10.068   1.289  21.886  0.00  0.00    +0.002 A 
ATOM     27  C   UNL     1       9.372  -0.265  25.715  0.00  0.00    +0.027 A 
ATOM     28  C   UNL     1       9.662  -0.029  22.122  0.00  0.00    +0.026 A 
ATOM     29  C   UNL     1       8.966  -1.529  25.360  0.00  0.00    +0.087 A 
ENDBRANCH  20  21
ENDBRANCH  18  20
ENDBRANCH  17  18
ENDBRANCH   1  17
TORSDOF 7
ENDMDL
MODEL 2
REMARK VINA RESULT:      -6.6      3.177      5.640
REMARK  Name = 
REMARK  8 active torsions:
REMARK  status: ('A' for Active; 'I' for Inactive)
REMARK    1  A    between atoms: C_2  and  C_3
REMARK    2  A    between atoms: C_2  and  C_4
REMARK    3  A    between atoms: C_2  and  C_18
REMARK    4  A    between atoms: C_4  and  N_5
REMARK    5  A    between atoms: C_6  and  C_8
REMARK    6  A    between atoms: C_11  and  S_14
REMARK    7  A    between atoms: S_14  and  N_15
REMARK    8  A    between atoms: C_18  and  N_19
REMARK                            x       y       z     vdW  Elec       q    Type
REMARK                         _______ _______ _______ _____ _____    ______ ____
ROOT
ATOM      1  N   UNL     1       8.356  -3.688  26.285  0.00  0.00    -0.311 N 
ATOM      2  H   UNL     1       7.949  -2.870  26.716  0.00  0.00    +0.149 HD
ATOM      3  C   UNL     1       9.004  -3.553  25.075  0.00  0.00    +0.244 C 
ATOM      4  O   UNL     1       9.353  -4.492  24.373  0.00  0.00    -0.270 OA
ENDROOT
BRANCH   3   5
ATOM      5  C   UNL     1       9.222  -2.153  24.623  0.00  0.00    +0.037 A 
ATOM      6  C   UNL     1       9.325  -1.900  23.249  0.00  0.00    +0.015 A 
ATOM      7  C   UNL     1       9.464  -0.589  22.788  0.00  0.00    +0.029 A 
ATOM      8  C   UNL     1       9.521   0.462  23.708  0.00  0.00    +0.105 A 
ATOM      9  C   UNL     1       9.452   0.214  25.082  0.00  0.00    +0.029 A 
ATOM     10  C   UNL     1       9.310  -1.097  25.541  0.00  0.00    +0.015 A 
BRANCH   8  11
ATOM     11  S   UNL     1       9.583   2.134  23.131  0.00  0.00    +0.056 S 
ATOM     12  O   UNL     1      10.776   2.762  23.648  0.00  0.00    -0.153 OA
ATOM     13  O   UNL     1       8.276   2.732  23.259  0.00  0.00    -0.153 OA
BRANCH  11  14
ATOM     14  N   UNL     1       9.843   1.930  21.486  0.00  0.00    -0.204 NA
ATOM     15  H   UNL     1      10.542   2.598  21.160  0.00  0.00    +0.144 HD
ATOM     16  H   UNL     1       8.954   1.994  20.988  0.00  0.00    +0.144 HD
ENDBRANCH  11  14
ENDBRANCH   8  11
ENDBRANCH   3   5
BRANCH   1  17
ATOM     17  C   UNL     1       8.005  -4.986  26.830  0.00  0.00    +0.109 C 
BRANCH  17  18
ATOM     18  C   UNL     1       6.561  -5.029  27.351  0.00  0.00    +0.023 C 
ATOM     19  C   UNL     1       6.442  -6.063  28.470  0.00  0.00    +0.011 C 
BRANCH  18  20
ATOM     20  C   UNL     1       5.507  -5.239  26.246  0.00  0.00    +0.126 C 
BRANCH  20  21
ATOM     21  N   UNL     1       5.574  -4.344  25.099  0.00  0.00    -0.346 N 
ATOM     22  C   UNL     1       5.859  -4.707  23.795  0.00  0.00    +0.049 A 
ATOM     23  C   UNL     1       5.701  -3.559  23.010  0.00  0.00    -0.000 A 
ATOM     24  C   UNL     1       5.907  -3.641  21.619  0.00  0.00    +0.010 A 
ATOM     25  C   UNL     1       6.264  -4.864  21.046  0.00  0.00    +0.001 A 
ATOM     26  C   UNL     1       6.427  -5.995  21.842  0.00  0.00    +0.002 A 
ATOM     27  C   UNL     1       5.326  -2.500  23.876  0.00  0.00    +0.027 A 
ATOM     28  C   UNL     1       6.227  -5.938  23.226  0.00  0.00    +0.026 A 
ATOM     29  C   UNL     1       5.226  -3.017  25.145  0.00  0.00    +0.087 A 
ENDBRANCH  20  21
ENDBRANCH  18  20
ENDBRANCH  17  18
ENDBRANCH   1  17
TORSDOF 7
ENDMDL
MODEL 3
REMARK VINA RESULT:      -6.5      4.672      7.685
REMARK  Name = 
REMARK  8 active torsions:
REMARK  status: ('A' for Active; 'I' for Inactive)
REMARK    1  A    between atoms: C_2  and  C_3
REMARK    2  A    between atoms: C_2  and  C_4
REMARK    3  A    between atoms: C_2  and  C_18
REMARK    4  A    between atoms: C_4  and  N_5
REMARK    5  A    between atoms: C_6  and  C_8
REMARK    6  A    between atoms: C_11  and  S_14
REMARK    7  A    between atoms: S_14  and  N_15
REMARK    8  A    between atoms: C_18  and  N_19
REMARK                            x       y       z     vdW  Elec       q    Type
REMARK                         _______ _______ _______ _____ _____    ______ ____
ROOT
ATOM      1  N   UNL     1       8.351  -2.532  23.271  0.00  0.00    -0.311 N 
ATOM      2  H   UNL     1       7.360  -2.353  23.363  0.00  0.00    +0.149 HD
ATOM      3  C   UNL     1       8.943  -3.456  24.106  0.00  0.00    +0.244 C 
ATOM      4  O   UNL     1      10.152  -3.604  24.220  0.00  0.00    -0.270 OA
ENDROOT
BRANCH   3   5
ATOM      5  C   UNL     1       8.005  -4.262  24.931  0.00  0.00    +0.037 A 
ATOM      6  C   UNL     1       8.324  -4.497  26.274  0.00  0.00    +0.015 A 
ATOM      7  C   UNL     1       7.433  -5.194  27.093  0.00  0.00    +0.029 A 
ATOM      8  C   UNL     1       6.234  -5.672  26.556  0.00  0.00    +0.105 A 
ATOM      9  C   UNL     1       5.923  -5.471  25.207  0.00  0.00    +0.029 A 
ATOM     10  C   UNL     1       6.815  -4.771  24.391  0.00  0.00    +0.015 A 
BRANCH   8  11
ATOM     11  S   UNL     1       5.049  -6.457  27.610  0.00  0.00    +0.056 S 
ATOM     12  O   UNL     1       4.180  -5.448  28.169  0.00  0.00    -0.153 OA
ATOM     13  O   UNL     1       5.715  -7.444  28.426  0.00  0.00    -0.153 OA
BRANCH  11  14
ATOM     14  N   UNL     1       4.115  -7.316  26.512  0.00  0.00    -0.204 NA
ATOM     15  H   UNL     1       4.630  -8.133  26.183  0.00  0.00    +0.144 HD
ATOM     16  H   UNL     1       3.810  -6.696  25.761  0.00  0.00    +0.144 HD
ENDBRANCH  11  14
ENDBRANCH   8  11
ENDBRANCH   3   5
BRANCH   1  17
ATOM     17  C   UNL     1       9.130  -1.619  22.456  0.00  0.00    +0.109 C 
BRANCH  17  18
ATOM     18  C   UNL     1       8.787  -0.149  22.735  0.00  0.00    +0.023 C 
ATOM     19  C   UNL     1       9.037   0.691  21.482  0.00  0.00    +0.011 C 
BRANCH  18  20
ATOM     20  C   UNL     1       9.494   0.429  23.977  0.00  0.00    +0.126 C 
BRANCH  20  21
ATOM     21  N   UNL     1       9.122   1.782  24.370  0.00  0.00    -0.346 N 
ATOM     22  C   UNL     1       9.830   2.937  24.092  0.00  0.00    +0.049 A 
ATOM     23  C   UNL     1       9.055   4.009  24.550  0.00  0.00    -0.000 A 
ATOM     24  C   UNL     1       9.526   5.325  24.375  0.00  0.00    +0.010 A 
ATOM     25  C   UNL     1      10.757   5.539  23.749  0.00  0.00    +0.001 A 
ATOM     26  C   UNL     1      11.520   4.462  23.307  0.00  0.00    +0.002 A 
ATOM     27  C   UNL     1       7.873   3.467  25.116  0.00  0.00    +0.027 A 
ATOM     28  C   UNL     1      11.072   3.146  23.469  0.00  0.00    +0.026 A 
ATOM     29  C   UNL     1       7.927   2.103  24.964  0.00  0.00    +0.087 A 
ENDBRANCH  20  21
ENDBRANCH  18  20
ENDBRANCH  17  18
ENDBRANCH   1  17
TORSDOF 7
ENDMDL
MODEL 4
REMARK VINA RESULT:      -6.5      4.116      7.310
REMARK  Name = 
REMARK  8 active torsions:
REMARK  status: ('A' for Active; 'I' for Inactive)
REMARK    1  A    between atoms: C_2  and  C_3
REMARK    2  A    between atoms: C_2  and  C_4
REMARK    3  A    between atoms: C_2  and  C_18
REMARK    4  A    between atoms: C_4  and  N_5
REMARK    5  A    between atoms: C_6  and  C_8
REMARK    6  A    between atoms: C_11  and  S_14
REMARK    7  A    between atoms: S_14  and  N_15
REMARK    8  A    between atoms: C_18  and  N_19
REMARK                            x       y       z     vdW  Elec       q    Type
REMARK                         _______ _______ _______ _____ _____    ______ ____
ROOT
ATOM      1  N   UNL     1       8.926  -0.986  22.539  0.00  0.00    -0.311 N 
ATOM      2  H   UNL     1       7.981  -0.648  22.417  0.00  0.00    +0.149 HD
ATOM      3  C   UNL     1       9.121  -2.249  23.057  0.00  0.00    +0.244 C 
ATOM      4  O   UNL     1      10.203  -2.679  23.432  0.00  0.00    -0.270 OA
ENDROOT
BRANCH   3   5
ATOM      5  C   UNL     1       7.895  -3.079  23.188  0.00  0.00    +0.037 A 
ATOM      6  C   UNL     1       7.972  -4.281  23.903  0.00  0.00    +0.015 A 
ATOM      7  C   UNL     1       6.824  -5.052  24.102  0.00  0.00    +0.029 A 
ATOM      8  C   UNL     1       5.606  -4.625  23.564  0.00  0.00    +0.105 A 
ATOM      9  C   UNL     1       5.528  -3.443  22.820  0.00  0.00    +0.029 A 
ATOM     10  C   UNL     1       6.677  -2.673  22.626  0.00  0.00    +0.015 A 
BRANCH   8  11
ATOM     11  S   UNL     1       4.127  -5.534  23.904  0.00  0.00    +0.056 S 
ATOM     12  O   UNL     1       3.170  -5.278  22.854  0.00  0.00    -0.153 OA
ATOM     13  O   UNL     1       3.796  -5.400  25.303  0.00  0.00    -0.153 OA
BRANCH  11  14
ATOM     14  N   UNL     1       4.631  -7.120  23.695  0.00  0.00    -0.204 NA
ATOM     15  H   UNL     1       3.874  -7.759  23.937  0.00  0.00    +0.144 HD
ATOM     16  H   UNL     1       5.488  -7.281  24.228  0.00  0.00    +0.144 HD
ENDBRANCH  11  14
ENDBRANCH   8  11
ENDBRANCH   3   5
BRANCH   1  17
ATOM     17  C   UNL     1      10.008  -0.028  22.414  0.00  0.00    +0.109 C 
BRANCH  17  18
ATOM     18  C   UNL     1      10.007   1.006  23.549  0.00  0.00    +0.023 C 
ATOM     19  C   UNL     1      10.967   0.566  24.655  0.00  0.00    +0.011 C 
BRANCH  18  20
ATOM     20  C   UNL     1       8.602   1.332  24.091  0.00  0.00    +0.126 C 
BRANCH  20  21
ATOM     21  N   UNL     1       7.861   2.378  23.398  0.00  0.00    -0.346 N 
ATOM     22  C   UNL     1       8.189   3.721  23.359  0.00  0.00    +0.049 A 
ATOM     23  C   UNL     1       7.279   4.336  22.490  0.00  0.00    -0.000 A 
ATOM     24  C   UNL     1       7.392   5.717  22.238  0.00  0.00    +0.010 A 
ATOM     25  C   UNL     1       8.407   6.450  22.857  0.00  0.00    +0.001 A 
ATOM     26  C   UNL     1       9.299   5.826  23.726  0.00  0.00    +0.002 A 
ATOM     27  C   UNL     1       6.395   3.331  22.021  0.00  0.00    +0.027 A 
ATOM     28  C   UNL     1       9.207   4.455  23.991  0.00  0.00    +0.026 A 
ATOM     29  C   UNL     1       6.794   2.137  22.570  0.00  0.00    +0.087 A 
ENDBRANCH  20  21
ENDBRANCH  18  20
ENDBRANCH  17  18
ENDBRANCH   1  17
TORSDOF 7
ENDMDL
MODEL 5
REMARK VINA RESULT:      -6.5      4.812      7.672
REMARK  Name = 
REMARK  8 active torsions:
REMARK  status: ('A' for Active; 'I' for Inactive)
REMARK    1  A    between atoms: C_2  and  C_3
REMARK    2  A    between atoms: C_2  and  C_4
REMARK    3  A    between atoms: C_2  and  C_18
REMARK    4  A    between atoms: C_4  and  N_5
REMARK    5  A    between atoms: C_6  and  C_8
REMARK    6  A    between atoms: C_11  and  S_14
REMARK    7  A    between atoms: S_14  and  N_15
REMARK    8  A    between atoms: C_18  and  N_19
REMARK                            x       y       z     vdW  Elec       q    Type
REMARK                         _______ _______ _______ _____ _____    ______ ____
ROOT
ATOM      1  N   UNL     1       8.815  -2.663  23.360  0.00  0.00    -0.311 N 
ATOM      2  H   UNL     1       7.926  -2.303  23.042  0.00  0.00    +0.149 HD
ATOM      3  C   UNL     1       8.844  -3.855  24.052  0.00  0.00    +0.244 C 
ATOM      4  O   UNL     1       9.823  -4.279  24.651  0.00  0.00    -0.270 OA
ENDROOT
BRANCH   3   5
ATOM      5  C   UNL     1       7.562  -4.607  24.078  0.00  0.00    +0.037 A 
ATOM      6  C   UNL     1       6.986  -4.910  25.319  0.00  0.00    +0.015 A 
ATOM      7  C   UNL     1       5.750  -5.556  25.378  0.00  0.00    +0.029 A 
ATOM      8  C   UNL     1       5.105  -5.918  24.191  0.00  0.00    +0.105 A 
ATOM      9  C   UNL     1       5.689  -5.650  22.949  0.00  0.00    +0.029 A 
ATOM     10  C   UNL     1       6.924  -5.000  22.893  0.00  0.00    +0.015 A 
BRANCH   8  11
ATOM     11  S   UNL     1       3.489  -6.636  24.251  0.00  0.00    +0.056 S 
ATOM     12  O   UNL     1       2.621  -5.769  25.012  0.00  0.00    -0.153 OA
ATOM     13  O   UNL     1       3.604  -8.049  24.524  0.00  0.00    -0.153 OA
BRANCH  11  14
ATOM     14  N   UNL     1       2.987  -6.510  22.655  0.00  0.00    -0.204 NA
ATOM     15  H   UNL     1       2.507  -7.365  22.375  0.00  0.00    +0.144 HD
ATOM     16  H   UNL     1       3.785  -6.276  22.062  0.00  0.00    +0.144 HD
ENDBRANCH  11  14
ENDBRANCH   8  11
ENDBRANCH   3   5
BRANCH   1  17
ATOM     17  C   UNL     1       9.963  -1.778  23.301  0.00  0.00    +0.109 C 
BRANCH  17  18
ATOM     18  C   UNL     1       9.571  -0.336  22.947  0.00  0.00    +0.023 C 
ATOM     19  C   UNL     1       9.489  -0.177  21.428  0.00  0.00    +0.011 C 
BRANCH  18  20
ATOM     20  C   UNL     1      10.472   0.731  23.598  0.00  0.00    +0.126 C 
BRANCH  20  21
ATOM     21  N   UNL     1       9.817   1.950  24.053  0.00  0.00    -0.346 N 
ATOM     22  C   UNL     1      10.294   3.239  23.899  0.00  0.00    +0.049 A 
ATOM     23  C   UNL     1       9.297   4.100  24.373  0.00  0.00    -0.000 A 
ATOM     24  C   UNL     1       9.504   5.492  24.316  0.00  0.00    +0.010 A 
ATOM     25  C   UNL     1      10.697   5.991  23.787  0.00  0.00    +0.001 A 
ATOM     26  C   UNL     1      11.683   5.121  23.328  0.00  0.00    +0.002 A 
ATOM     27  C   UNL     1       8.219   3.295  24.824  0.00  0.00    +0.027 A 
ATOM     28  C   UNL     1      11.500   3.735  23.374  0.00  0.00    +0.026 A 
ATOM     29  C   UNL     1       8.553   1.984  24.587  0.00  0.00    +0.087 A 
ENDBRANCH  20  21
ENDBRANCH  18  20
ENDBRANCH  17  18
ENDBRANCH   1  17
TORSDOF 7
ENDMDL
MODEL 6
REMARK VINA RESULT:      -6.4      3.371      6.724
REMARK  Name = 
REMARK  8 active torsions:
REMARK  status: ('A' for Active; 'I' for Inactive)
REMARK    1  A    between atoms: C_2  and  C_3
REMARK    2  A    between atoms: C_2  and  C_4
REMARK    3  A    between atoms: C_2  and  C_18
REMARK    4  A    between atoms: C_4  and  N_5
REMARK    5  A    between atoms: C_6  and  C_8
REMARK    6  A    between atoms: C_11  and  S_14
REMARK    7  A    between atoms: S_14  and  N_15
REMARK    8  A    between atoms: C_18  and  N_19
REMARK                            x       y       z     vdW  Elec       q    Type
REMARK                         _______ _______ _______ _____ _____    ______ ____
ROOT
ATOM      1  N   UNL     1       7.104   1.651  25.731  0.00  0.00    -0.311 N 
ATOM      2  H   UNL     1       8.012   1.388  26.091  0.00  0.00    +0.149 HD
ATOM      3  C   UNL     1       6.375   0.723  25.018  0.00  0.00    +0.244 C 
ATOM      4  O   UNL     1       5.370   0.988  24.372  0.00  0.00    -0.270 OA
ENDROOT
BRANCH   3   5
ATOM      5  C   UNL     1       6.918  -0.660  25.030  0.00  0.00    +0.037 A 
ATOM      6  C   UNL     1       6.396  -1.595  24.127  0.00  0.00    +0.015 A 
ATOM      7  C   UNL     1       6.929  -2.884  24.068  0.00  0.00    +0.029 A 
ATOM      8  C   UNL     1       7.970  -3.239  24.931  0.00  0.00    +0.105 A 
ATOM      9  C   UNL     1       8.475  -2.322  25.858  0.00  0.00    +0.029 A 
ATOM     10  C   UNL     1       7.942  -1.032  25.914  0.00  0.00    +0.015 A 
BRANCH   8  11
ATOM     11  S   UNL     1       8.728  -4.832  24.788  0.00  0.00    +0.056 S 
ATOM     12  O   UNL     1      10.160  -4.677  24.875  0.00  0.00    -0.153 OA
ATOM     13  O   UNL     1       8.092  -5.568  23.721  0.00  0.00    -0.153 OA
BRANCH  11  14
ATOM     14  N   UNL     1       8.254  -5.577  26.214  0.00  0.00    -0.204 NA
ATOM     15  H   UNL     1       8.422  -4.953  27.003  0.00  0.00    +0.144 HD
ATOM     16  H   UNL     1       8.722  -6.481  26.301  0.00  0.00    +0.144 HD
ENDBRANCH  11  14
ENDBRANCH   8  11
ENDBRANCH   3   5
BRANCH   1  17
ATOM     17  C   UNL     1       6.747   3.057  25.759  0.00  0.00    +0.109 C 
BRANCH  17  18
ATOM     18  C   UNL     1       7.975   3.973  25.653  0.00  0.00    +0.023 C 
ATOM     19  C   UNL     1       7.759   5.232  26.492  0.00  0.00    +0.011 C 
BRANCH  18  20
ATOM     20  C   UNL     1       8.384   4.300  24.203  0.00  0.00    +0.126 C 
BRANCH  20  21
ATOM     21  N   UNL     1       8.405   3.187  23.264  0.00  0.00    -0.346 N 
ATOM     22  C   UNL     1       9.204   2.061  23.350  0.00  0.00    +0.049 A 
ATOM     23  C   UNL     1       8.814   1.206  22.312  0.00  0.00    -0.000 A 
ATOM     24  C   UNL     1       9.450  -0.043  22.171  0.00  0.00    +0.010 A 
ATOM     25  C   UNL     1      10.459  -0.407  23.067  0.00  0.00    +0.001 A 
ATOM     26  C   UNL     1      10.842   0.458  24.088  0.00  0.00    +0.002 A 
ATOM     27  C   UNL     1       7.771   1.851  21.599  0.00  0.00    +0.027 A 
ATOM     28  C   UNL     1      10.223   1.703  24.249  0.00  0.00    +0.026 A 
ATOM     29  C   UNL     1       7.521   3.049  22.222  0.00  0.00    +0.087 A 
ENDBRANCH  20  21
ENDBRANCH  18  20
ENDBRANCH  17  18
ENDBRANCH   1  17
TORSDOF 7
ENDMDL
MODEL 7
REMARK VINA RESULT:      -6.4      2.698      3.861
REMARK  Name = 
REMARK  8 active torsions:
REMARK  status: ('A' for Active; 'I' for Inactive)
REMARK    1  A    between atoms: C_2  and  C_3
REMARK    2  A    between atoms: C_2  and  C_4
REMARK    3  A    between atoms: C_2  and  C_18
REMARK    4  A    between atoms: C_4  and  N_5
REMARK    5  A    between atoms: C_6  and  C_8
REMARK    6  A    between atoms: C_11  and  S_14
REMARK    7  A    between atoms: S_14  and  N_15
REMARK    8  A    between atoms: C_18  and  N_19
REMARK                            x       y       z     vdW  Elec       q    Type
REMARK                         _______ _______ _______ _____ _____    ______ ____
ROOT
ATOM      1  N   UNL     1       6.393  -2.544  26.168  0.00  0.00    -0.311 N 
ATOM      2  H   UNL     1       7.399  -2.526  26.268  0.00  0.00    +0.149 HD
ATOM      3  C   UNL     1       5.753  -1.435  25.655  0.00  0.00    +0.244 C 
ATOM      4  O   UNL     1       4.541  -1.270  25.676  0.00  0.00    -0.270 OA
ENDROOT
BRANCH   3   5
ATOM      5  C   UNL     1       6.647  -0.386  25.097  0.00  0.00    +0.037 A 
ATOM      6  C   UNL     1       7.806  -0.046  25.806  0.00  0.00    +0.015 A 
ATOM      7  C   UNL     1       8.700   0.888  25.278  0.00  0.00    +0.029 A 
ATOM      8  C   UNL     1       8.418   1.494  24.050  0.00  0.00    +0.105 A 
ATOM      9  C   UNL     1       7.246   1.183  23.352  0.00  0.00    +0.029 A 
ATOM     10  C   UNL     1       6.355   0.247  23.881  0.00  0.00    +0.015 A 
BRANCH   8  11
ATOM     11  S   UNL     1       9.597   2.592  23.318  0.00  0.00    +0.056 S 
ATOM     12  O   UNL     1      10.917   2.238  23.784  0.00  0.00    -0.153 OA
ATOM     13  O   UNL     1       9.091   3.943  23.379  0.00  0.00    -0.153 OA
BRANCH  11  14
ATOM     14  N   UNL     1       9.539   2.146  21.702  0.00  0.00    -0.204 NA
ATOM     15  H   UNL     1       9.214   2.931  21.138  0.00  0.00    +0.144 HD
ATOM     16  H   UNL     1       8.971   1.304  21.598  0.00  0.00    +0.144 HD
ENDBRANCH  11  14
ENDBRANCH   8  11
ENDBRANCH   3   5
BRANCH   1  17
ATOM     17  C   UNL     1       5.668  -3.623  26.812  0.00  0.00    +0.109 C 
BRANCH  17  18
ATOM     18  C   UNL     1       5.697  -4.919  25.989  0.00  0.00    +0.023 C 
ATOM     19  C   UNL     1       5.502  -6.125  26.910  0.00  0.00    +0.011 C 
BRANCH  18  20
ATOM     20  C   UNL     1       6.946  -5.062  25.097  0.00  0.00    +0.126 C 
BRANCH  20  21
ATOM     21  N   UNL     1       7.033  -4.170  23.949  0.00  0.00    -0.346 N 
ATOM     22  C   UNL     1       8.102  -3.351  23.631  0.00  0.00    +0.049 A 
ATOM     23  C   UNL     1       7.810  -2.765  22.394  0.00  0.00    -0.000 A 
ATOM     24  C   UNL     1       8.746  -1.891  21.807  0.00  0.00    +0.010 A 
ATOM     25  C   UNL     1       9.948  -1.624  22.467  0.00  0.00    +0.001 A 
ATOM     26  C   UNL     1      10.220  -2.208  23.701  0.00  0.00    +0.002 A 
ATOM     27  C   UNL     1       6.538  -3.243  21.986  0.00  0.00    +0.027 A 
ATOM     28  C   UNL     1       9.306  -3.080  24.303  0.00  0.00    +0.026 A 
ATOM     29  C   UNL     1       6.100  -4.126  22.943  0.00  0.00    +0.087 A 
ENDBRANCH  20  21
ENDBRANCH  18  20
ENDBRANCH  17  18
ENDBRANCH   1  17
TORSDOF 7
ENDMDL
MODEL 8
REMARK VINA RESULT:      -6.4      1.626      2.339
REMARK  Name = 
REMARK  8 active torsions:
REMARK  status: ('A' for Active; 'I' for Inactive)
REMARK    1  A    between atoms: C_2  and  C_3
REMARK    2  A    between atoms: C_2  and  C_4
REMARK    3  A    between atoms: C_2  and  C_18
REMARK    4  A    between atoms: C_4  and  N_5
REMARK    5  A    between atoms: C_6  and  C_8
REMARK    6  A    between atoms: C_11  and  S_14
REMARK    7  A    between atoms: S_14  and  N_15
REMARK    8  A    between atoms: C_18  and  N_19
REMARK                            x       y       z     vdW  Elec       q    Type
REMARK                         _______ _______ _______ _____ _____    ______ ____
ROOT
ATOM      1  N   UNL     1       7.322  -1.575  24.899  0.00  0.00    -0.311 N 
ATOM      2  H   UNL     1       7.322  -1.362  23.911  0.00  0.00    +0.149 HD
ATOM      3  C   UNL     1       7.311  -0.537  25.806  0.00  0.00    +0.244 C 
ATOM      4  O   UNL     1       7.511  -0.670  27.006  0.00  0.00    -0.270 OA
ENDROOT
BRANCH   3   5
ATOM      5  C   UNL     1       7.086   0.813  25.226  0.00  0.00    +0.037 A 
ATOM      6  C   UNL     1       7.432   1.937  25.987  0.00  0.00    +0.015 A 
ATOM      7  C   UNL     1       7.295   3.217  25.447  0.00  0.00    +0.029 A 
ATOM      8  C   UNL     1       6.790   3.368  24.151  0.00  0.00    +0.105 A 
ATOM      9  C   UNL     1       6.412   2.252  23.397  0.00  0.00    +0.029 A 
ATOM     10  C   UNL     1       6.552   0.973  23.939  0.00  0.00    +0.015 A 
BRANCH   8  11
ATOM     11  S   UNL     1       6.718   4.975  23.416  0.00  0.00    +0.056 S 
ATOM     12  O   UNL     1       7.710   5.819  24.039  0.00  0.00    -0.153 OA
ATOM     13  O   UNL     1       5.338   5.376  23.278  0.00  0.00    -0.153 OA
BRANCH  11  14
ATOM     14  N   UNL     1       7.273   4.677  21.861  0.00  0.00    -0.204 NA
ATOM     15  H   UNL     1       6.843   5.333  21.208  0.00  0.00    +0.144 HD
ATOM     16  H   UNL     1       7.112   3.698  21.620  0.00  0.00    +0.144 HD
ENDBRANCH  11  14
ENDBRANCH   8  11
ENDBRANCH   3   5
BRANCH   1  17
ATOM     17  C   UNL     1       7.600  -2.943  25.295  0.00  0.00    +0.109 C 
BRANCH  17  18
ATOM     18  C   UNL     1       8.697  -3.588  24.437  0.00  0.00    +0.023 C 
ATOM     19  C   UNL     1       9.142  -4.908  25.067  0.00  0.00    +0.011 C 
BRANCH  18  20
ATOM     20  C   UNL     1       9.885  -2.652  24.140  0.00  0.00    +0.126 C 
BRANCH  20  21
ATOM     21  N   UNL     1       9.660  -1.602  23.157  0.00  0.00    -0.346 N 
ATOM     22  C   UNL     1       9.982  -0.264  23.303  0.00  0.00    +0.049 A 
ATOM     23  C   UNL     1       9.702   0.357  22.080  0.00  0.00    -0.000 A 
ATOM     24  C   UNL     1       9.960   1.734  21.931  0.00  0.00    +0.010 A 
ATOM     25  C   UNL     1      10.490   2.456  23.003  0.00  0.00    +0.001 A 
ATOM     26  C   UNL     1      10.754   1.826  24.216  0.00  0.00    +0.002 A 
ATOM     27  C   UNL     1       9.196  -0.638  21.204  0.00  0.00    +0.027 A 
ATOM     28  C   UNL     1      10.507   0.459  24.388  0.00  0.00    +0.026 A 
ATOM     29  C   UNL     1       9.210  -1.833  21.881  0.00  0.00    +0.087 A 
ENDBRANCH  20  21
ENDBRANCH  18  20
ENDBRANCH  17  18
ENDBRANCH   1  17
TORSDOF 7
ENDMDL
MODEL 9
REMARK VINA RESULT:      -6.3      2.197      4.886
REMARK  Name = 
REMARK  8 active torsions:
REMARK  status: ('A' for Active; 'I' for Inactive)
REMARK    1  A    between atoms: C_2  and  C_3
REMARK    2  A    between atoms: C_2  and  C_4
REMARK    3  A    between atoms: C_2  and  C_18
REMARK    4  A    between atoms: C_4  and  N_5
REMARK    5  A    between atoms: C_6  and  C_8
REMARK    6  A    between atoms: C_11  and  S_14
REMARK    7  A    between atoms: S_14  and  N_15
REMARK    8  A    between atoms: C_18  and  N_19
REMARK                            x       y       z     vdW  Elec       q    Type
REMARK                         _______ _______ _______ _____ _____    ______ ____
ROOT
ATOM      1  N   UNL     1       9.521  -0.590  23.736  0.00  0.00    -0.311 N 
ATOM      2  H   UNL     1       9.101  -0.209  24.573  0.00  0.00    +0.149 HD
ATOM      3  C   UNL     1       9.498   0.159  22.578  0.00  0.00    +0.244 C 
ATOM      4  O   UNL     1       9.791  -0.276  21.473  0.00  0.00    -0.270 OA
ENDROOT
BRANCH   3   5
ATOM      5  C   UNL     1       9.035   1.563  22.737  0.00  0.00    +0.037 A 
ATOM      6  C   UNL     1       9.754   2.415  23.582  0.00  0.00    +0.015 A 
ATOM      7  C   UNL     1       9.385   3.757  23.702  0.00  0.00    +0.029 A 
ATOM      8  C   UNL     1       8.280   4.234  22.990  0.00  0.00    +0.105 A 
ATOM      9  C   UNL     1       7.536   3.380  22.169  0.00  0.00    +0.029 A 
ATOM     10  C   UNL     1       7.910   2.039  22.049  0.00  0.00    +0.015 A 
BRANCH   8  11
ATOM     11  S   UNL     1       7.872   5.954  23.047  0.00  0.00    +0.056 S 
ATOM     12  O   UNL     1       9.074   6.711  23.302  0.00  0.00    -0.153 OA
ATOM     13  O   UNL     1       6.666   6.133  23.820  0.00  0.00    -0.153 OA
BRANCH  11  14
ATOM     14  N   UNL     1       7.454   6.270  21.453  0.00  0.00    -0.204 NA
ATOM     15  H   UNL     1       6.454   6.122  21.321  0.00  0.00    +0.144 HD
ATOM     16  H   UNL     1       8.036   5.711  20.828  0.00  0.00    +0.144 HD
ENDBRANCH  11  14
ENDBRANCH   8  11
ENDBRANCH   3   5
BRANCH   1  17
ATOM     17  C   UNL     1       9.879  -1.995  23.738  0.00  0.00    +0.109 C 
BRANCH  17  18
ATOM     18  C   UNL     1       8.653  -2.911  23.863  0.00  0.00    +0.023 C 
ATOM     19  C   UNL     1       9.037  -4.201  24.587  0.00  0.00    +0.011 C 
BRANCH  18  20
ATOM     20  C   UNL     1       7.942  -3.183  22.523  0.00  0.00    +0.126 C 
BRANCH  20  21
ATOM     21  N   UNL     1       7.009  -4.301  22.493  0.00  0.00    -0.346 N 
ATOM     22  C   UNL     1       5.765  -4.343  23.097  0.00  0.00    +0.049 A 
ATOM     23  C   UNL     1       5.169  -5.551  22.715  0.00  0.00    -0.000 A 
ATOM     24  C   UNL     1       3.871  -5.853  23.170  0.00  0.00    +0.010 A 
ATOM     25  C   UNL     1       3.200  -4.945  23.993  0.00  0.00    +0.001 A 
ATOM     26  C   UNL     1       3.810  -3.752  24.371  0.00  0.00    +0.002 A 
ATOM     27  C   UNL     1       6.089  -6.233  21.878  0.00  0.00    +0.027 A 
ATOM     28  C   UNL     1       5.099  -3.430  23.931  0.00  0.00    +0.026 A 
ATOM     29  C   UNL     1       7.195  -5.430  21.735  0.00  0.00    +0.087 A 
ENDBRANCH  20  21
ENDBRANCH  18  20
ENDBRANCH  17  18
ENDBRANCH   1  17
TORSDOF 7
ENDMDL
