MODEL 1
REMARK VINA RESULT:      -6.1      0.000      0.000
REMARK  Name = 
REMARK  11 active torsions:
REMARK  status: ('A' for Active; 'I' for Inactive)
REMARK    1  A    between atoms: C_1  and  O_2
REMARK    2  A    between atoms: O_2  and  C_3
REMARK    3  A    between atoms: C_4  and  O_5
REMARK    4  A    between atoms: O_5  and  C_6
REMARK    5  A    between atoms: C_7  and  C_8
REMARK    6  A    between atoms: C_8  and  N_9
REMARK    7  A    between atoms: C_12  and  N_15
REMARK    8  A    between atoms: C_16  and  C_18
REMARK    9  A    between atoms: C_18  and  C_19
REMARK   10  A    between atoms: C_19  and  C_20
REMARK   11  A    between atoms: C_20  and  S_21
REMARK                            x       y       z     vdW  Elec       q    Type
REMARK                         _______ _______ _______ _____ _____    ______ ____
ROOT
ATOM      1  N   UNL     1       8.415  -3.004  24.447  0.00  0.00    -0.298 NA
ATOM      2  C   UNL     1       7.540  -1.833  24.355  0.00  0.00    +0.086 C 
ATOM      3  C   UNL     1       7.721  -0.856  23.179  0.00  0.00    +0.037 C 
ATOM      4  C   UNL     1       9.161  -0.733  22.658  0.00  0.00    +0.075 C 
ATOM      5  C   UNL     1       9.959  -2.029  22.755  0.00  0.00    +0.037 C 
ATOM      6  C   UNL     1       9.808  -2.669  24.134  0.00  0.00    +0.086 C 
ENDROOT
BRANCH   4   7
ATOM      7  N   UNL     1       9.862   0.319  23.380  0.00  0.00    -0.312 N 
ATOM      8  H   UNL     1       9.891   0.258  24.387  0.00  0.00    +0.149 HD
ATOM      9  C   UNL     1      10.082   1.548  22.799  0.00  0.00    +0.213 C 
ATOM     10  O   UNL     1       9.911   1.782  21.613  0.00  0.00    -0.276 OA
BRANCH   9  11
ATOM     11  C   UNL     1      10.536   2.581  23.807  0.00  0.00    +0.096 C 
BRANCH  11  12
ATOM     12  C   UNL     1       9.650   3.824  23.780  0.00  0.00    +0.020 C 
BRANCH  12  13
ATOM     13  C   UNL     1      10.480   5.109  23.834  0.00  0.00    +0.066 C 
BRANCH  13  14
ATOM     14  S   UNL     1      12.171   4.799  23.257  0.00  0.00    -0.178 S 
ATOM     15  H   UNL     1      11.878   3.746  22.479  0.00  0.00    +0.102 HD
ENDBRANCH  13  14
ENDBRANCH  12  13
ENDBRANCH  11  12
ENDBRANCH   9  11
ENDBRANCH   4   7
BRANCH   1  16
ATOM     16  C   UNL     1       8.033  -4.268  23.796  0.00  0.00    +0.123 C 
BRANCH  16  22
ATOM     17  C   UNL     1       4.450  -5.719  23.453  0.00  0.00    +0.163 A 
ATOM     18  C   UNL     1       4.276  -6.150  24.774  0.00  0.00    +0.064 A 
ATOM     19  C   UNL     1       5.248  -5.913  25.730  0.00  0.00    +0.022 A 
ATOM     20 BR   UNL     1       5.033  -6.567  27.489  0.00  0.00    -0.050 Br
ATOM     21  C   UNL     1       6.404  -5.232  25.381  0.00  0.00    +0.024 A 
ATOM     22  C   UNL     1       6.654  -4.832  24.040  0.00  0.00    +0.013 A 
ATOM     23  C   UNL     1       5.653  -5.069  23.064  0.00  0.00    +0.166 A 
BRANCH  17  25
ATOM     24  C   UNL     1       2.217  -6.630  23.286  0.00  0.00    +0.277 C 
ATOM     25  O   UNL     1       3.351  -6.028  22.684  0.00  0.00    -0.491 OA
ENDBRANCH  17  25
BRANCH  23  26
ATOM     26  O   UNL     1       5.682  -4.737  21.743  0.00  0.00    -0.491 OA
ATOM     27  C   UNL     1       6.195  -5.528  20.704  0.00  0.00    +0.277 C 
ENDBRANCH  23  26
ENDBRANCH  16  22
ENDBRANCH   1  16
TORSDOF 9
ENDMDL
MODEL 2
REMARK VINA RESULT:      -6.0      3.281      4.543
REMARK  Name = 
REMARK  11 active torsions:
REMARK  status: ('A' for Active; 'I' for Inactive)
REMARK    1  A    between atoms: C_1  and  O_2
REMARK    2  A    between atoms: O_2  and  C_3
REMARK    3  A    between atoms: C_4  and  O_5
REMARK    4  A    between atoms: O_5  and  C_6
REMARK    5  A    between atoms: C_7  and  C_8
REMARK    6  A    between atoms: C_8  and  N_9
REMARK    7  A    between atoms: C_12  and  N_15
REMARK    8  A    between atoms: C_16  and  C_18
REMARK    9  A    between atoms: C_18  and  C_19
REMARK   10  A    between atoms: C_19  and  C_20
REMARK   11  A    between atoms: C_20  and  S_21
REMARK                            x       y       z     vdW  Elec       q    Type
REMARK                         _______ _______ _______ _____ _____    ______ ____
ROOT
ATOM      1  N   UNL     1       7.770   0.523  23.498  0.00  0.00    -0.298 NA
ATOM      2  C   UNL     1       7.047   1.555  24.246  0.00  0.00    +0.086 C 
ATOM      3  C   UNL     1       6.476   2.766  23.488  0.00  0.00    +0.037 C 
ATOM      4  C   UNL     1       7.284   3.193  22.253  0.00  0.00    +0.075 C 
ATOM      5  C   UNL     1       7.948   2.029  21.524  0.00  0.00    +0.037 C 
ATOM      6  C   UNL     1       8.674   1.107  22.502  0.00  0.00    +0.086 C 
ENDROOT
BRANCH   4   7
ATOM      7  N   UNL     1       8.300   4.163  22.635  0.00  0.00    -0.312 N 
ATOM      8  H   UNL     1       9.035   3.854  23.254  0.00  0.00    +0.149 HD
ATOM      9  C   UNL     1       8.053   5.515  22.547  0.00  0.00    +0.213 C 
ATOM     10  O   UNL     1       7.094   5.997  21.967  0.00  0.00    -0.276 OA
BRANCH   9  11
ATOM     11  C   UNL     1       9.098   6.333  23.275  0.00  0.00    +0.096 C 
BRANCH  11  12
ATOM     12  C   UNL     1      10.092   5.445  24.019  0.00  0.00    +0.020 C 
BRANCH  12  13
ATOM     13  C   UNL     1      11.479   6.088  24.092  0.00  0.00    +0.066 C 
BRANCH  13  14
ATOM     14  S   UNL     1      12.672   5.140  23.109  0.00  0.00    -0.178 S 
ATOM     15  H   UNL     1      12.747   6.001  22.084  0.00  0.00    +0.102 HD
ENDBRANCH  13  14
ENDBRANCH  12  13
ENDBRANCH  11  12
ENDBRANCH   9  11
ENDBRANCH   4   7
BRANCH   1  16
ATOM     16  C   UNL     1       7.045  -0.622  22.924  0.00  0.00    +0.123 C 
BRANCH  16  22
ATOM     17  C   UNL     1       8.383  -3.808  24.690  0.00  0.00    +0.163 A 
ATOM     18  C   UNL     1       7.935  -4.760  23.766  0.00  0.00    +0.064 A 
ATOM     19  C   UNL     1       7.295  -4.369  22.602  0.00  0.00    +0.022 A 
ATOM     20 BR   UNL     1       6.627  -5.666  21.402  0.00  0.00    -0.050 Br
ATOM     21  C   UNL     1       7.105  -3.021  22.341  0.00  0.00    +0.024 A 
ATOM     22  C   UNL     1       7.486  -2.023  23.279  0.00  0.00    +0.013 A 
ATOM     23  C   UNL     1       8.148  -2.424  24.467  0.00  0.00    +0.166 A 
BRANCH  17  25
ATOM     24  C   UNL     1       8.251  -5.061  26.754  0.00  0.00    +0.277 C 
ATOM     25  O   UNL     1       9.017  -4.413  25.752  0.00  0.00    -0.491 OA
ENDBRANCH  17  25
BRANCH  23  26
ATOM     26  O   UNL     1       8.620  -1.630  25.468  0.00  0.00    -0.491 OA
ATOM     27  C   UNL     1       7.931  -1.284  26.640  0.00  0.00    +0.277 C 
ENDBRANCH  23  26
ENDBRANCH  16  22
ENDBRANCH   1  16
TORSDOF 9
ENDMDL
MODEL 3
REMARK VINA RESULT:      -6.0      2.885      4.125
REMARK  Name = 
REMARK  11 active torsions:
REMARK  status: ('A' for Active; 'I' for Inactive)
REMARK    1  A    between atoms: C_1  and  O_2
REMARK    2  A    between atoms: O_2  and  C_3
REMARK    3  A    between atoms: C_4  and  O_5
REMARK    4  A    between atoms: O_5  and  C_6
REMARK    5  A    between atoms: C_7  and  C_8
REMARK    6  A    between atoms: C_8  and  N_9
REMARK    7  A    between atoms: C_12  and  N_15
REMARK    8  A    between atoms: C_16  and  C_18
REMARK    9  A    between atoms: C_18  and  C_19
REMARK   10  A    between atoms: C_19  and  C_20
REMARK   11  A    between atoms: C_20  and  S_21
REMARK                            x       y       z     vdW  Elec       q    Type
REMARK                         _______ _______ _______ _____ _____    ______ ____
ROOT
ATOM      1  N   UNL     1       8.750  -0.112  23.655  0.00  0.00    -0.298 NA
ATOM      2  C   UNL     1       8.501   0.672  22.443  0.00  0.00    +0.086 C 
ATOM      3  C   UNL     1       9.624   1.567  21.888  0.00  0.00    +0.037 C 
ATOM      4  C   UNL     1      10.571   2.147  22.950  0.00  0.00    +0.075 C 
ATOM      5  C   UNL     1      10.796   1.219  24.140  0.00  0.00    +0.037 C 
ATOM      6  C   UNL     1       9.474   0.664  24.666  0.00  0.00    +0.086 C 
ENDROOT
BRANCH   4   7
ATOM      7  N   UNL     1      10.060   3.424  23.427  0.00  0.00    -0.312 N 
ATOM      8  H   UNL     1       9.064   3.581  23.373  0.00  0.00    +0.149 HD
ATOM      9  C   UNL     1      10.885   4.523  23.520  0.00  0.00    +0.213 C 
ATOM     10  O   UNL     1      12.100   4.473  23.425  0.00  0.00    -0.276 OA
BRANCH   9  11
ATOM     11  C   UNL     1      10.106   5.803  23.730  0.00  0.00    +0.096 C 
BRANCH  11  12
ATOM     12  C   UNL     1       8.924   5.596  24.674  0.00  0.00    +0.020 C 
BRANCH  12  13
ATOM     13  C   UNL     1       7.663   6.295  24.161  0.00  0.00    +0.066 C 
BRANCH  13  14
ATOM     14  S   UNL     1       7.643   6.320  22.348  0.00  0.00    -0.178 S 
ATOM     15  H   UNL     1       8.260   5.143  22.170  0.00  0.00    +0.102 HD
ENDBRANCH  13  14
ENDBRANCH  12  13
ENDBRANCH  11  12
ENDBRANCH   9  11
ENDBRANCH   4   7
BRANCH   1  16
ATOM     16  C   UNL     1       9.306  -1.472  23.558  0.00  0.00    +0.123 C 
BRANCH  16  22
ATOM     17  C   UNL     1       6.989  -3.990  25.390  0.00  0.00    +0.163 A 
ATOM     18  C   UNL     1       6.649  -4.792  24.294  0.00  0.00    +0.064 A 
ATOM     19  C   UNL     1       7.205  -4.559  23.047  0.00  0.00    +0.022 A 
ATOM     20 BR   UNL     1       6.679  -5.601  21.561  0.00  0.00    -0.050 Br
ATOM     21  C   UNL     1       8.116  -3.527  22.882  0.00  0.00    +0.024 A 
ATOM     22  C   UNL     1       8.442  -2.648  23.950  0.00  0.00    +0.013 A 
ATOM     23  C   UNL     1       7.878  -2.893  25.228  0.00  0.00    +0.166 A 
BRANCH  17  25
ATOM     24  C   UNL     1       6.982  -5.359  27.383  0.00  0.00    +0.277 C 
ATOM     25  O   UNL     1       6.350  -4.418  26.532  0.00  0.00    -0.491 OA
ENDBRANCH  17  25
BRANCH  23  26
ATOM     26  O   UNL     1       8.087  -2.194  26.379  0.00  0.00    -0.491 OA
ATOM     27  C   UNL     1       7.308  -1.126  26.848  0.00  0.00    +0.277 C 
ENDBRANCH  23  26
ENDBRANCH  16  22
ENDBRANCH   1  16
TORSDOF 9
ENDMDL
MODEL 4
REMARK VINA RESULT:      -6.0      4.306      9.145
REMARK  Name = 
REMARK  11 active torsions:
REMARK  status: ('A' for Active; 'I' for Inactive)
REMARK    1  A    between atoms: C_1  and  O_2
REMARK    2  A    between atoms: O_2  and  C_3
REMARK    3  A    between atoms: C_4  and  O_5
REMARK    4  A    between atoms: O_5  and  C_6
REMARK    5  A    between atoms: C_7  and  C_8
REMARK    6  A    between atoms: C_8  and  N_9
REMARK    7  A    between atoms: C_12  and  N_15
REMARK    8  A    between atoms: C_16  and  C_18
REMARK    9  A    between atoms: C_18  and  C_19
REMARK   10  A    between atoms: C_19  and  C_20
REMARK   11  A    between atoms: C_20  and  S_21
REMARK                            x       y       z     vdW  Elec       q    Type
REMARK                         _______ _______ _______ _____ _____    ______ ____
ROOT
ATOM      1  N   UNL     1       8.986   0.509  23.644  0.00  0.00    -0.298 NA
ATOM      2  C   UNL     1       8.252  -0.325  24.599  0.00  0.00    +0.086 C 
ATOM      3  C   UNL     1       8.704  -1.779  24.824  0.00  0.00    +0.037 C 
ATOM      4  C   UNL     1       9.333  -2.457  23.597  0.00  0.00    +0.075 C 
ATOM      5  C   UNL     1      10.118  -1.500  22.705  0.00  0.00    +0.037 C 
ATOM      6  C   UNL     1       9.320  -0.229  22.422  0.00  0.00    +0.086 C 
ENDROOT
BRANCH   4   7
ATOM      7  N   UNL     1       8.300  -3.111  22.808  0.00  0.00    -0.312 N 
ATOM      8  H   UNL     1       7.673  -2.524  22.276  0.00  0.00    +0.149 HD
ATOM      9  C   UNL     1       7.893  -4.393  23.102  0.00  0.00    +0.213 C 
ATOM     10  O   UNL     1       8.482  -5.136  23.870  0.00  0.00    -0.276 OA
BRANCH   9  11
ATOM     11  C   UNL     1       6.616  -4.765  22.379  0.00  0.00    +0.096 C 
BRANCH  11  12
ATOM     12  C   UNL     1       5.598  -3.628  22.411  0.00  0.00    +0.020 C 
BRANCH  12  13
ATOM     13  C   UNL     1       4.578  -3.816  23.536  0.00  0.00    +0.066 C 
BRANCH  13  14
ATOM     14  S   UNL     1       4.963  -2.724  24.931  0.00  0.00    -0.178 S 
ATOM     15  H   UNL     1       6.273  -2.599  24.673  0.00  0.00    +0.102 HD
ENDBRANCH  13  14
ENDBRANCH  12  13
ENDBRANCH  11  12
ENDBRANCH   9  11
ENDBRANCH   4   7
BRANCH   1  16
ATOM     16  C   UNL     1      10.139   1.308  24.091  0.00  0.00    +0.123 C 
BRANCH  16  22
ATOM     17  C   UNL     1       9.236   5.082  24.151  0.00  0.00    +0.163 A 
ATOM     18  C   UNL     1      10.460   5.593  23.701  0.00  0.00    +0.064 A 
ATOM     19  C   UNL     1      11.490   4.744  23.335  0.00  0.00    +0.022 A 
ATOM     20 BR   UNL     1      13.160   5.449  22.803  0.00  0.00    -0.050 Br
ATOM     21  C   UNL     1      11.307   3.372  23.403  0.00  0.00    +0.024 A 
ATOM     22  C   UNL     1      10.106   2.808  23.914  0.00  0.00    +0.013 A 
ATOM     23  C   UNL     1       9.049   3.679  24.281  0.00  0.00    +0.166 A 
BRANCH  17  25
ATOM     24  C   UNL     1       7.762   6.829  23.363  0.00  0.00    +0.277 C 
ATOM     25  O   UNL     1       8.348   6.097  24.427  0.00  0.00    -0.491 OA
ENDBRANCH  17  25
BRANCH  23  26
ATOM     26  O   UNL     1       7.818   3.341  24.755  0.00  0.00    -0.491 OA
ATOM     27  C   UNL     1       7.496   3.067  26.093  0.00  0.00    +0.277 C 
ENDBRANCH  23  26
ENDBRANCH  16  22
ENDBRANCH   1  16
TORSDOF 9
ENDMDL
MODEL 5
REMARK VINA RESULT:      -5.9      1.764      2.171
REMARK  Name = 
REMARK  11 active torsions:
REMARK  status: ('A' for Active; 'I' for Inactive)
REMARK    1  A    between atoms: C_1  and  O_2
REMARK    2  A    between atoms: O_2  and  C_3
REMARK    3  A    between atoms: C_4  and  O_5
REMARK    4  A    between atoms: O_5  and  C_6
REMARK    5  A    between atoms: C_7  and  C_8
REMARK    6  A    between atoms: C_8  and  N_9
REMARK    7  A    between atoms: C_12  and  N_15
REMARK    8  A    between atoms: C_16  and  C_18
REMARK    9  A    between atoms: C_18  and  C_19
REMARK   10  A    between atoms: C_19  and  C_20
REMARK   11  A    between atoms: C_20  and  S_21
REMARK                            x       y       z     vdW  Elec       q    Type
REMARK                         _______ _______ _______ _____ _____    ______ ____
ROOT
ATOM      1  N   UNL     1       7.491  -3.268  23.623  0.00  0.00    -0.298 NA
ATOM      2  C   UNL     1       8.582  -2.797  22.765  0.00  0.00    +0.086 C 
ATOM      3  C   UNL     1       9.815  -2.144  23.415  0.00  0.00    +0.037 C 
ATOM      4  C   UNL     1       9.530  -1.380  24.717  0.00  0.00    +0.075 C 
ATOM      5  C   UNL     1       8.411  -1.994  25.553  0.00  0.00    +0.037 C 
ATOM      6  C   UNL     1       7.190  -2.313  24.693  0.00  0.00    +0.086 C 
ENDROOT
BRANCH   4   7
ATOM      7  N   UNL     1       9.201   0.006  24.417  0.00  0.00    -0.312 N 
ATOM      8  H   UNL     1       8.310   0.193  23.980  0.00  0.00    +0.149 HD
ATOM      9  C   UNL     1      10.190   0.957  24.305  0.00  0.00    +0.213 C 
ATOM     10  O   UNL     1      11.349   0.779  24.644  0.00  0.00    -0.276 OA
BRANCH   9  11
ATOM     11  C   UNL     1       9.678   2.242  23.691  0.00  0.00    +0.096 C 
BRANCH  11  12
ATOM     12  C   UNL     1       9.611   2.152  22.168  0.00  0.00    +0.020 C 
BRANCH  12  13
ATOM     13  C   UNL     1       8.175   1.950  21.678  0.00  0.00    +0.066 C 
BRANCH  13  14
ATOM     14  S   UNL     1       7.063   3.152  22.457  0.00  0.00    -0.178 S 
ATOM     15  H   UNL     1       8.019   3.920  22.998  0.00  0.00    +0.102 HD
ENDBRANCH  13  14
ENDBRANCH  12  13
ENDBRANCH  11  12
ENDBRANCH   9  11
ENDBRANCH   4   7
BRANCH   1  16
ATOM     16  C   UNL     1       7.504  -4.642  24.151  0.00  0.00    +0.123 C 
BRANCH  16  22
ATOM     17  C   UNL     1       4.047  -6.407  24.113  0.00  0.00    +0.163 A 
ATOM     18  C   UNL     1       3.983  -6.763  25.466  0.00  0.00    +0.064 A 
ATOM     19  C   UNL     1       4.982  -6.383  26.346  0.00  0.00    +0.022 A 
ATOM     20 BR   UNL     1       4.921  -6.935  28.152  0.00  0.00    -0.050 Br
ATOM     21  C   UNL     1       6.054  -5.632  25.887  0.00  0.00    +0.024 A 
ATOM     22  C   UNL     1       6.194  -5.302  24.512  0.00  0.00    +0.013 A 
ATOM     23  C   UNL     1       5.166  -5.686  23.613  0.00  0.00    +0.166 A 
BRANCH  17  25
ATOM     24  C   UNL     1       2.163  -7.915  23.969  0.00  0.00    +0.277 C 
ATOM     25  O   UNL     1       2.939  -6.857  23.432  0.00  0.00    -0.491 OA
ENDBRANCH  17  25
BRANCH  23  26
ATOM     26  O   UNL     1       5.094  -5.440  22.275  0.00  0.00    -0.491 OA
ATOM     27  C   UNL     1       6.006  -5.882  21.305  0.00  0.00    +0.277 C 
ENDBRANCH  23  26
ENDBRANCH  16  22
ENDBRANCH   1  16
TORSDOF 9
ENDMDL
MODEL 6
REMARK VINA RESULT:      -5.7      2.174      2.793
REMARK  Name = 
REMARK  11 active torsions:
REMARK  status: ('A' for Active; 'I' for Inactive)
REMARK    1  A    between atoms: C_1  and  O_2
REMARK    2  A    between atoms: O_2  and  C_3
REMARK    3  A    between atoms: C_4  and  O_5
REMARK    4  A    between atoms: O_5  and  C_6
REMARK    5  A    between atoms: C_7  and  C_8
REMARK    6  A    between atoms: C_8  and  N_9
REMARK    7  A    between atoms: C_12  and  N_15
REMARK    8  A    between atoms: C_16  and  C_18
REMARK    9  A    between atoms: C_18  and  C_19
REMARK   10  A    between atoms: C_19  and  C_20
REMARK   11  A    between atoms: C_20  and  S_21
REMARK                            x       y       z     vdW  Elec       q    Type
REMARK                         _______ _______ _______ _____ _____    ______ ____
ROOT
ATOM      1  N   UNL     1       8.274  -2.693  23.958  0.00  0.00    -0.298 NA
ATOM      2  C   UNL     1       7.442  -1.509  24.186  0.00  0.00    +0.086 C 
ATOM      3  C   UNL     1       7.330  -0.449  23.075  0.00  0.00    +0.037 C 
ATOM      4  C   UNL     1       8.580  -0.304  22.193  0.00  0.00    +0.075 C 
ATOM      5  C   UNL     1       9.335  -1.613  21.983  0.00  0.00    +0.037 C 
ATOM      6  C   UNL     1       9.540  -2.351  23.304  0.00  0.00    +0.086 C 
ENDROOT
BRANCH   4   7
ATOM      7  N   UNL     1       9.481   0.683  22.769  0.00  0.00    -0.312 N 
ATOM      8  H   UNL     1      10.033   0.406  23.568  0.00  0.00    +0.149 HD
ATOM      9  C   UNL     1       9.284   2.029  22.554  0.00  0.00    +0.213 C 
ATOM     10  O   UNL     1       8.507   2.481  21.728  0.00  0.00    -0.276 OA
BRANCH   9  11
ATOM     11  C   UNL     1      10.125   2.882  23.479  0.00  0.00    +0.096 C 
BRANCH  11  12
ATOM     12  C   UNL     1       9.330   4.060  24.038  0.00  0.00    +0.020 C 
BRANCH  12  13
ATOM     13  C   UNL     1      10.117   5.369  23.938  0.00  0.00    +0.066 C 
BRANCH  13  14
ATOM     14  S   UNL     1       8.995   6.792  24.012  0.00  0.00    -0.178 S 
ATOM     15  H   UNL     1       8.016   6.182  24.694  0.00  0.00    +0.102 HD
ENDBRANCH  13  14
ENDBRANCH  12  13
ENDBRANCH  11  12
ENDBRANCH   9  11
ENDBRANCH   4   7
BRANCH   1  16
ATOM     16  C   UNL     1       7.692  -3.902  23.350  0.00  0.00    +0.123 C 
BRANCH  16  22
ATOM     17  C   UNL     1       5.847  -6.011  26.034  0.00  0.00    +0.163 A 
ATOM     18  C   UNL     1       4.550  -5.920  25.511  0.00  0.00    +0.064 A 
ATOM     19  C   UNL     1       4.314  -5.265  24.315  0.00  0.00    +0.022 A 
ATOM     20 BR   UNL     1       2.551  -5.083  23.662  0.00  0.00    -0.050 Br
ATOM     21  C   UNL     1       5.372  -4.702  23.619  0.00  0.00    +0.024 A 
ATOM     22  C   UNL     1       6.694  -4.714  24.140  0.00  0.00    +0.013 A 
ATOM     23  C   UNL     1       6.936  -5.392  25.363  0.00  0.00    +0.166 A 
BRANCH  17  25
ATOM     24  C   UNL     1       4.698  -6.760  28.025  0.00  0.00    +0.277 C 
ATOM     25  O   UNL     1       5.856  -6.730  27.208  0.00  0.00    -0.491 OA
ENDBRANCH  17  25
BRANCH  23  26
ATOM     26  O   UNL     1       8.125  -5.547  26.009  0.00  0.00    -0.491 OA
ATOM     27  C   UNL     1       8.834  -4.542  26.683  0.00  0.00    +0.277 C 
ENDBRANCH  23  26
ENDBRANCH  16  22
ENDBRANCH   1  16
TORSDOF 9
ENDMDL
MODEL 7
REMARK VINA RESULT:      -5.6      3.845      8.983
REMARK  Name = 
REMARK  11 active torsions:
REMARK  status: ('A' for Active; 'I' for Inactive)
REMARK    1  A    between atoms: C_1  and  O_2
REMARK    2  A    between atoms: O_2  and  C_3
REMARK    3  A    between atoms: C_4  and  O_5
REMARK    4  A    between atoms: O_5  and  C_6
REMARK    5  A    between atoms: C_7  and  C_8
REMARK    6  A    between atoms: C_8  and  N_9
REMARK    7  A    between atoms: C_12  and  N_15
REMARK    8  A    between atoms: C_16  and  C_18
REMARK    9  A    between atoms: C_18  and  C_19
REMARK   10  A    between atoms: C_19  and  C_20
REMARK   11  A    between atoms: C_20  and  S_21
REMARK                            x       y       z     vdW  Elec       q    Type
REMARK                         _______ _______ _______ _____ _____    ______ ____
ROOT
ATOM      1  N   UNL     1       9.710   0.040  22.723  0.00  0.00    -0.298 NA
ATOM      2  C   UNL     1       8.247   0.029  22.641  0.00  0.00    +0.086 C 
ATOM      3  C   UNL     1       7.460  -1.001  23.471  0.00  0.00    +0.037 C 
ATOM      4  C   UNL     1       8.188  -2.335  23.702  0.00  0.00    +0.075 C 
ATOM      5  C   UNL     1       9.702  -2.191  23.825  0.00  0.00    +0.037 C 
ATOM      6  C   UNL     1      10.266  -1.316  22.708  0.00  0.00    +0.086 C 
ENDROOT
BRANCH   4   7
ATOM      7  N   UNL     1       7.879  -3.262  22.624  0.00  0.00    -0.312 N 
ATOM      8  H   UNL     1       7.495  -2.881  21.772  0.00  0.00    +0.149 HD
ATOM      9  C   UNL     1       7.684  -4.602  22.880  0.00  0.00    +0.213 C 
ATOM     10  O   UNL     1       7.953  -5.139  23.942  0.00  0.00    -0.276 OA
BRANCH   9  11
ATOM     11  C   UNL     1       7.075  -5.324  21.698  0.00  0.00    +0.096 C 
BRANCH  11  12
ATOM     12  C   UNL     1       5.966  -6.279  22.132  0.00  0.00    +0.020 C 
BRANCH  12  13
ATOM     13  C   UNL     1       4.809  -5.533  22.800  0.00  0.00    +0.066 C 
BRANCH  13  14
ATOM     14  S   UNL     1       4.368  -6.321  24.373  0.00  0.00    -0.178 S 
ATOM     15  H   UNL     1       3.047  -6.115  24.285  0.00  0.00    +0.102 HD
ENDBRANCH  13  14
ENDBRANCH  12  13
ENDBRANCH  11  12
ENDBRANCH   9  11
ENDBRANCH   4   7
BRANCH   1  16
ATOM     16  C   UNL     1      10.390   0.862  23.738  0.00  0.00    +0.123 C 
BRANCH  16  22
ATOM     17  C   UNL     1       9.395   4.598  24.074  0.00  0.00    +0.163 A 
ATOM     18  C   UNL     1       8.262   4.437  24.883  0.00  0.00    +0.064 A 
ATOM     19  C   UNL     1       7.893   3.185  25.344  0.00  0.00    +0.022 A 
ATOM     20 BR   UNL     1       6.321   2.973  26.368  0.00  0.00    -0.050 Br
ATOM     21  C   UNL     1       8.659   2.078  25.012  0.00  0.00    +0.024 A 
ATOM     22  C   UNL     1       9.779   2.183  24.143  0.00  0.00    +0.013 A 
ATOM     23  C   UNL     1      10.159   3.467  23.678  0.00  0.00    +0.166 A 
BRANCH  17  25
ATOM     24  C   UNL     1       8.486   6.810  23.714  0.00  0.00    +0.277 C 
ATOM     25  O   UNL     1       9.593   5.924  23.761  0.00  0.00    -0.491 OA
ENDBRANCH  17  25
BRANCH  23  26
ATOM     26  O   UNL     1      11.211   3.784  22.873  0.00  0.00    -0.491 OA
ATOM     27  C   UNL     1      12.343   4.525  23.248  0.00  0.00    +0.277 C 
ENDBRANCH  23  26
ENDBRANCH  16  22
ENDBRANCH   1  16
TORSDOF 9
ENDMDL
MODEL 8
REMARK VINA RESULT:      -5.5      3.091      4.104
REMARK  Name = 
REMARK  11 active torsions:
REMARK  status: ('A' for Active; 'I' for Inactive)
REMARK    1  A    between atoms: C_1  and  O_2
REMARK    2  A    between atoms: O_2  and  C_3
REMARK    3  A    between atoms: C_4  and  O_5
REMARK    4  A    between atoms: O_5  and  C_6
REMARK    5  A    between atoms: C_7  and  C_8
REMARK    6  A    between atoms: C_8  and  N_9
REMARK    7  A    between atoms: C_12  and  N_15
REMARK    8  A    between atoms: C_16  and  C_18
REMARK    9  A    between atoms: C_18  and  C_19
REMARK   10  A    between atoms: C_19  and  C_20
REMARK   11  A    between atoms: C_20  and  S_21
REMARK                            x       y       z     vdW  Elec       q    Type
REMARK                         _______ _______ _______ _____ _____    ______ ____
ROOT
ATOM      1  N   UNL     1       8.940  -0.501  23.534  0.00  0.00    -0.298 NA
ATOM      2  C   UNL     1       7.687   0.225  23.759  0.00  0.00    +0.086 C 
ATOM      3  C   UNL     1       7.111   1.090  22.623  0.00  0.00    +0.037 C 
ATOM      4  C   UNL     1       8.160   1.718  21.694  0.00  0.00    +0.075 C 
ATOM      5  C   UNL     1       9.398   0.848  21.493  0.00  0.00    +0.037 C 
ATOM      6  C   UNL     1       9.926   0.322  22.826  0.00  0.00    +0.086 C 
ENDROOT
BRANCH   4   7
ATOM      7  N   UNL     1       8.566   3.018  22.210  0.00  0.00    -0.312 N 
ATOM      8  H   UNL     1       9.468   3.084  22.658  0.00  0.00    +0.149 HD
ATOM      9  C   UNL     1       7.630   3.988  22.491  0.00  0.00    +0.213 C 
ATOM     10  O   UNL     1       6.461   3.928  22.145  0.00  0.00    -0.276 OA
BRANCH   9  11
ATOM     11  C   UNL     1       8.215   5.127  23.298  0.00  0.00    +0.096 C 
BRANCH  11  12
ATOM     12  C   UNL     1       8.682   4.660  24.674  0.00  0.00    +0.020 C 
BRANCH  12  13
ATOM     13  C   UNL     1       7.539   4.669  25.691  0.00  0.00    +0.066 C 
BRANCH  13  14
ATOM     14  S   UNL     1       7.227   2.994  26.312  0.00  0.00    -0.178 S 
ATOM     15  H   UNL     1       6.002   3.235  26.800  0.00  0.00    +0.102 HD
ENDBRANCH  13  14
ENDBRANCH  12  13
ENDBRANCH  11  12
ENDBRANCH   9  11
ENDBRANCH   4   7
BRANCH   1  16
ATOM     16  C   UNL     1       8.918  -1.865  22.980  0.00  0.00    +0.123 C 
BRANCH  16  22
ATOM     17  C   UNL     1       7.651  -4.168  25.835  0.00  0.00    +0.163 A 
ATOM     18  C   UNL     1       6.870  -5.039  25.065  0.00  0.00    +0.064 A 
ATOM     19  C   UNL     1       6.823  -4.917  23.687  0.00  0.00    +0.022 A 
ATOM     20 BR   UNL     1       5.707  -6.050  22.668  0.00  0.00    -0.050 Br
ATOM     21  C   UNL     1       7.565  -3.928  23.059  0.00  0.00    +0.024 A 
ATOM     22  C   UNL     1       8.320  -2.982  23.803  0.00  0.00    +0.013 A 
ATOM     23  C   UNL     1       8.373  -3.113  25.214  0.00  0.00    +0.166 A 
BRANCH  17  25
ATOM     24  C   UNL     1       6.430  -5.155  27.674  0.00  0.00    +0.277 C 
ATOM     25  O   UNL     1       7.577  -4.490  27.171  0.00  0.00    -0.491 OA
ENDBRANCH  17  25
BRANCH  23  26
ATOM     26  O   UNL     1       9.060  -2.337  26.098  0.00  0.00    -0.491 OA
ATOM     27  C   UNL     1       8.536  -1.264  26.835  0.00  0.00    +0.277 C 
ENDBRANCH  23  26
ENDBRANCH  16  22
ENDBRANCH   1  16
TORSDOF 9
ENDMDL
MODEL 9
REMARK VINA RESULT:      -5.5      4.300      9.721
REMARK  Name = 
REMARK  11 active torsions:
REMARK  status: ('A' for Active; 'I' for Inactive)
REMARK    1  A    between atoms: C_1  and  O_2
REMARK    2  A    between atoms: O_2  and  C_3
REMARK    3  A    between atoms: C_4  and  O_5
REMARK    4  A    between atoms: O_5  and  C_6
REMARK    5  A    between atoms: C_7  and  C_8
REMARK    6  A    between atoms: C_8  and  N_9
REMARK    7  A    between atoms: C_12  and  N_15
REMARK    8  A    between atoms: C_16  and  C_18
REMARK    9  A    between atoms: C_18  and  C_19
REMARK   10  A    between atoms: C_19  and  C_20
REMARK   11  A    between atoms: C_20  and  S_21
REMARK                            x       y       z     vdW  Elec       q    Type
REMARK                         _______ _______ _______ _____ _____    ______ ____
ROOT
ATOM      1  N   UNL     1       9.733   1.231  23.905  0.00  0.00    -0.298 NA
ATOM      2  C   UNL     1      10.681   0.137  23.678  0.00  0.00    +0.086 C 
ATOM      3  C   UNL     1      10.317  -0.971  22.673  0.00  0.00    +0.037 C 
ATOM      4  C   UNL     1       8.814  -1.273  22.563  0.00  0.00    +0.075 C 
ATOM      5  C   UNL     1       7.928  -0.048  22.765  0.00  0.00    +0.037 C 
ATOM      6  C   UNL     1       8.353   0.744  23.999  0.00  0.00    +0.086 C 
ENDROOT
BRANCH   4   7
ATOM      7  N   UNL     1       8.442  -2.299  23.526  0.00  0.00    -0.312 N 
ATOM      8  H   UNL     1       8.918  -2.302  24.417  0.00  0.00    +0.149 HD
ATOM      9  C   UNL     1       7.829  -3.462  23.116  0.00  0.00    +0.213 C 
ATOM     10  O   UNL     1       7.369  -3.633  21.998  0.00  0.00    -0.276 OA
BRANCH   9  11
ATOM     11  C   UNL     1       7.812  -4.512  24.206  0.00  0.00    +0.096 C 
BRANCH  11  12
ATOM     12  C   UNL     1       9.160  -4.610  24.915  0.00  0.00    +0.020 C 
BRANCH  12  13
ATOM     13  C   UNL     1       8.999  -4.590  26.437  0.00  0.00    +0.066 C 
BRANCH  13  14
ATOM     14  S   UNL     1       7.323  -5.100  26.905  0.00  0.00    -0.178 S 
ATOM     15  H   UNL     1       6.672  -4.256  26.093  0.00  0.00    +0.102 HD
ENDBRANCH  13  14
ENDBRANCH  12  13
ENDBRANCH  11  12
ENDBRANCH   9  11
ENDBRANCH   4   7
BRANCH   1  16
ATOM     16  C   UNL     1       9.793   2.448  23.078  0.00  0.00    +0.123 C 
BRANCH  16  22
ATOM     17  C   UNL     1      10.783   5.958  24.403  0.00  0.00    +0.163 A 
ATOM     18  C   UNL     1       9.525   6.365  24.867  0.00  0.00    +0.064 A 
ATOM     19  C   UNL     1       8.439   5.509  24.810  0.00  0.00    +0.022 A 
ATOM     20 BR   UNL     1       6.733   6.098  25.368  0.00  0.00    -0.050 Br
ATOM     21  C   UNL     1       8.597   4.230  24.299  0.00  0.00    +0.024 A 
ATOM     22  C   UNL     1       9.838   3.796  23.758  0.00  0.00    +0.013 A 
ATOM     23  C   UNL     1      10.952   4.672  23.824  0.00  0.00    +0.166 A 
BRANCH  17  25
ATOM     24  C   UNL     1      12.341   7.108  25.851  0.00  0.00    +0.277 C 
ATOM     25  O   UNL     1      11.720   6.950  24.586  0.00  0.00    -0.491 OA
ENDBRANCH  17  25
BRANCH  23  26
ATOM     26  O   UNL     1      12.224   4.436  23.398  0.00  0.00    -0.491 OA
ATOM     27  C   UNL     1      12.919   5.176  22.430  0.00  0.00    +0.277 C 
ENDBRANCH  23  26
ENDBRANCH  16  22
ENDBRANCH   1  16
TORSDOF 9
ENDMDL
