MODEL 1
REMARK VINA RESULT:      -5.3      0.000      0.000
REMARK  Name = 
REMARK  10 active torsions:
REMARK  status: ('A' for Active; 'I' for Inactive)
REMARK    1  A    between atoms: C_2  and  N_3
REMARK    2  A    between atoms: C_2  and  C_4
REMARK    3  A    between atoms: C_2  and  C_11
REMARK    4  A    between atoms: C_4  and  C_5
REMARK    5  A    between atoms: C_11  and  O_13
REMARK    6  A    between atoms: C_11  and  C_14
REMARK    7  A    between atoms: C_14  and  O_16
REMARK    8  A    between atoms: O_16  and  C_17
REMARK    9  A    between atoms: C_17  and  C_18
REMARK   10  A    between atoms: C_17  and  C_19
REMARK                            x       y       z     vdW  Elec       q    Type
REMARK                         _______ _______ _______ _____ _____    ______ ____
ROOT
ATOM      1  C   UNL     1      10.184  -1.704  22.912  0.00  0.00    +0.091 C 
ENDROOT
BRANCH   1   2
ATOM      2  N   UNL     1       9.895  -1.578  21.467  0.00  0.00    -0.325 NA
ATOM      3  H   UNL     1       9.619  -2.490  21.096  0.00  0.00    +0.119 HD
ATOM      4  H   UNL     1       9.058  -0.997  21.358  0.00  0.00    +0.119 HD
ENDBRANCH   1   2
BRANCH   1   5
ATOM      5  C   UNL     1       9.123  -2.572  23.640  0.00  0.00    +0.239 C 
BRANCH   5   6
ATOM      6  C   UNL     1       7.837  -2.726  22.814  0.00  0.00    +0.338 C 
ATOM      7  O   UNL     1       6.970  -1.871  22.699  0.00  0.00    -0.248 OA
BRANCH   6   8
ATOM      8  O   UNL     1       7.772  -3.965  22.239  0.00  0.00    -0.460 OA
BRANCH   8   9
ATOM      9  C   UNL     1       6.480  -4.607  22.311  0.00  0.00    +0.170 C 
ATOM     10  C   UNL     1       6.358  -5.244  23.688  0.00  0.00    +0.052 C 
ATOM     11  C   UNL     1       6.372  -5.666  21.219  0.00  0.00    +0.052 C 
ENDBRANCH   8   9
ENDBRANCH   6   8
ENDBRANCH   5   6
BRANCH   5  12
ATOM     12  O   UNL     1       8.838  -2.007  24.926  0.00  0.00    -0.379 OA
ATOM     13  H   UNL     1       8.719  -2.735  25.556  0.00  0.00    +0.211 HD
ENDBRANCH   5  12
ENDBRANCH   1   5
BRANCH   1  14
ATOM     14  C   UNL     1      10.266  -0.254  23.468  0.00  0.00    +0.025 C 
BRANCH  14  15
ATOM     15  C   UNL     1       9.378   0.778  22.731  0.00  0.00    -0.009 C 
ATOM     16  C   UNL     1      10.199   1.979  22.218  0.00  0.00    +0.003 C 
ATOM     17  C   UNL     1      10.613   2.960  23.314  0.00  0.00    +0.000 C 
ATOM     18  C   UNL     1       9.431   3.392  24.177  0.00  0.00    +0.000 C 
ATOM     19  C   UNL     1       8.660   2.194  24.723  0.00  0.00    +0.000 C 
ATOM     20  C   UNL     1       8.205   1.279  23.589  0.00  0.00    +0.003 C 
ENDBRANCH  14  15
ENDBRANCH   1  14
TORSDOF 8
ENDMDL
MODEL 2
REMARK VINA RESULT:      -5.3      1.323      1.925
REMARK  Name = 
REMARK  10 active torsions:
REMARK  status: ('A' for Active; 'I' for Inactive)
REMARK    1  A    between atoms: C_2  and  N_3
REMARK    2  A    between atoms: C_2  and  C_4
REMARK    3  A    between atoms: C_2  and  C_11
REMARK    4  A    between atoms: C_4  and  C_5
REMARK    5  A    between atoms: C_11  and  O_13
REMARK    6  A    between atoms: C_11  and  C_14
REMARK    7  A    between atoms: C_14  and  O_16
REMARK    8  A    between atoms: O_16  and  C_17
REMARK    9  A    between atoms: C_17  and  C_18
REMARK   10  A    between atoms: C_17  and  C_19
REMARK                            x       y       z     vdW  Elec       q    Type
REMARK                         _______ _______ _______ _____ _____    ______ ____
ROOT
ATOM      1  C   UNL     1       9.775  -0.891  23.022  0.00  0.00    +0.091 C 
ENDROOT
BRANCH   1   2
ATOM      2  N   UNL     1      10.189  -1.797  21.928  0.00  0.00    -0.325 NA
ATOM      3  H   UNL     1      11.077  -1.473  21.538  0.00  0.00    +0.119 HD
ATOM      4  H   UNL     1      10.408  -2.711  22.335  0.00  0.00    +0.119 HD
ENDBRANCH   1   2
BRANCH   1   5
ATOM      5  C   UNL     1       9.443  -1.671  24.323  0.00  0.00    +0.239 C 
BRANCH   5   6
ATOM      6  C   UNL     1       9.327  -3.183  24.076  0.00  0.00    +0.338 C 
ATOM      7  O   UNL     1      10.170  -4.012  24.388  0.00  0.00    -0.248 OA
BRANCH   6   8
ATOM      8  O   UNL     1       8.160  -3.484  23.430  0.00  0.00    -0.460 OA
BRANCH   8   9
ATOM      9  C   UNL     1       7.731  -4.859  23.545  0.00  0.00    +0.170 C 
ATOM     10  C   UNL     1       7.187  -5.286  22.189  0.00  0.00    +0.052 C 
ATOM     11  C   UNL     1       6.653  -4.973  24.617  0.00  0.00    +0.052 C 
ENDBRANCH   8   9
ENDBRANCH   6   8
ENDBRANCH   5   6
BRANCH   5  12
ATOM     12  O   UNL     1       8.236  -1.155  24.898  0.00  0.00    -0.379 OA
ATOM     13  H   UNL     1       7.509  -1.754  24.662  0.00  0.00    +0.211 HD
ENDBRANCH   5  12
ENDBRANCH   1   5
BRANCH   1  14
ATOM     14  C   UNL     1       8.567  -0.076  22.479  0.00  0.00    +0.025 C 
BRANCH  14  15
ATOM     15  C   UNL     1       8.945   1.176  21.649  0.00  0.00    -0.009 C 
ATOM     16  C   UNL     1      10.204   1.873  22.202  0.00  0.00    +0.003 C 
ATOM     17  C   UNL     1       9.958   2.668  23.484  0.00  0.00    +0.000 C 
ATOM     18  C   UNL     1       8.776   3.624  23.352  0.00  0.00    +0.000 C 
ATOM     19  C   UNL     1       7.523   2.910  22.855  0.00  0.00    +0.000 C 
ATOM     20  C   UNL     1       7.795   2.190  21.537  0.00  0.00    +0.003 C 
ENDBRANCH  14  15
ENDBRANCH   1  14
TORSDOF 8
ENDMDL
MODEL 3
REMARK VINA RESULT:      -5.2      1.985      2.581
REMARK  Name = 
REMARK  10 active torsions:
REMARK  status: ('A' for Active; 'I' for Inactive)
REMARK    1  A    between atoms: C_2  and  N_3
REMARK    2  A    between atoms: C_2  and  C_4
REMARK    3  A    between atoms: C_2  and  C_11
REMARK    4  A    between atoms: C_4  and  C_5
REMARK    5  A    between atoms: C_11  and  O_13
REMARK    6  A    between atoms: C_11  and  C_14
REMARK    7  A    between atoms: C_14  and  O_16
REMARK    8  A    between atoms: O_16  and  C_17
REMARK    9  A    between atoms: C_17  and  C_18
REMARK   10  A    between atoms: C_17  and  C_19
REMARK                            x       y       z     vdW  Elec       q    Type
REMARK                         _______ _______ _______ _____ _____    ______ ____
ROOT
ATOM      1  C   UNL     1       8.409  -1.940  24.864  0.00  0.00    +0.091 C 
ENDROOT
BRANCH   1   2
ATOM      2  N   UNL     1       8.422  -2.450  26.253  0.00  0.00    -0.325 NA
ATOM      3  H   UNL     1       9.362  -2.779  26.485  0.00  0.00    +0.119 HD
ATOM      4  H   UNL     1       8.268  -1.659  26.886  0.00  0.00    +0.119 HD
ENDBRANCH   1   2
BRANCH   1   5
ATOM      5  C   UNL     1       8.947  -2.993  23.858  0.00  0.00    +0.239 C 
BRANCH   5   6
ATOM      6  C   UNL     1       8.889  -4.419  24.428  0.00  0.00    +0.338 C 
ATOM      7  O   UNL     1       9.833  -5.013  24.932  0.00  0.00    -0.248 OA
BRANCH   6   8
ATOM      8  O   UNL     1       7.641  -4.956  24.275  0.00  0.00    -0.460 OA
BRANCH   8   9
ATOM      9  C   UNL     1       7.033  -4.735  22.983  0.00  0.00    +0.170 C 
ATOM     10  C   UNL     1       5.552  -4.469  23.211  0.00  0.00    +0.052 C 
ATOM     11  C   UNL     1       7.229  -5.967  22.106  0.00  0.00    +0.052 C 
ENDBRANCH   8   9
ENDBRANCH   6   8
ENDBRANCH   5   6
BRANCH   5  12
ATOM     12  O   UNL     1      10.285  -2.652  23.474  0.00  0.00    -0.379 OA
ATOM     13  H   UNL     1      10.883  -3.330  23.829  0.00  0.00    +0.211 HD
ENDBRANCH   5  12
ENDBRANCH   1   5
BRANCH   1  14
ATOM     14  C   UNL     1       9.244  -0.628  24.873  0.00  0.00    +0.025 C 
BRANCH  14  15
ATOM     15  C   UNL     1       8.508   0.617  24.320  0.00  0.00    -0.009 C 
ATOM     16  C   UNL     1       8.140   0.452  22.832  0.00  0.00    +0.003 C 
ATOM     17  C   UNL     1       9.325   0.600  21.880  0.00  0.00    +0.000 C 
ATOM     18  C   UNL     1      10.120   1.876  22.143  0.00  0.00    +0.000 C 
ATOM     19  C   UNL     1      10.525   1.999  23.608  0.00  0.00    +0.000 C 
ATOM     20  C   UNL     1       9.302   1.918  24.519  0.00  0.00    +0.003 C 
ENDBRANCH  14  15
ENDBRANCH   1  14
TORSDOF 8
ENDMDL
MODEL 4
REMARK VINA RESULT:      -5.2      1.773      6.497
REMARK  Name = 
REMARK  10 active torsions:
REMARK  status: ('A' for Active; 'I' for Inactive)
REMARK    1  A    between atoms: C_2  and  N_3
REMARK    2  A    between atoms: C_2  and  C_4
REMARK    3  A    between atoms: C_2  and  C_11
REMARK    4  A    between atoms: C_4  and  C_5
REMARK    5  A    between atoms: C_11  and  O_13
REMARK    6  A    between atoms: C_11  and  C_14
REMARK    7  A    between atoms: C_14  and  O_16
REMARK    8  A    between atoms: O_16  and  C_17
REMARK    9  A    between atoms: C_17  and  C_18
REMARK   10  A    between atoms: C_17  and  C_19
REMARK                            x       y       z     vdW  Elec       q    Type
REMARK                         _______ _______ _______ _____ _____    ______ ____
ROOT
ATOM      1  C   UNL     1       8.415  -2.295  23.484  0.00  0.00    +0.091 C 
ENDROOT
BRANCH   1   2
ATOM      2  N   UNL     1       7.455  -1.169  23.487  0.00  0.00    -0.325 NA
ATOM      3  H   UNL     1       7.947  -0.303  23.256  0.00  0.00    +0.119 HD
ATOM      4  H   UNL     1       6.800  -1.304  22.711  0.00  0.00    +0.119 HD
ENDBRANCH   1   2
BRANCH   1   5
ATOM      5  C   UNL     1       9.841  -1.836  23.078  0.00  0.00    +0.239 C 
BRANCH   5   6
ATOM      6  C   UNL     1      10.206  -0.473  23.689  0.00  0.00    +0.338 C 
ATOM      7  O   UNL     1      10.378  -0.262  24.881  0.00  0.00    -0.248 OA
BRANCH   6   8
ATOM      8  O   UNL     1      10.287   0.489  22.721  0.00  0.00    -0.460 OA
BRANCH   8   9
ATOM      9  C   UNL     1       9.564   1.706  23.003  0.00  0.00    +0.170 C 
ATOM     10  C   UNL     1       8.643   1.980  21.822  0.00  0.00    +0.052 C 
ATOM     11  C   UNL     1      10.548   2.855  23.194  0.00  0.00    +0.052 C 
ENDBRANCH   8   9
ENDBRANCH   6   8
ENDBRANCH   5   6
BRANCH   5  12
ATOM     12  O   UNL     1       9.946  -1.797  21.649  0.00  0.00    -0.379 OA
ATOM     13  H   UNL     1      10.576  -2.482  21.374  0.00  0.00    +0.211 HD
ENDBRANCH   5  12
ENDBRANCH   1   5
BRANCH   1  14
ATOM     14  C   UNL     1       7.826  -3.367  22.523  0.00  0.00    +0.025 C 
BRANCH  14  15
ATOM     15  C   UNL     1       7.650  -4.774  23.145  0.00  0.00    -0.009 C 
ATOM     16  C   UNL     1       7.324  -5.837  22.076  0.00  0.00    +0.003 C 
ATOM     17  C   UNL     1       5.890  -5.772  21.555  0.00  0.00    +0.000 C 
ATOM     18  C   UNL     1       4.866  -5.754  22.686  0.00  0.00    +0.000 C 
ATOM     19  C   UNL     1       5.168  -4.663  23.707  0.00  0.00    +0.000 C 
ATOM     20  C   UNL     1       6.586  -4.809  24.254  0.00  0.00    +0.003 C 
ENDBRANCH  14  15
ENDBRANCH   1  14
TORSDOF 8
ENDMDL
MODEL 5
REMARK VINA RESULT:      -5.1      1.844      2.676
REMARK  Name = 
REMARK  10 active torsions:
REMARK  status: ('A' for Active; 'I' for Inactive)
REMARK    1  A    between atoms: C_2  and  N_3
REMARK    2  A    between atoms: C_2  and  C_4
REMARK    3  A    between atoms: C_2  and  C_11
REMARK    4  A    between atoms: C_4  and  C_5
REMARK    5  A    between atoms: C_11  and  O_13
REMARK    6  A    between atoms: C_11  and  C_14
REMARK    7  A    between atoms: C_14  and  O_16
REMARK    8  A    between atoms: O_16  and  C_17
REMARK    9  A    between atoms: C_17  and  C_18
REMARK   10  A    between atoms: C_17  and  C_19
REMARK                            x       y       z     vdW  Elec       q    Type
REMARK                         _______ _______ _______ _____ _____    ______ ____
ROOT
ATOM      1  C   UNL     1       8.080  -2.002  24.346  0.00  0.00    +0.091 C 
ENDROOT
BRANCH   1   2
ATOM      2  N   UNL     1       6.639  -1.778  24.593  0.00  0.00    -0.325 NA
ATOM      3  H   UNL     1       6.522  -1.243  25.457  0.00  0.00    +0.119 HD
ATOM      4  H   UNL     1       6.280  -1.158  23.861  0.00  0.00    +0.119 HD
ENDBRANCH   1   2
BRANCH   1   5
ATOM      5  C   UNL     1       8.628  -3.199  25.169  0.00  0.00    +0.239 C 
BRANCH   5   6
ATOM      6  C   UNL     1       8.676  -4.495  24.344  0.00  0.00    +0.338 C 
ATOM      7  O   UNL     1       9.342  -5.481  24.624  0.00  0.00    -0.248 OA
BRANCH   6   8
ATOM      8  O   UNL     1       7.890  -4.392  23.230  0.00  0.00    -0.460 OA
BRANCH   8   9
ATOM      9  C   UNL     1       6.987  -5.498  23.012  0.00  0.00    +0.170 C 
ATOM     10  C   UNL     1       6.805  -5.654  21.508  0.00  0.00    +0.052 C 
ATOM     11  C   UNL     1       5.651  -5.211  23.687  0.00  0.00    +0.052 C 
ENDBRANCH   8   9
ENDBRANCH   6   8
ENDBRANCH   5   6
BRANCH   5  12
ATOM     12  O   UNL     1       7.833  -3.376  26.349  0.00  0.00    -0.379 OA
ATOM     13  H   UNL     1       7.402  -4.244  26.294  0.00  0.00    +0.211 HD
ENDBRANCH   5  12
ENDBRANCH   1   5
BRANCH   1  14
ATOM     14  C   UNL     1       8.793  -0.661  24.678  0.00  0.00    +0.025 C 
BRANCH  14  15
ATOM     15  C   UNL     1      10.186  -0.484  24.027  0.00  0.00    -0.009 C 
ATOM     16  C   UNL     1      10.806   0.888  24.361  0.00  0.00    +0.003 C 
ATOM     17  C   UNL     1      10.183   2.053  23.593  0.00  0.00    +0.000 C 
ATOM     18  C   UNL     1      10.131   1.791  22.091  0.00  0.00    +0.000 C 
ATOM     19  C   UNL     1       9.466   0.456  21.772  0.00  0.00    +0.000 C 
ATOM     20  C   UNL     1      10.165  -0.688  22.503  0.00  0.00    +0.003 C 
ENDBRANCH  14  15
ENDBRANCH   1  14
TORSDOF 8
ENDMDL
MODEL 6
REMARK VINA RESULT:      -5.1      1.659      2.082
REMARK  Name = 
REMARK  10 active torsions:
REMARK  status: ('A' for Active; 'I' for Inactive)
REMARK    1  A    between atoms: C_2  and  N_3
REMARK    2  A    between atoms: C_2  and  C_4
REMARK    3  A    between atoms: C_2  and  C_11
REMARK    4  A    between atoms: C_4  and  C_5
REMARK    5  A    between atoms: C_11  and  O_13
REMARK    6  A    between atoms: C_11  and  C_14
REMARK    7  A    between atoms: C_14  and  O_16
REMARK    8  A    between atoms: O_16  and  C_17
REMARK    9  A    between atoms: C_17  and  C_18
REMARK   10  A    between atoms: C_17  and  C_19
REMARK                            x       y       z     vdW  Elec       q    Type
REMARK                         _______ _______ _______ _____ _____    ______ ____
ROOT
ATOM      1  C   UNL     1       8.852  -0.446  23.204  0.00  0.00    +0.091 C 
ENDROOT
BRANCH   1   2
ATOM      2  N   UNL     1       8.401  -0.606  24.604  0.00  0.00    -0.325 NA
ATOM      3  H   UNL     1       8.576   0.260  25.118  0.00  0.00    +0.119 HD
ATOM      4  H   UNL     1       7.380  -0.698  24.604  0.00  0.00    +0.119 HD
ENDBRANCH   1   2
BRANCH   1   5
ATOM      5  C   UNL     1       9.114  -1.816  22.522  0.00  0.00    +0.239 C 
BRANCH   5   6
ATOM      6  C   UNL     1       8.984  -2.987  23.509  0.00  0.00    +0.338 C 
ATOM      7  O   UNL     1       9.904  -3.461  24.161  0.00  0.00    -0.248 OA
BRANCH   6   8
ATOM      8  O   UNL     1       7.699  -3.453  23.546  0.00  0.00    -0.460 OA
BRANCH   8   9
ATOM      9  C   UNL     1       7.123  -3.767  22.259  0.00  0.00    +0.170 C 
ATOM     10  C   UNL     1       5.693  -3.244  22.255  0.00  0.00    +0.052 C 
ATOM     11  C   UNL     1       7.144  -5.276  22.042  0.00  0.00    +0.052 C 
ENDBRANCH   8   9
ENDBRANCH   6   8
ENDBRANCH   5   6
BRANCH   5  12
ATOM     12  O   UNL     1      10.409  -1.808  21.909  0.00  0.00    -0.379 OA
ATOM     13  H   UNL     1      10.311  -1.486  20.999  0.00  0.00    +0.211 HD
ENDBRANCH   5  12
ENDBRANCH   1   5
BRANCH   1  14
ATOM     14  C   UNL     1      10.116   0.458  23.255  0.00  0.00    +0.025 C 
BRANCH  14  15
ATOM     15  C   UNL     1      10.081   1.681  22.305  0.00  0.00    -0.009 C 
ATOM     16  C   UNL     1      10.557   2.968  23.009  0.00  0.00    +0.003 C 
ATOM     17  C   UNL     1       9.534   3.559  23.978  0.00  0.00    +0.000 C 
ATOM     18  C   UNL     1       8.160   3.723  23.334  0.00  0.00    +0.000 C 
ATOM     19  C   UNL     1       7.677   2.429  22.689  0.00  0.00    +0.000 C 
ATOM     20  C   UNL     1       8.698   1.913  21.677  0.00  0.00    +0.003 C 
ENDBRANCH  14  15
ENDBRANCH   1  14
TORSDOF 8
ENDMDL
MODEL 7
REMARK VINA RESULT:      -5.0      2.157      3.069
REMARK  Name = 
REMARK  10 active torsions:
REMARK  status: ('A' for Active; 'I' for Inactive)
REMARK    1  A    between atoms: C_2  and  N_3
REMARK    2  A    between atoms: C_2  and  C_4
REMARK    3  A    between atoms: C_2  and  C_11
REMARK    4  A    between atoms: C_4  and  C_5
REMARK    5  A    between atoms: C_11  and  O_13
REMARK    6  A    between atoms: C_11  and  C_14
REMARK    7  A    between atoms: C_14  and  O_16
REMARK    8  A    between atoms: O_16  and  C_17
REMARK    9  A    between atoms: C_17  and  C_18
REMARK   10  A    between atoms: C_17  and  C_19
REMARK                            x       y       z     vdW  Elec       q    Type
REMARK                         _______ _______ _______ _____ _____    ______ ____
ROOT
ATOM      1  C   UNL     1       8.122  -2.212  24.690  0.00  0.00    +0.091 C 
ENDROOT
BRANCH   1   2
ATOM      2  N   UNL     1       8.708  -2.126  26.046  0.00  0.00    -0.325 NA
ATOM      3  H   UNL     1       9.728  -2.126  25.975  0.00  0.00    +0.119 HD
ATOM      4  H   UNL     1       8.481  -1.206  26.435  0.00  0.00    +0.119 HD
ENDBRANCH   1   2
BRANCH   1   5
ATOM      5  C   UNL     1       8.680  -3.424  23.896  0.00  0.00    +0.239 C 
BRANCH   5   6
ATOM      6  C   UNL     1       7.683  -4.593  23.852  0.00  0.00    +0.338 C 
ATOM      7  O   UNL     1       7.689  -5.490  23.021  0.00  0.00    -0.248 OA
BRANCH   6   8
ATOM      8  O   UNL     1       6.763  -4.487  24.858  0.00  0.00    -0.460 OA
BRANCH   8   9
ATOM      9  C   UNL     1       6.713  -5.610  25.765  0.00  0.00    +0.170 C 
ATOM     10  C   UNL     1       5.257  -5.825  26.153  0.00  0.00    +0.052 C 
ATOM     11  C   UNL     1       7.558  -5.311  26.998  0.00  0.00    +0.052 C 
ENDBRANCH   8   9
ENDBRANCH   6   8
ENDBRANCH   5   6
BRANCH   5  12
ATOM     12  O   UNL     1       9.927  -3.839  24.465  0.00  0.00    -0.379 OA
ATOM     13  H   UNL     1       9.737  -4.425  25.215  0.00  0.00    +0.211 HD
ENDBRANCH   5  12
ENDBRANCH   1   5
BRANCH   1  14
ATOM     14  C   UNL     1       8.416  -0.849  24.001  0.00  0.00    +0.025 C 
BRANCH  14  15
ATOM     15  C   UNL     1       9.827  -0.724  23.376  0.00  0.00    -0.009 C 
ATOM     16  C   UNL     1      10.670   0.363  24.072  0.00  0.00    +0.003 C 
ATOM     17  C   UNL     1      10.266   1.790  23.704  0.00  0.00    +0.000 C 
ATOM     18  C   UNL     1      10.188   1.995  22.194  0.00  0.00    +0.000 C 
ATOM     19  C   UNL     1       9.307   0.945  21.525  0.00  0.00    +0.000 C 
ATOM     20  C   UNL     1       9.789  -0.464  21.861  0.00  0.00    +0.003 C 
ENDBRANCH  14  15
ENDBRANCH   1  14
TORSDOF 8
ENDMDL
MODEL 8
REMARK VINA RESULT:      -4.9      1.722      2.236
REMARK  Name = 
REMARK  10 active torsions:
REMARK  status: ('A' for Active; 'I' for Inactive)
REMARK    1  A    between atoms: C_2  and  N_3
REMARK    2  A    between atoms: C_2  and  C_4
REMARK    3  A    between atoms: C_2  and  C_11
REMARK    4  A    between atoms: C_4  and  C_5
REMARK    5  A    between atoms: C_11  and  O_13
REMARK    6  A    between atoms: C_11  and  C_14
REMARK    7  A    between atoms: C_14  and  O_16
REMARK    8  A    between atoms: O_16  and  C_17
REMARK    9  A    between atoms: C_17  and  C_18
REMARK   10  A    between atoms: C_17  and  C_19
REMARK                            x       y       z     vdW  Elec       q    Type
REMARK                         _______ _______ _______ _____ _____    ______ ____
ROOT
ATOM      1  C   UNL     1       8.145  -2.186  23.069  0.00  0.00    +0.091 C 
ENDROOT
BRANCH   1   2
ATOM      2  N   UNL     1       6.735  -1.738  23.115  0.00  0.00    -0.325 NA
ATOM      3  H   UNL     1       6.126  -2.505  22.822  0.00  0.00    +0.119 HD
ATOM      4  H   UNL     1       6.483  -1.574  24.095  0.00  0.00    +0.119 HD
ENDBRANCH   1   2
BRANCH   1   5
ATOM      5  C   UNL     1       8.293  -3.669  23.502  0.00  0.00    +0.239 C 
BRANCH   5   6
ATOM      6  C   UNL     1       7.061  -4.173  24.269  0.00  0.00    +0.338 C 
ATOM      7  O   UNL     1       6.577  -3.633  25.254  0.00  0.00    -0.248 OA
BRANCH   6   8
ATOM      8  O   UNL     1       6.585  -5.331  23.720  0.00  0.00    -0.460 OA
BRANCH   8   9
ATOM      9  C   UNL     1       5.680  -5.156  22.607  0.00  0.00    +0.170 C 
ATOM     10  C   UNL     1       4.322  -5.701  23.028  0.00  0.00    +0.052 C 
ATOM     11  C   UNL     1       6.209  -5.911  21.393  0.00  0.00    +0.052 C 
ENDBRANCH   8   9
ENDBRANCH   6   8
ENDBRANCH   5   6
BRANCH   5  12
ATOM     12  O   UNL     1       9.481  -3.824  24.290  0.00  0.00    -0.379 OA
ATOM     13  H   UNL     1       9.770  -2.943  24.576  0.00  0.00    +0.211 HD
ENDBRANCH   5  12
ENDBRANCH   1   5
BRANCH   1  14
ATOM     14  C   UNL     1       8.943  -1.206  23.976  0.00  0.00    +0.025 C 
BRANCH  14  15
ATOM     15  C   UNL     1      10.216  -0.608  23.328  0.00  0.00    -0.009 C 
ATOM     16  C   UNL     1      10.809   0.534  24.178  0.00  0.00    +0.003 C 
ATOM     17  C   UNL     1      10.024   1.842  24.093  0.00  0.00    +0.000 C 
ATOM     18  C   UNL     1       9.766   2.266  22.650  0.00  0.00    +0.000 C 
ATOM     19  C   UNL     1       9.129   1.145  21.835  0.00  0.00    +0.000 C 
ATOM     20  C   UNL     1       9.982  -0.119  21.890  0.00  0.00    +0.003 C 
ENDBRANCH  14  15
ENDBRANCH   1  14
TORSDOF 8
ENDMDL
MODEL 9
REMARK VINA RESULT:      -4.9      1.803      2.393
REMARK  Name = 
REMARK  10 active torsions:
REMARK  status: ('A' for Active; 'I' for Inactive)
REMARK    1  A    between atoms: C_2  and  N_3
REMARK    2  A    between atoms: C_2  and  C_4
REMARK    3  A    between atoms: C_2  and  C_11
REMARK    4  A    between atoms: C_4  and  C_5
REMARK    5  A    between atoms: C_11  and  O_13
REMARK    6  A    between atoms: C_11  and  C_14
REMARK    7  A    between atoms: C_14  and  O_16
REMARK    8  A    between atoms: O_16  and  C_17
REMARK    9  A    between atoms: C_17  and  C_18
REMARK   10  A    between atoms: C_17  and  C_19
REMARK                            x       y       z     vdW  Elec       q    Type
REMARK                         _______ _______ _______ _____ _____    ______ ____
ROOT
ATOM      1  C   UNL     1       7.652  -0.760  22.278  0.00  0.00    +0.091 C 
ENDROOT
BRANCH   1   2
ATOM      2  N   UNL     1       6.440  -1.112  23.049  0.00  0.00    -0.325 NA
ATOM      3  H   UNL     1       6.438  -0.597  23.932  0.00  0.00    +0.119 HD
ATOM      4  H   UNL     1       5.623  -0.752  22.544  0.00  0.00    +0.119 HD
ENDBRANCH   1   2
BRANCH   1   5
ATOM      5  C   UNL     1       8.619  -1.966  22.140  0.00  0.00    +0.239 C 
BRANCH   5   6
ATOM      6  C   UNL     1       8.970  -2.585  23.502  0.00  0.00    +0.338 C 
ATOM      7  O   UNL     1      10.054  -2.486  24.060  0.00  0.00    -0.248 OA
BRANCH   6   8
ATOM      8  O   UNL     1       7.911  -3.290  24.004  0.00  0.00    -0.460 OA
BRANCH   8   9
ATOM      9  C   UNL     1       8.137  -4.708  24.158  0.00  0.00    +0.170 C 
ATOM     10  C   UNL     1       7.500  -5.408  22.965  0.00  0.00    +0.052 C 
ATOM     11  C   UNL     1       7.507  -5.190  25.461  0.00  0.00    +0.052 C 
ENDBRANCH   8   9
ENDBRANCH   6   8
ENDBRANCH   5   6
BRANCH   5  12
ATOM     12  O   UNL     1       9.805  -1.556  21.447  0.00  0.00    -0.379 OA
ATOM     13  H   UNL     1      10.539  -1.550  22.083  0.00  0.00    +0.211 HD
ENDBRANCH   5  12
ENDBRANCH   1   5
BRANCH   1  14
ATOM     14  C   UNL     1       8.296   0.453  23.009  0.00  0.00    +0.025 C 
BRANCH  14  15
ATOM     15  C   UNL     1       8.693   1.634  22.090  0.00  0.00    -0.009 C 
ATOM     16  C   UNL     1      10.199   1.950  22.180  0.00  0.00    +0.003 C 
ATOM     17  C   UNL     1      10.604   2.676  23.462  0.00  0.00    +0.000 C 
ATOM     18  C   UNL     1       9.736   3.902  23.729  0.00  0.00    +0.000 C 
ATOM     19  C   UNL     1       8.250   3.564  23.691  0.00  0.00    +0.000 C 
ATOM     20  C   UNL     1       7.876   2.907  22.364  0.00  0.00    +0.003 C 
ENDBRANCH  14  15
ENDBRANCH   1  14
TORSDOF 8
ENDMDL
