MODEL 1
REMARK VINA RESULT:      -4.4      0.000      0.000
REMARK  Name = 
REMARK  8 active torsions:
REMARK  status: ('A' for Active; 'I' for Inactive)
REMARK    1  A    between atoms: O_1  and  C_2
REMARK    2  A    between atoms: C_2  and  C_3
REMARK    3  A    between atoms: C_3  and  O_5
REMARK    4  A    between atoms: C_3  and  C_10
REMARK    5  A    between atoms: O_5  and  P_6
REMARK    6  A    between atoms: P_6  and  O_7
REMARK    7  A    between atoms: P_6  and  O_8
REMARK    8  A    between atoms: C_10  and  O_11
REMARK                            x       y       z     vdW  Elec       q    Type
REMARK                         _______ _______ _______ _____ _____    ______ ____
ROOT
ATOM      1  C   UNL     1       9.530  -0.554  23.636  0.00  0.00    +0.263 C 
ENDROOT
BRANCH   1   2
ATOM      2  C   UNL     1      10.082  -1.843  23.024  0.00  0.00    +0.337 C 
ATOM      3  O   UNL     1      10.221  -2.872  23.675  0.00  0.00    -0.248 OA
BRANCH   2   4
ATOM      4  O   UNL     1      10.356  -1.798  21.705  0.00  0.00    -0.479 OA
ATOM      5  H   UNL     1       9.867  -1.073  21.234  0.00  0.00    +0.295 HD
ENDBRANCH   2   4
ENDBRANCH   1   2
BRANCH   1   6
ATOM      6  C   UNL     1       9.373  -0.616  25.159  0.00  0.00    +0.199 C 
BRANCH   6   7
ATOM      7  O   UNL     1      10.148   0.399  25.790  0.00  0.00    -0.392 OA
ATOM      8  H   UNL     1       9.554   0.905  26.379  0.00  0.00    +0.210 HD
ENDBRANCH   6   7
ENDBRANCH   1   6
BRANCH   1   9
ATOM      9  O   UNL     1      10.202   0.609  23.191  0.00  0.00    -0.270 OA
BRANCH   9  10
ATOM     10  P   UNL     1       9.442   1.685  22.300  0.00  0.00    +0.473 P 
ATOM     11  O   UNL     1       8.377   2.512  22.925  0.00  0.00    -0.227 OA
BRANCH  10  12
ATOM     12  O   UNL     1       9.024   0.865  20.994  0.00  0.00    -0.303 OA
ATOM     13  H   UNL     1       9.744   0.885  20.338  0.00  0.00    +0.222 HD
ENDBRANCH  10  12
BRANCH  10  14
ATOM     14  O   UNL     1      10.630   2.578  21.715  0.00  0.00    -0.303 OA
ATOM     15  H   UNL     1      11.113   3.020  22.443  0.00  0.00    +0.222 HD
ENDBRANCH  10  14
ENDBRANCH   9  10
ENDBRANCH   1   9
TORSDOF 8
ENDMDL
MODEL 2
REMARK VINA RESULT:      -4.3      1.783      3.656
REMARK  Name = 
REMARK  8 active torsions:
REMARK  status: ('A' for Active; 'I' for Inactive)
REMARK    1  A    between atoms: O_1  and  C_2
REMARK    2  A    between atoms: C_2  and  C_3
REMARK    3  A    between atoms: C_3  and  O_5
REMARK    4  A    between atoms: C_3  and  C_10
REMARK    5  A    between atoms: O_5  and  P_6
REMARK    6  A    between atoms: P_6  and  O_7
REMARK    7  A    between atoms: P_6  and  O_8
REMARK    8  A    between atoms: C_10  and  O_11
REMARK                            x       y       z     vdW  Elec       q    Type
REMARK                         _______ _______ _______ _____ _____    ______ ____
ROOT
ATOM      1  C   UNL     1      10.129   0.526  23.255  0.00  0.00    +0.263 C 
ENDROOT
BRANCH   1   2
ATOM      2  C   UNL     1       9.629   1.840  22.654  0.00  0.00    +0.337 C 
ATOM      3  O   UNL     1       8.767   2.523  23.194  0.00  0.00    -0.248 OA
BRANCH   2   4
ATOM      4  O   UNL     1      10.234   2.236  21.516  0.00  0.00    -0.479 OA
ATOM      5  H   UNL     1      10.341   3.221  21.459  0.00  0.00    +0.295 HD
ENDBRANCH   2   4
ENDBRANCH   1   2
BRANCH   1   6
ATOM      6  C   UNL     1      10.971   0.711  24.522  0.00  0.00    +0.199 C 
BRANCH   6   7
ATOM      7  O   UNL     1      10.225   0.356  25.683  0.00  0.00    -0.392 OA
ATOM      8  H   UNL     1       9.622   1.097  25.887  0.00  0.00    +0.210 HD
ENDBRANCH   6   7
ENDBRANCH   1   6
BRANCH   1   9
ATOM      9  O   UNL     1       9.112  -0.447  23.398  0.00  0.00    -0.270 OA
BRANCH   9  10
ATOM     10  P   UNL     1       9.226  -1.846  22.649  0.00  0.00    +0.473 P 
ATOM     11  O   UNL     1       7.982  -2.519  22.192  0.00  0.00    -0.227 OA
BRANCH  10  12
ATOM     12  O   UNL     1      10.186  -2.702  23.595  0.00  0.00    -0.303 OA
ATOM     13  H   UNL     1       9.662  -3.317  24.140  0.00  0.00    +0.222 HD
ENDBRANCH  10  12
BRANCH  10  14
ATOM     14  O   UNL     1      10.217  -1.530  21.437  0.00  0.00    -0.303 OA
ATOM     15  H   UNL     1      10.825  -2.283  21.290  0.00  0.00    +0.222 HD
ENDBRANCH  10  14
ENDBRANCH   9  10
ENDBRANCH   1   9
TORSDOF 8
ENDMDL
MODEL 3
REMARK VINA RESULT:      -4.2      2.715      5.277
REMARK  Name = 
REMARK  8 active torsions:
REMARK  status: ('A' for Active; 'I' for Inactive)
REMARK    1  A    between atoms: O_1  and  C_2
REMARK    2  A    between atoms: C_2  and  C_3
REMARK    3  A    between atoms: C_3  and  O_5
REMARK    4  A    between atoms: C_3  and  C_10
REMARK    5  A    between atoms: O_5  and  P_6
REMARK    6  A    between atoms: P_6  and  O_7
REMARK    7  A    between atoms: P_6  and  O_8
REMARK    8  A    between atoms: C_10  and  O_11
REMARK                            x       y       z     vdW  Elec       q    Type
REMARK                         _______ _______ _______ _____ _____    ______ ____
ROOT
ATOM      1  C   UNL     1       9.251  -2.011  23.729  0.00  0.00    +0.263 C 
ENDROOT
BRANCH   1   2
ATOM      2  C   UNL     1       9.819  -0.800  24.470  0.00  0.00    +0.337 C 
ATOM      3  O   UNL     1      10.587  -0.006  23.939  0.00  0.00    -0.248 OA
BRANCH   2   4
ATOM      4  O   UNL     1       9.382  -0.624  25.734  0.00  0.00    -0.479 OA
ATOM      5  H   UNL     1       8.396  -0.709  25.815  0.00  0.00    +0.295 HD
ENDBRANCH   2   4
ENDBRANCH   1   2
BRANCH   1   6
ATOM      6  C   UNL     1       9.064  -1.779  22.226  0.00  0.00    +0.199 C 
BRANCH   6   7
ATOM      7  O   UNL     1      10.322  -1.606  21.580  0.00  0.00    -0.392 OA
ATOM      8  H   UNL     1      10.151  -1.464  20.628  0.00  0.00    +0.210 HD
ENDBRANCH   6   7
ENDBRANCH   1   6
BRANCH   1   9
ATOM      9  O   UNL     1       9.927  -3.218  24.028  0.00  0.00    -0.270 OA
BRANCH   9  10
ATOM     10  P   UNL     1       9.195  -4.368  24.847  0.00  0.00    +0.473 P 
ATOM     11  O   UNL     1       8.062  -5.092  24.213  0.00  0.00    -0.227 OA
BRANCH  10  12
ATOM     12  O   UNL     1       8.896  -3.690  26.262  0.00  0.00    -0.303 OA
ATOM     13  H   UNL     1       8.287  -2.937  26.153  0.00  0.00    +0.222 HD
ENDBRANCH  10  12
BRANCH  10  14
ATOM     14  O   UNL     1      10.390  -5.351  25.242  0.00  0.00    -0.303 OA
ATOM     15  H   UNL     1      10.799  -5.068  26.085  0.00  0.00    +0.222 HD
ENDBRANCH  10  14
ENDBRANCH   9  10
ENDBRANCH   1   9
TORSDOF 8
ENDMDL
MODEL 4
REMARK VINA RESULT:      -4.2      5.278      6.626
REMARK  Name = 
REMARK  8 active torsions:
REMARK  status: ('A' for Active; 'I' for Inactive)
REMARK    1  A    between atoms: O_1  and  C_2
REMARK    2  A    between atoms: C_2  and  C_3
REMARK    3  A    between atoms: C_3  and  O_5
REMARK    4  A    between atoms: C_3  and  C_10
REMARK    5  A    between atoms: O_5  and  P_6
REMARK    6  A    between atoms: P_6  and  O_7
REMARK    7  A    between atoms: P_6  and  O_8
REMARK    8  A    between atoms: C_10  and  O_11
REMARK                            x       y       z     vdW  Elec       q    Type
REMARK                         _______ _______ _______ _____ _____    ______ ____
ROOT
ATOM      1  C   UNL     1       7.531  -5.325  25.001  0.00  0.00    +0.263 C 
ENDROOT
BRANCH   1   2
ATOM      2  C   UNL     1       9.015  -5.027  24.780  0.00  0.00    +0.337 C 
ATOM      3  O   UNL     1       9.408  -3.971  24.297  0.00  0.00    -0.248 OA
BRANCH   2   4
ATOM      4  O   UNL     1       9.876  -5.976  25.200  0.00  0.00    -0.479 OA
ATOM      5  H   UNL     1      10.591  -6.168  24.537  0.00  0.00    +0.295 HD
ENDBRANCH   2   4
ENDBRANCH   1   2
BRANCH   1   6
ATOM      6  C   UNL     1       7.076  -5.131  26.451  0.00  0.00    +0.199 C 
BRANCH   6   7
ATOM      7  O   UNL     1       7.968  -5.778  27.354  0.00  0.00    -0.392 OA
ATOM      8  H   UNL     1       8.646  -6.240  26.823  0.00  0.00    +0.210 HD
ENDBRANCH   6   7
ENDBRANCH   1   6
BRANCH   1   9
ATOM      9  O   UNL     1       6.687  -4.689  24.060  0.00  0.00    -0.270 OA
BRANCH   9  10
ATOM     10  P   UNL     1       6.267  -5.438  22.721  0.00  0.00    +0.473 P 
ATOM     11  O   UNL     1       7.332  -5.945  21.818  0.00  0.00    -0.227 OA
BRANCH  10  12
ATOM     12  O   UNL     1       5.191  -4.458  22.064  0.00  0.00    -0.303 OA
ATOM     13  H   UNL     1       5.134  -3.629  22.573  0.00  0.00    +0.222 HD
ENDBRANCH  10  12
BRANCH  10  14
ATOM     14  O   UNL     1       5.315  -6.609  23.243  0.00  0.00    -0.303 OA
ATOM     15  H   UNL     1       5.560  -7.459  22.824  0.00  0.00    +0.222 HD
ENDBRANCH  10  14
ENDBRANCH   9  10
ENDBRANCH   1   9
TORSDOF 8
ENDMDL
MODEL 5
REMARK VINA RESULT:      -4.2      2.133      4.233
REMARK  Name = 
REMARK  8 active torsions:
REMARK  status: ('A' for Active; 'I' for Inactive)
REMARK    1  A    between atoms: O_1  and  C_2
REMARK    2  A    between atoms: C_2  and  C_3
REMARK    3  A    between atoms: C_3  and  O_5
REMARK    4  A    between atoms: C_3  and  C_10
REMARK    5  A    between atoms: O_5  and  P_6
REMARK    6  A    between atoms: P_6  and  O_7
REMARK    7  A    between atoms: P_6  and  O_8
REMARK    8  A    between atoms: C_10  and  O_11
REMARK                            x       y       z     vdW  Elec       q    Type
REMARK                         _______ _______ _______ _____ _____    ______ ____
ROOT
ATOM      1  C   UNL     1       9.029   0.624  22.514  0.00  0.00    +0.263 C 
ENDROOT
BRANCH   1   2
ATOM      2  C   UNL     1       7.592   1.105  22.307  0.00  0.00    +0.337 C 
ATOM      3  O   UNL     1       7.325   2.135  21.700  0.00  0.00    -0.248 OA
BRANCH   2   4
ATOM      4  O   UNL     1       6.626   0.296  22.787  0.00  0.00    -0.479 OA
ATOM      5  H   UNL     1       6.948  -0.627  22.963  0.00  0.00    +0.295 HD
ENDBRANCH   2   4
ENDBRANCH   1   2
BRANCH   1   6
ATOM      6  C   UNL     1      10.017   1.755  22.820  0.00  0.00    +0.199 C 
BRANCH   6   7
ATOM      7  O   UNL     1      10.371   2.455  21.631  0.00  0.00    -0.392 OA
ATOM      8  H   UNL     1       9.797   2.128  20.911  0.00  0.00    +0.210 HD
ENDBRANCH   6   7
ENDBRANCH   1   6
BRANCH   1   9
ATOM      9  O   UNL     1       9.131  -0.464  23.413  0.00  0.00    -0.270 OA
BRANCH   9  10
ATOM     10  P   UNL     1       9.488  -1.918  22.876  0.00  0.00    +0.473 P 
ATOM     11  O   UNL     1      10.152  -2.879  23.794  0.00  0.00    -0.227 OA
BRANCH  10  12
ATOM     12  O   UNL     1      10.232  -1.636  21.491  0.00  0.00    -0.303 OA
ATOM     13  H   UNL     1      11.176  -1.865  21.562  0.00  0.00    +0.222 HD
ENDBRANCH  10  12
BRANCH  10  14
ATOM     14  O   UNL     1       8.084  -2.466  22.347  0.00  0.00    -0.303 OA
ATOM     15  H   UNL     1       7.608  -2.930  23.066  0.00  0.00    +0.222 HD
ENDBRANCH  10  14
ENDBRANCH   9  10
ENDBRANCH   1   9
TORSDOF 8
ENDMDL
MODEL 6
REMARK VINA RESULT:      -4.2      2.945      5.266
REMARK  Name = 
REMARK  8 active torsions:
REMARK  status: ('A' for Active; 'I' for Inactive)
REMARK    1  A    between atoms: O_1  and  C_2
REMARK    2  A    between atoms: C_2  and  C_3
REMARK    3  A    between atoms: C_3  and  O_5
REMARK    4  A    between atoms: C_3  and  C_10
REMARK    5  A    between atoms: O_5  and  P_6
REMARK    6  A    between atoms: P_6  and  O_7
REMARK    7  A    between atoms: P_6  and  O_8
REMARK    8  A    between atoms: C_10  and  O_11
REMARK                            x       y       z     vdW  Elec       q    Type
REMARK                         _______ _______ _______ _____ _____    ______ ____
ROOT
ATOM      1  C   UNL     1       9.296  -2.220  23.886  0.00  0.00    +0.263 C 
ENDROOT
BRANCH   1   2
ATOM      2  C   UNL     1      10.166  -1.286  23.043  0.00  0.00    +0.337 C 
ATOM      3  O   UNL     1      10.670  -0.267  23.500  0.00  0.00    -0.248 OA
BRANCH   2   4
ATOM      4  O   UNL     1      10.394  -1.680  21.773  0.00  0.00    -0.479 OA
ATOM      5  H   UNL     1      11.336  -1.539  21.491  0.00  0.00    +0.295 HD
ENDBRANCH   2   4
ENDBRANCH   1   2
BRANCH   1   6
ATOM      6  C   UNL     1       7.839  -2.293  23.415  0.00  0.00    +0.199 C 
BRANCH   6   7
ATOM      7  O   UNL     1       7.724  -3.095  22.244  0.00  0.00    -0.392 OA
ATOM      8  H   UNL     1       8.366  -2.759  21.588  0.00  0.00    +0.210 HD
ENDBRANCH   6   7
ENDBRANCH   1   6
BRANCH   1   9
ATOM      9  O   UNL     1       9.879  -3.492  24.093  0.00  0.00    -0.270 OA
BRANCH   9  10
ATOM     10  P   UNL     1       9.304  -4.468  25.210  0.00  0.00    +0.473 P 
ATOM     11  O   UNL     1       8.735  -3.883  26.451  0.00  0.00    -0.227 OA
BRANCH  10  12
ATOM     12  O   UNL     1      10.468  -5.544  25.406  0.00  0.00    -0.303 OA
ATOM     13  H   UNL     1      10.461  -6.186  24.672  0.00  0.00    +0.222 HD
ENDBRANCH  10  12
BRANCH  10  14
ATOM     14  O   UNL     1       8.231  -5.342  24.412  0.00  0.00    -0.303 OA
ATOM     15  H   UNL     1       8.497  -6.284  24.405  0.00  0.00    +0.222 HD
ENDBRANCH  10  14
ENDBRANCH   9  10
ENDBRANCH   1   9
TORSDOF 8
ENDMDL
MODEL 7
REMARK VINA RESULT:      -4.1      4.761      6.626
REMARK  Name = 
REMARK  8 active torsions:
REMARK  status: ('A' for Active; 'I' for Inactive)
REMARK    1  A    between atoms: O_1  and  C_2
REMARK    2  A    between atoms: C_2  and  C_3
REMARK    3  A    between atoms: C_3  and  O_5
REMARK    4  A    between atoms: C_3  and  C_10
REMARK    5  A    between atoms: O_5  and  P_6
REMARK    6  A    between atoms: P_6  and  O_7
REMARK    7  A    between atoms: P_6  and  O_8
REMARK    8  A    between atoms: C_10  and  O_11
REMARK                            x       y       z     vdW  Elec       q    Type
REMARK                         _______ _______ _______ _____ _____    ______ ____
ROOT
ATOM      1  C   UNL     1       6.839  -4.800  23.491  0.00  0.00    +0.263 C 
ENDROOT
BRANCH   1   2
ATOM      2  C   UNL     1       6.839  -3.783  22.348  0.00  0.00    +0.337 C 
ATOM      3  O   UNL     1       7.754  -2.985  22.180  0.00  0.00    -0.248 OA
BRANCH   2   4
ATOM      4  O   UNL     1       5.795  -3.852  21.497  0.00  0.00    -0.479 OA
ATOM      5  H   UNL     1       5.779  -3.103  20.846  0.00  0.00    +0.295 HD
ENDBRANCH   2   4
ENDBRANCH   1   2
BRANCH   1   6
ATOM      6  C   UNL     1       5.814  -5.925  23.311  0.00  0.00    +0.199 C 
BRANCH   6   7
ATOM      7  O   UNL     1       6.102  -6.691  22.145  0.00  0.00    -0.392 OA
ATOM      8  H   UNL     1       5.976  -7.634  22.369  0.00  0.00    +0.210 HD
ENDBRANCH   6   7
ENDBRANCH   1   6
BRANCH   1   9
ATOM      9  O   UNL     1       8.132  -5.270  23.821  0.00  0.00    -0.270 OA
BRANCH   9  10
ATOM     10  P   UNL     1       8.835  -4.807  25.171  0.00  0.00    +0.473 P 
ATOM     11  O   UNL     1       8.644  -3.409  25.636  0.00  0.00    -0.227 OA
BRANCH  10  12
ATOM     12  O   UNL     1      10.346  -5.292  24.994  0.00  0.00    -0.303 OA
ATOM     13  H   UNL     1      10.415  -5.914  24.247  0.00  0.00    +0.222 HD
ENDBRANCH  10  12
BRANCH  10  14
ATOM     14  O   UNL     1       8.310  -5.871  26.239  0.00  0.00    -0.303 OA
ATOM     15  H   UNL     1       8.973  -6.580  26.367  0.00  0.00    +0.222 HD
ENDBRANCH  10  14
ENDBRANCH   9  10
ENDBRANCH   1   9
TORSDOF 8
ENDMDL
MODEL 8
REMARK VINA RESULT:      -4.0      4.620      6.335
REMARK  Name = 
REMARK  8 active torsions:
REMARK  status: ('A' for Active; 'I' for Inactive)
REMARK    1  A    between atoms: O_1  and  C_2
REMARK    2  A    between atoms: C_2  and  C_3
REMARK    3  A    between atoms: C_3  and  O_5
REMARK    4  A    between atoms: C_3  and  C_10
REMARK    5  A    between atoms: O_5  and  P_6
REMARK    6  A    between atoms: P_6  and  O_7
REMARK    7  A    between atoms: P_6  and  O_8
REMARK    8  A    between atoms: C_10  and  O_11
REMARK                            x       y       z     vdW  Elec       q    Type
REMARK                         _______ _______ _______ _____ _____    ______ ____
ROOT
ATOM      1  C   UNL     1       7.997  -4.503  24.314  0.00  0.00    +0.263 C 
ENDROOT
BRANCH   1   2
ATOM      2  C   UNL     1       8.630  -5.394  25.384  0.00  0.00    +0.337 C 
ATOM      3  O   UNL     1       8.040  -5.704  26.413  0.00  0.00    -0.248 OA
BRANCH   2   4
ATOM      4  O   UNL     1       9.862  -5.866  25.105  0.00  0.00    -0.479 OA
ATOM      5  H   UNL     1      10.502  -5.149  24.856  0.00  0.00    +0.295 HD
ENDBRANCH   2   4
ENDBRANCH   1   2
BRANCH   1   6
ATOM      6  C   UNL     1       8.730  -3.172  24.111  0.00  0.00    +0.199 C 
BRANCH   6   7
ATOM      7  O   UNL     1      10.140  -3.371  24.067  0.00  0.00    -0.392 OA
ATOM      8  H   UNL     1      10.567  -2.548  24.375  0.00  0.00    +0.210 HD
ENDBRANCH   6   7
ENDBRANCH   1   6
BRANCH   1   9
ATOM      9  O   UNL     1       7.734  -5.185  23.103  0.00  0.00    -0.270 OA
BRANCH   9  10
ATOM     10  P   UNL     1       6.237  -5.387  22.603  0.00  0.00    +0.473 P 
ATOM     11  O   UNL     1       5.643  -4.378  21.688  0.00  0.00    -0.227 OA
BRANCH  10  12
ATOM     12  O   UNL     1       5.428  -5.682  23.948  0.00  0.00    -0.303 OA
ATOM     13  H   UNL     1       4.578  -5.206  23.942  0.00  0.00    +0.222 HD
ENDBRANCH  10  12
BRANCH  10  14
ATOM     14  O   UNL     1       6.263  -6.845  21.952  0.00  0.00    -0.303 OA
ATOM     15  H   UNL     1       6.170  -7.529  22.647  0.00  0.00    +0.222 HD
ENDBRANCH  10  14
ENDBRANCH   9  10
ENDBRANCH   1   9
TORSDOF 8
ENDMDL
MODEL 9
REMARK VINA RESULT:      -4.0      2.105      4.295
REMARK  Name = 
REMARK  8 active torsions:
REMARK  status: ('A' for Active; 'I' for Inactive)
REMARK    1  A    between atoms: O_1  and  C_2
REMARK    2  A    between atoms: C_2  and  C_3
REMARK    3  A    between atoms: C_3  and  O_5
REMARK    4  A    between atoms: C_3  and  C_10
REMARK    5  A    between atoms: O_5  and  P_6
REMARK    6  A    between atoms: P_6  and  O_7
REMARK    7  A    between atoms: P_6  and  O_8
REMARK    8  A    between atoms: C_10  and  O_11
REMARK                            x       y       z     vdW  Elec       q    Type
REMARK                         _______ _______ _______ _____ _____    ______ ____
ROOT
ATOM      1  C   UNL     1       9.663   0.247  23.104  0.00  0.00    +0.263 C 
ENDROOT
BRANCH   1   2
ATOM      2  C   UNL     1      10.108   1.276  24.146  0.00  0.00    +0.337 C 
ATOM      3  O   UNL     1      11.023   2.064  23.940  0.00  0.00    -0.248 OA
BRANCH   2   4
ATOM      4  O   UNL     1       9.394   1.302  25.290  0.00  0.00    -0.479 OA
ATOM      5  H   UNL     1       9.431   0.443  25.786  0.00  0.00    +0.295 HD
ENDBRANCH   2   4
ENDBRANCH   1   2
BRANCH   1   6
ATOM      6  C   UNL     1       9.734   0.762  21.663  0.00  0.00    +0.199 C 
BRANCH   6   7
ATOM      7  O   UNL     1       9.594   2.179  21.624  0.00  0.00    -0.392 OA
ATOM      8  H   UNL     1      10.490   2.566  21.577  0.00  0.00    +0.210 HD
ENDBRANCH   6   7
ENDBRANCH   1   6
BRANCH   1   9
ATOM      9  O   UNL     1      10.270  -1.020  23.275  0.00  0.00    -0.270 OA
BRANCH   9  10
ATOM     10  P   UNL     1       9.399  -2.275  23.719  0.00  0.00    +0.473 P 
ATOM     11  O   UNL     1      10.094  -3.500  24.192  0.00  0.00    -0.227 OA
BRANCH  10  12
ATOM     12  O   UNL     1       8.373  -2.468  22.509  0.00  0.00    -0.303 OA
ATOM     13  H   UNL     1       8.823  -2.316  21.658  0.00  0.00    +0.222 HD
ENDBRANCH  10  12
BRANCH  10  14
ATOM     14  O   UNL     1       8.427  -1.669  24.831  0.00  0.00    -0.303 OA
ATOM     15  H   UNL     1       8.907  -1.017  25.383  0.00  0.00    +0.222 HD
ENDBRANCH  10  14
ENDBRANCH   9  10
ENDBRANCH   1   9
TORSDOF 8
ENDMDL
