MODEL 1
REMARK VINA RESULT:      -4.3      0.000      0.000
REMARK  Name = 
REMARK  3 active torsions:
REMARK  status: ('A' for Active; 'I' for Inactive)
REMARK    1  A    between atoms: S_2  and  C_5
REMARK    2  A    between atoms: C_5  and  C_6
REMARK    3  A    between atoms: C_6  and  N_7
REMARK                            x       y       z     vdW  Elec       q    Type
REMARK                         _______ _______ _______ _____ _____    ______ ____
ROOT
ATOM      1  N   UNL     1       7.348  -4.445  23.535  0.00  0.00    +0.240 N 
ATOM      2  C   UNL     1       7.361  -5.540  22.499  0.00  0.00    +0.160 C 
ATOM      3  C   UNL     1       6.051  -5.541  21.703  0.00  0.00    +0.210 C 
ATOM      4  O   UNL     1       5.790  -4.253  21.127  0.00  0.00    -0.369 OA
ATOM      5  C   UNL     1       5.652  -3.260  22.154  0.00  0.00    +0.210 C 
ATOM      6  C   UNL     1       6.957  -3.109  22.943  0.00  0.00    +0.160 C 
ATOM      7  H   UNL     1       6.575  -4.649  24.224  0.00  0.00    +0.204 HD
ENDROOT
BRANCH   1   8
ATOM      8  C   UNL     1       8.600  -4.435  24.397  0.00  0.00    +0.153 C 
BRANCH   8   9
ATOM      9  C   UNL     1       8.564  -5.430  25.540  0.00  0.00    +0.203 C 
BRANCH   9  11
ATOM     10  O   UNL     1       7.064  -3.684  26.576  0.00  0.00    -0.724 OA
ATOM     11  S   UNL     1       7.142  -5.134  26.535  0.00  0.00    -0.076 S 
ATOM     12  O   UNL     1       6.099  -5.812  25.756  0.00  0.00    -0.185 OA
ATOM     13  O   UNL     1       7.492  -5.812  27.775  0.00  0.00    -0.185 OA
ENDBRANCH   9  11
ENDBRANCH   8   9
ENDBRANCH   1   8
TORSDOF 3
ENDMDL
MODEL 2
REMARK VINA RESULT:      -4.2      2.169      4.724
REMARK  Name = 
REMARK  3 active torsions:
REMARK  status: ('A' for Active; 'I' for Inactive)
REMARK    1  A    between atoms: S_2  and  C_5
REMARK    2  A    between atoms: C_5  and  C_6
REMARK    3  A    between atoms: C_6  and  N_7
REMARK                            x       y       z     vdW  Elec       q    Type
REMARK                         _______ _______ _______ _____ _____    ______ ____
ROOT
ATOM      1  N   UNL     1       7.177  -4.397  24.350  0.00  0.00    +0.240 N 
ATOM      2  C   UNL     1       6.586  -4.397  25.737  0.00  0.00    +0.160 C 
ATOM      3  C   UNL     1       7.414  -5.284  26.672  0.00  0.00    +0.210 C 
ATOM      4  O   UNL     1       8.795  -4.894  26.672  0.00  0.00    -0.369 OA
ATOM      5  C   UNL     1       9.359  -5.036  25.360  0.00  0.00    +0.210 C 
ATOM      6  C   UNL     1       8.661  -4.102  24.366  0.00  0.00    +0.160 C 
ATOM      7  H   UNL     1       7.122  -5.379  23.965  0.00  0.00    +0.204 HD
ENDROOT
BRANCH   1   8
ATOM      8  C   UNL     1       6.360  -3.581  23.361  0.00  0.00    +0.153 C 
BRANCH   8   9
ATOM      9  C   UNL     1       6.662  -3.898  21.910  0.00  0.00    +0.203 C 
BRANCH   9  11
ATOM     10  O   UNL     1       7.221  -6.356  22.039  0.00  0.00    -0.724 OA
ATOM     11  S   UNL     1       6.131  -5.535  21.540  0.00  0.00    -0.076 S 
ATOM     12  O   UNL     1       4.874  -5.607  22.293  0.00  0.00    -0.185 OA
ATOM     13  O   UNL     1       5.955  -5.478  20.095  0.00  0.00    -0.185 OA
ENDBRANCH   9  11
ENDBRANCH   8   9
ENDBRANCH   1   8
TORSDOF 3
ENDMDL
MODEL 3
REMARK VINA RESULT:      -4.2      2.557      3.201
REMARK  Name = 
REMARK  3 active torsions:
REMARK  status: ('A' for Active; 'I' for Inactive)
REMARK    1  A    between atoms: S_2  and  C_5
REMARK    2  A    between atoms: C_5  and  C_6
REMARK    3  A    between atoms: C_6  and  N_7
REMARK                            x       y       z     vdW  Elec       q    Type
REMARK                         _______ _______ _______ _____ _____    ______ ____
ROOT
ATOM      1  N   UNL     1       8.538  -2.424  24.707  0.00  0.00    +0.240 N 
ATOM      2  C   UNL     1       9.742  -1.600  24.325  0.00  0.00    +0.160 C 
ATOM      3  C   UNL     1      10.087  -1.808  22.847  0.00  0.00    +0.210 C 
ATOM      4  O   UNL     1       8.956  -1.538  22.005  0.00  0.00    -0.369 OA
ATOM      5  C   UNL     1       7.876  -2.433  22.309  0.00  0.00    +0.210 C 
ATOM      6  C   UNL     1       7.387  -2.224  23.746  0.00  0.00    +0.160 C 
ATOM      7  H   UNL     1       8.784  -3.444  24.594  0.00  0.00    +0.204 HD
ENDROOT
BRANCH   1   8
ATOM      8  C   UNL     1       8.186  -2.304  26.181  0.00  0.00    +0.153 C 
BRANCH   8   9
ATOM      9  C   UNL     1       7.262  -3.398  26.680  0.00  0.00    +0.203 C 
BRANCH   9  11
ATOM     10  O   UNL     1       7.625  -5.381  25.161  0.00  0.00    -0.724 OA
ATOM     11  S   UNL     1       8.044  -4.964  26.488  0.00  0.00    -0.076 S 
ATOM     12  O   UNL     1       9.459  -4.599  26.631  0.00  0.00    -0.185 OA
ATOM     13  O   UNL     1       7.507  -5.712  27.616  0.00  0.00    -0.185 OA
ENDBRANCH   9  11
ENDBRANCH   8   9
ENDBRANCH   1   8
TORSDOF 3
ENDMDL
MODEL 4
REMARK VINA RESULT:      -4.1      4.022      4.670
REMARK  Name = 
REMARK  3 active torsions:
REMARK  status: ('A' for Active; 'I' for Inactive)
REMARK    1  A    between atoms: S_2  and  C_5
REMARK    2  A    between atoms: C_5  and  C_6
REMARK    3  A    between atoms: C_6  and  N_7
REMARK                            x       y       z     vdW  Elec       q    Type
REMARK                         _______ _______ _______ _____ _____    ______ ____
ROOT
ATOM      1  N   UNL     1       9.537  -1.042  23.396  0.00  0.00    +0.240 N 
ATOM      2  C   UNL     1       9.498  -1.009  21.890  0.00  0.00    +0.160 C 
ATOM      3  C   UNL     1       9.251   0.419  21.391  0.00  0.00    +0.210 C 
ATOM      4  O   UNL     1      10.218   1.333  21.928  0.00  0.00    -0.369 OA
ATOM      5  C   UNL     1      10.134   1.373  23.360  0.00  0.00    +0.210 C 
ATOM      6  C   UNL     1      10.472   0.005  23.962  0.00  0.00    +0.160 C 
ATOM      7  H   UNL     1       8.589  -0.754  23.760  0.00  0.00    +0.204 HD
ENDROOT
BRANCH   1   8
ATOM      8  C   UNL     1       9.719  -2.446  23.950  0.00  0.00    +0.153 C 
BRANCH   8   9
ATOM      9  C   UNL     1       8.415  -3.160  24.247  0.00  0.00    +0.203 C 
BRANCH   9  11
ATOM     10  O   UNL     1       8.301  -5.550  23.444  0.00  0.00    -0.724 OA
ATOM     11  S   UNL     1       8.741  -4.846  24.636  0.00  0.00    -0.076 S 
ATOM     12  O   UNL     1      10.190  -4.814  24.866  0.00  0.00    -0.185 OA
ATOM     13  O   UNL     1       7.952  -5.037  25.845  0.00  0.00    -0.185 OA
ENDBRANCH   9  11
ENDBRANCH   8   9
ENDBRANCH   1   8
TORSDOF 3
ENDMDL
MODEL 5
REMARK VINA RESULT:      -4.1      3.048      3.883
REMARK  Name = 
REMARK  3 active torsions:
REMARK  status: ('A' for Active; 'I' for Inactive)
REMARK    1  A    between atoms: S_2  and  C_5
REMARK    2  A    between atoms: C_5  and  C_6
REMARK    3  A    between atoms: C_6  and  N_7
REMARK                            x       y       z     vdW  Elec       q    Type
REMARK                         _______ _______ _______ _____ _____    ______ ____
ROOT
ATOM      1  N   UNL     1       7.311  -3.686  23.221  0.00  0.00    +0.240 N 
ATOM      2  C   UNL     1       6.041  -3.155  22.607  0.00  0.00    +0.160 C 
ATOM      3  C   UNL     1       5.794  -3.802  21.241  0.00  0.00    +0.210 C 
ATOM      4  O   UNL     1       5.791  -5.234  21.336  0.00  0.00    -0.369 OA
ATOM      5  C   UNL     1       7.064  -5.711  21.797  0.00  0.00    +0.210 C 
ATOM      6  C   UNL     1       7.355  -5.199  23.211  0.00  0.00    +0.160 C 
ATOM      7  H   UNL     1       8.120  -3.409  22.603  0.00  0.00    +0.204 HD
ENDROOT
BRANCH   1   8
ATOM      8  C   UNL     1       7.640  -3.033  24.554  0.00  0.00    +0.153 C 
BRANCH   8   9
ATOM      9  C   UNL     1       8.270  -1.660  24.423  0.00  0.00    +0.203 C 
BRANCH   9  11
ATOM     10  O   UNL     1       9.173  -1.695  22.066  0.00  0.00    -0.724 OA
ATOM     11  S   UNL     1       9.710  -1.766  23.414  0.00  0.00    -0.076 S 
ATOM     12  O   UNL     1      10.466  -0.592  23.868  0.00  0.00    -0.185 OA
ATOM     13  O   UNL     1      10.281  -3.038  23.833  0.00  0.00    -0.185 OA
ENDBRANCH   9  11
ENDBRANCH   8   9
ENDBRANCH   1   8
TORSDOF 3
ENDMDL
MODEL 6
REMARK VINA RESULT:      -4.1      5.292      6.221
REMARK  Name = 
REMARK  3 active torsions:
REMARK  status: ('A' for Active; 'I' for Inactive)
REMARK    1  A    between atoms: S_2  and  C_5
REMARK    2  A    between atoms: C_5  and  C_6
REMARK    3  A    between atoms: C_6  and  N_7
REMARK                            x       y       z     vdW  Elec       q    Type
REMARK                         _______ _______ _______ _____ _____    ______ ____
ROOT
ATOM      1  N   UNL     1       9.068   0.824  22.446  0.00  0.00    +0.240 N 
ATOM      2  C   UNL     1       7.678   1.366  22.232  0.00  0.00    +0.160 C 
ATOM      3  C   UNL     1       7.410   2.542  23.177  0.00  0.00    +0.210 C 
ATOM      4  O   UNL     1       8.414   3.559  23.042  0.00  0.00    -0.369 OA
ATOM      5  C   UNL     1       9.707   3.038  23.383  0.00  0.00    +0.210 C 
ATOM      6  C   UNL     1      10.114   1.919  22.420  0.00  0.00    +0.160 C 
ATOM      7  H   UNL     1       9.130   0.444  23.428  0.00  0.00    +0.204 HD
ENDROOT
BRANCH   1   8
ATOM      8  C   UNL     1       9.369  -0.386  21.576  0.00  0.00    +0.153 C 
BRANCH   8   9
ATOM      9  C   UNL     1      10.250  -1.420  22.250  0.00  0.00    +0.203 C 
BRANCH   9  11
ATOM     10  O   UNL     1       9.923  -0.838  24.685  0.00  0.00    -0.724 OA
ATOM     11  S   UNL     1       9.526  -1.904  23.781  0.00  0.00    -0.076 S 
ATOM     12  O   UNL     1       8.103  -1.949  23.425  0.00  0.00    -0.185 OA
ATOM     13  O   UNL     1      10.125  -3.213  23.999  0.00  0.00    -0.185 OA
ENDBRANCH   9  11
ENDBRANCH   8   9
ENDBRANCH   1   8
TORSDOF 3
ENDMDL
MODEL 7
REMARK VINA RESULT:      -4.1      4.617      5.640
REMARK  Name = 
REMARK  3 active torsions:
REMARK  status: ('A' for Active; 'I' for Inactive)
REMARK    1  A    between atoms: S_2  and  C_5
REMARK    2  A    between atoms: C_5  and  C_6
REMARK    3  A    between atoms: C_6  and  N_7
REMARK                            x       y       z     vdW  Elec       q    Type
REMARK                         _______ _______ _______ _____ _____    ______ ____
ROOT
ATOM      1  N   UNL     1       9.892  -0.326  23.071  0.00  0.00    +0.240 N 
ATOM      2  C   UNL     1       9.720   0.377  21.748  0.00  0.00    +0.160 C 
ATOM      3  C   UNL     1       9.205   1.804  21.963  0.00  0.00    +0.210 C 
ATOM      4  O   UNL     1      10.055   2.536  22.858  0.00  0.00    -0.369 OA
ATOM      5  C   UNL     1      10.087   1.908  24.148  0.00  0.00    +0.210 C 
ATOM      6  C   UNL     1      10.691   0.503  24.053  0.00  0.00    +0.160 C 
ATOM      7  H   UNL     1       8.945  -0.411  23.528  0.00  0.00    +0.204 HD
ENDROOT
BRANCH   1   8
ATOM      8  C   UNL     1      10.344  -1.769  22.916  0.00  0.00    +0.153 C 
BRANCH   8   9
ATOM      9  C   UNL     1       9.713  -2.718  23.916  0.00  0.00    +0.203 C 
BRANCH   9  11
ATOM     10  O   UNL     1       7.595  -4.057  24.219  0.00  0.00    -0.724 OA
ATOM     11  S   UNL     1       7.971  -2.769  23.663  0.00  0.00    -0.076 S 
ATOM     12  O   UNL     1       7.535  -1.589  24.420  0.00  0.00    -0.185 OA
ATOM     13  O   UNL     1       7.870  -2.618  22.218  0.00  0.00    -0.185 OA
ENDBRANCH   9  11
ENDBRANCH   8   9
ENDBRANCH   1   8
TORSDOF 3
ENDMDL
MODEL 8
REMARK VINA RESULT:      -4.1      2.204      3.154
REMARK  Name = 
REMARK  3 active torsions:
REMARK  status: ('A' for Active; 'I' for Inactive)
REMARK    1  A    between atoms: S_2  and  C_5
REMARK    2  A    between atoms: C_5  and  C_6
REMARK    3  A    between atoms: C_6  and  N_7
REMARK                            x       y       z     vdW  Elec       q    Type
REMARK                         _______ _______ _______ _____ _____    ______ ____
ROOT
ATOM      1  N   UNL     1       8.353  -3.203  24.039  0.00  0.00    +0.240 N 
ATOM      2  C   UNL     1       7.355  -2.637  23.062  0.00  0.00    +0.160 C 
ATOM      3  C   UNL     1       7.402  -1.106  23.073  0.00  0.00    +0.210 C 
ATOM      4  O   UNL     1       8.731  -0.624  22.829  0.00  0.00    -0.369 OA
ATOM      5  C   UNL     1       9.627  -1.074  23.856  0.00  0.00    +0.210 C 
ATOM      6  C   UNL     1       9.730  -2.603  23.855  0.00  0.00    +0.160 C 
ATOM      7  H   UNL     1       8.076  -2.899  25.011  0.00  0.00    +0.204 HD
ENDROOT
BRANCH   1   8
ATOM      8  C   UNL     1       8.308  -4.721  24.116  0.00  0.00    +0.153 C 
BRANCH   8   9
ATOM      9  C   UNL     1       7.365  -5.252  25.177  0.00  0.00    +0.203 C 
BRANCH   9  11
ATOM     10  O   UNL     1       7.416  -5.769  27.647  0.00  0.00    -0.724 OA
ATOM     11  S   UNL     1       7.907  -4.722  26.767  0.00  0.00    -0.076 S 
ATOM     12  O   UNL     1       9.361  -4.672  26.574  0.00  0.00    -0.185 OA
ATOM     13  O   UNL     1       7.278  -3.414  26.881  0.00  0.00    -0.185 OA
ENDBRANCH   9  11
ENDBRANCH   8   9
ENDBRANCH   1   8
TORSDOF 3
ENDMDL
MODEL 9
REMARK VINA RESULT:      -4.0      1.700      2.403
REMARK  Name = 
REMARK  3 active torsions:
REMARK  status: ('A' for Active; 'I' for Inactive)
REMARK    1  A    between atoms: S_2  and  C_5
REMARK    2  A    between atoms: C_5  and  C_6
REMARK    3  A    between atoms: C_6  and  N_7
REMARK                            x       y       z     vdW  Elec       q    Type
REMARK                         _______ _______ _______ _____ _____    ______ ____
ROOT
ATOM      1  N   UNL     1       5.560  -4.752  23.954  0.00  0.00    +0.240 N 
ATOM      2  C   UNL     1       4.977  -3.536  23.280  0.00  0.00    +0.160 C 
ATOM      3  C   UNL     1       5.748  -3.211  21.997  0.00  0.00    +0.210 C 
ATOM      4  O   UNL     1       5.799  -4.345  21.119  0.00  0.00    -0.369 OA
ATOM      5  C   UNL     1       6.481  -5.440  21.748  0.00  0.00    +0.210 C 
ATOM      6  C   UNL     1       5.722  -5.910  22.993  0.00  0.00    +0.160 C 
ATOM      7  H   UNL     1       6.550  -4.528  24.244  0.00  0.00    +0.204 HD
ENDROOT
BRANCH   1   8
ATOM      8  C   UNL     1       4.871  -5.086  25.267  0.00  0.00    +0.153 C 
BRANCH   8   9
ATOM      9  C   UNL     1       5.656  -6.042  26.144  0.00  0.00    +0.203 C 
BRANCH   9  11
ATOM     10  O   UNL     1       8.077  -5.501  25.679  0.00  0.00    -0.724 OA
ATOM     11  S   UNL     1       7.111  -5.244  26.733  0.00  0.00    -0.076 S 
ATOM     12  O   UNL     1       6.648  -3.856  26.857  0.00  0.00    -0.185 OA
ATOM     13  O   UNL     1       7.329  -5.913  28.007  0.00  0.00    -0.185 OA
ENDBRANCH   9  11
ENDBRANCH   8   9
ENDBRANCH   1   8
TORSDOF 3
ENDMDL
