MODEL 1
REMARK VINA RESULT:      -4.7      0.000      0.000
REMARK  Name = 
REMARK  5 active torsions:
REMARK  status: ('A' for Active; 'I' for Inactive)
REMARK    1  A    between atoms: O_1  and  C_2
REMARK    2  A    between atoms: C_2  and  C_4
REMARK    3  A    between atoms: C_4  and  C_5
REMARK    4  A    between atoms: C_5  and  C_6
REMARK    5  A    between atoms: C_6  and  C_7
REMARK                            x       y       z     vdW  Elec       q    Type
REMARK                         _______ _______ _______ _____ _____    ______ ____
ROOT
ATOM      1  C   UNL     1      11.645   3.495  23.497  0.00  0.00    +0.016 C 
ENDROOT
BRANCH   1   2
ATOM      2  C   UNL     1      11.858   5.003  23.382  0.00  0.00    +0.121 C 
BRANCH   2   3
ATOM      3  C   UNL     1      13.131   5.330  22.634  0.00  0.00    +0.305 C 
ATOM      4  O   UNL     1      13.190   5.830  21.522  0.00  0.00    -0.251 OA
BRANCH   3   5
ATOM      5  O   UNL     1      14.239   5.010  23.342  0.00  0.00    -0.481 OA
ATOM      6  H   UNL     1      14.055   4.703  24.249  0.00  0.00    +0.295 HD
ENDBRANCH   3   5
ENDBRANCH   2   3
ENDBRANCH   1   2
BRANCH   1   7
ATOM      7  C   UNL     1      10.168   3.122  23.361  0.00  0.00    +0.043 C 
BRANCH   7   8
ATOM      8  C   UNL     1      10.006   1.711  22.880  0.00  0.00    -0.010 A 
ATOM      9  S   UNL     1      10.503   0.400  23.864  0.00  0.00    -0.102 S 
ATOM     10  C   UNL     1      10.050  -0.745  22.678  0.00  0.00    +0.045 A 
ATOM     11  C   UNL     1       9.517  -0.146  21.559  0.00  0.00    +0.008 A 
ATOM     12  C   UNL     1       9.487   1.273  21.676  0.00  0.00    +0.011 A 
ENDBRANCH   7   8
ENDBRANCH   1   7
TORSDOF 5
ENDMDL
MODEL 2
REMARK VINA RESULT:      -4.6      5.540      7.467
REMARK  Name = 
REMARK  5 active torsions:
REMARK  status: ('A' for Active; 'I' for Inactive)
REMARK    1  A    between atoms: O_1  and  C_2
REMARK    2  A    between atoms: C_2  and  C_4
REMARK    3  A    between atoms: C_4  and  C_5
REMARK    4  A    between atoms: C_5  and  C_6
REMARK    5  A    between atoms: C_6  and  C_7
REMARK                            x       y       z     vdW  Elec       q    Type
REMARK                         _______ _______ _______ _____ _____    ______ ____
ROOT
ATOM      1  C   UNL     1       8.583  -3.034  24.124  0.00  0.00    +0.016 C 
ENDROOT
BRANCH   1   2
ATOM      2  C   UNL     1       8.572  -4.525  24.451  0.00  0.00    +0.121 C 
BRANCH   2   3
ATOM      3  C   UNL     1       9.364  -4.826  25.704  0.00  0.00    +0.305 C 
ATOM      4  O   UNL     1       9.064  -4.471  26.833  0.00  0.00    -0.251 OA
BRANCH   3   5
ATOM      5  O   UNL     1      10.473  -5.557  25.447  0.00  0.00    -0.481 OA
ATOM      6  H   UNL     1      10.298  -6.506  25.303  0.00  0.00    +0.295 HD
ENDBRANCH   3   5
ENDBRANCH   2   3
ENDBRANCH   1   2
BRANCH   1   7
ATOM      7  C   UNL     1       9.985  -2.548  23.749  0.00  0.00    +0.043 C 
BRANCH   7   8
ATOM      8  C   UNL     1       9.941  -1.176  23.145  0.00  0.00    -0.010 A 
ATOM      9  S   UNL     1      10.374   0.194  24.078  0.00  0.00    -0.102 S 
ATOM     10  C   UNL     1      10.046   1.259  22.782  0.00  0.00    +0.045 A 
ATOM     11  C   UNL     1       9.629   0.589  21.654  0.00  0.00    +0.008 A 
ATOM     12  C   UNL     1       9.572  -0.820  21.862  0.00  0.00    +0.011 A 
ENDBRANCH   7   8
ENDBRANCH   1   7
TORSDOF 5
ENDMDL
MODEL 3
REMARK VINA RESULT:      -4.5      5.524      7.456
REMARK  Name = 
REMARK  5 active torsions:
REMARK  status: ('A' for Active; 'I' for Inactive)
REMARK    1  A    between atoms: O_1  and  C_2
REMARK    2  A    between atoms: C_2  and  C_4
REMARK    3  A    between atoms: C_4  and  C_5
REMARK    4  A    between atoms: C_5  and  C_6
REMARK    5  A    between atoms: C_6  and  C_7
REMARK                            x       y       z     vdW  Elec       q    Type
REMARK                         _______ _______ _______ _____ _____    ______ ____
ROOT
ATOM      1  C   UNL     1       9.060  -2.554  24.592  0.00  0.00    +0.016 C 
ENDROOT
BRANCH   1   2
ATOM      2  C   UNL     1       8.758  -4.051  24.573  0.00  0.00    +0.121 C 
BRANCH   2   3
ATOM      3  C   UNL     1       9.373  -4.758  25.759  0.00  0.00    +0.305 C 
ATOM      4  O   UNL     1       8.988  -4.668  26.914  0.00  0.00    -0.251 OA
BRANCH   3   5
ATOM      5  O   UNL     1      10.424  -5.534  25.406  0.00  0.00    -0.481 OA
ATOM      6  H   UNL     1      10.180  -6.313  24.873  0.00  0.00    +0.295 HD
ENDBRANCH   3   5
ENDBRANCH   2   3
ENDBRANCH   1   2
BRANCH   1   7
ATOM      7  C   UNL     1      10.078  -2.170  23.515  0.00  0.00    +0.043 C 
BRANCH   7   8
ATOM      8  C   UNL     1      10.123  -0.684  23.316  0.00  0.00    -0.010 A 
ATOM      9  S   UNL     1       9.670   0.001  21.813  0.00  0.00    -0.102 S 
ATOM     10  C   UNL     1      10.011   1.585  22.360  0.00  0.00    +0.045 A 
ATOM     11  C   UNL     1      10.448   1.598  23.665  0.00  0.00    +0.008 A 
ATOM     12  C   UNL     1      10.509   0.287  24.220  0.00  0.00    +0.011 A 
ENDBRANCH   7   8
ENDBRANCH   1   7
TORSDOF 5
ENDMDL
MODEL 4
REMARK VINA RESULT:      -4.3      6.934      8.997
REMARK  Name = 
REMARK  5 active torsions:
REMARK  status: ('A' for Active; 'I' for Inactive)
REMARK    1  A    between atoms: O_1  and  C_2
REMARK    2  A    between atoms: C_2  and  C_4
REMARK    3  A    between atoms: C_4  and  C_5
REMARK    4  A    between atoms: C_5  and  C_6
REMARK    5  A    between atoms: C_6  and  C_7
REMARK                            x       y       z     vdW  Elec       q    Type
REMARK                         _______ _______ _______ _____ _____    ______ ____
ROOT
ATOM      1  C   UNL     1       7.348  -4.645  23.080  0.00  0.00    +0.016 C 
ENDROOT
BRANCH   1   2
ATOM      2  C   UNL     1       7.261  -5.859  22.157  0.00  0.00    +0.121 C 
BRANCH   2   3
ATOM      3  C   UNL     1       6.021  -5.812  21.292  0.00  0.00    +0.305 C 
ATOM      4  O   UNL     1       6.006  -5.622  20.086  0.00  0.00    -0.251 OA
BRANCH   3   5
ATOM      5  O   UNL     1       4.889  -6.014  22.006  0.00  0.00    -0.481 OA
ATOM      6  H   UNL     1       4.071  -5.940  21.480  0.00  0.00    +0.295 HD
ENDBRANCH   3   5
ENDBRANCH   2   3
ENDBRANCH   1   2
BRANCH   1   7
ATOM      7  C   UNL     1       7.269  -3.333  22.296  0.00  0.00    +0.043 C 
BRANCH   7   8
ATOM      8  C   UNL     1       8.375  -2.399  22.688  0.00  0.00    -0.010 A 
ATOM      9  S   UNL     1       8.766  -2.167  24.340  0.00  0.00    -0.102 S 
ATOM     10  C   UNL     1       9.988  -1.034  23.957  0.00  0.00    +0.045 A 
ATOM     11  C   UNL     1      10.109  -0.844  22.599  0.00  0.00    +0.008 A 
ATOM     12  C   UNL     1       9.180  -1.636  21.864  0.00  0.00    +0.011 A 
ENDBRANCH   7   8
ENDBRANCH   1   7
TORSDOF 5
ENDMDL
MODEL 5
REMARK VINA RESULT:      -4.3      3.344      4.394
REMARK  Name = 
REMARK  5 active torsions:
REMARK  status: ('A' for Active; 'I' for Inactive)
REMARK    1  A    between atoms: O_1  and  C_2
REMARK    2  A    between atoms: C_2  and  C_4
REMARK    3  A    between atoms: C_4  and  C_5
REMARK    4  A    between atoms: C_5  and  C_6
REMARK    5  A    between atoms: C_6  and  C_7
REMARK                            x       y       z     vdW  Elec       q    Type
REMARK                         _______ _______ _______ _____ _____    ______ ____
ROOT
ATOM      1  C   UNL     1       9.658   1.748  24.410  0.00  0.00    +0.016 C 
ENDROOT
BRANCH   1   2
ATOM      2  C   UNL     1       8.742   1.524  23.208  0.00  0.00    +0.121 C 
BRANCH   2   3
ATOM      3  C   UNL     1       9.534   1.278  21.944  0.00  0.00    +0.305 C 
ATOM      4  O   UNL     1       9.520   0.248  21.289  0.00  0.00    -0.251 OA
BRANCH   3   5
ATOM      5  O   UNL     1      10.282   2.349  21.589  0.00  0.00    -0.481 OA
ATOM      6  H   UNL     1      10.369   2.469  20.625  0.00  0.00    +0.295 HD
ENDBRANCH   3   5
ENDBRANCH   2   3
ENDBRANCH   1   2
BRANCH   1   7
ATOM      7  C   UNL     1      10.535   0.525  24.686  0.00  0.00    +0.043 C 
BRANCH   7   8
ATOM      8  C   UNL     1       9.702  -0.684  24.993  0.00  0.00    -0.010 A 
ATOM      9  S   UNL     1       8.723  -0.724  26.399  0.00  0.00    -0.102 S 
ATOM     10  C   UNL     1       8.185  -2.310  26.055  0.00  0.00    +0.045 A 
ATOM     11  C   UNL     1       8.725  -2.798  24.887  0.00  0.00    +0.008 A 
ATOM     12  C   UNL     1       9.599  -1.857  24.270  0.00  0.00    +0.011 A 
ENDBRANCH   7   8
ENDBRANCH   1   7
TORSDOF 5
ENDMDL
MODEL 6
REMARK VINA RESULT:      -4.2      5.259      7.072
REMARK  Name = 
REMARK  5 active torsions:
REMARK  status: ('A' for Active; 'I' for Inactive)
REMARK    1  A    between atoms: O_1  and  C_2
REMARK    2  A    between atoms: C_2  and  C_4
REMARK    3  A    between atoms: C_4  and  C_5
REMARK    4  A    between atoms: C_5  and  C_6
REMARK    5  A    between atoms: C_6  and  C_7
REMARK                            x       y       z     vdW  Elec       q    Type
REMARK                         _______ _______ _______ _____ _____    ______ ____
ROOT
ATOM      1  C   UNL     1       9.919  -2.407  23.861  0.00  0.00    +0.016 C 
ENDROOT
BRANCH   1   2
ATOM      2  C   UNL     1       8.447  -2.806  23.945  0.00  0.00    +0.121 C 
BRANCH   2   3
ATOM      3  C   UNL     1       8.273  -4.307  23.889  0.00  0.00    +0.305 C 
ATOM      4  O   UNL     1       7.330  -4.892  23.380  0.00  0.00    -0.251 OA
BRANCH   3   5
ATOM      5  O   UNL     1       9.301  -4.965  24.472  0.00  0.00    -0.481 OA
ATOM      6  H   UNL     1       9.039  -5.515  25.233  0.00  0.00    +0.295 HD
ENDBRANCH   3   5
ENDBRANCH   2   3
ENDBRANCH   1   2
BRANCH   1   7
ATOM      7  C   UNL     1      10.222  -1.637  22.574  0.00  0.00    +0.043 C 
BRANCH   7   8
ATOM      8  C   UNL     1      10.213  -0.157  22.812  0.00  0.00    -0.010 A 
ATOM      9  S   UNL     1      10.633   0.475  24.348  0.00  0.00    -0.102 S 
ATOM     10  C   UNL     1      10.357   2.082  23.833  0.00  0.00    +0.045 A 
ATOM     11  C   UNL     1       9.967   2.142  22.515  0.00  0.00    +0.008 A 
ATOM     12  C   UNL     1       9.887   0.849  21.922  0.00  0.00    +0.011 A 
ENDBRANCH   7   8
ENDBRANCH   1   7
TORSDOF 5
ENDMDL
MODEL 7
REMARK VINA RESULT:      -4.2      1.719      2.271
REMARK  Name = 
REMARK  5 active torsions:
REMARK  status: ('A' for Active; 'I' for Inactive)
REMARK    1  A    between atoms: O_1  and  C_2
REMARK    2  A    between atoms: C_2  and  C_4
REMARK    3  A    between atoms: C_4  and  C_5
REMARK    4  A    between atoms: C_5  and  C_6
REMARK    5  A    between atoms: C_6  and  C_7
REMARK                            x       y       z     vdW  Elec       q    Type
REMARK                         _______ _______ _______ _____ _____    ______ ____
ROOT
ATOM      1  C   UNL     1      10.462   3.147  23.489  0.00  0.00    +0.016 C 
ENDROOT
BRANCH   1   2
ATOM      2  C   UNL     1      11.718   3.994  23.295  0.00  0.00    +0.121 C 
BRANCH   2   3
ATOM      3  C   UNL     1      11.458   5.452  23.598  0.00  0.00    +0.305 C 
ATOM      4  O   UNL     1      12.155   6.164  24.303  0.00  0.00    -0.251 OA
BRANCH   3   5
ATOM      5  O   UNL     1      10.343   5.913  22.986  0.00  0.00    -0.481 OA
ATOM      6  H   UNL     1      10.390   5.896  22.012  0.00  0.00    +0.295 HD
ENDBRANCH   3   5
ENDBRANCH   2   3
ENDBRANCH   1   2
BRANCH   1   7
ATOM      7  C   UNL     1      10.242   2.187  22.318  0.00  0.00    +0.043 C 
BRANCH   7   8
ATOM      8  C   UNL     1      10.062   0.778  22.798  0.00  0.00    -0.010 A 
ATOM      9  S   UNL     1       9.545  -0.445  21.716  0.00  0.00    -0.102 S 
ATOM     10  C   UNL     1       9.556  -1.630  22.948  0.00  0.00    +0.045 A 
ATOM     11  C   UNL     1       9.959  -1.113  24.159  0.00  0.00    +0.008 A 
ATOM     12  C   UNL     1      10.256   0.278  24.072  0.00  0.00    +0.011 A 
ENDBRANCH   7   8
ENDBRANCH   1   7
TORSDOF 5
ENDMDL
MODEL 8
REMARK VINA RESULT:      -4.2      3.747      5.113
REMARK  Name = 
REMARK  5 active torsions:
REMARK  status: ('A' for Active; 'I' for Inactive)
REMARK    1  A    between atoms: O_1  and  C_2
REMARK    2  A    between atoms: C_2  and  C_4
REMARK    3  A    between atoms: C_4  and  C_5
REMARK    4  A    between atoms: C_5  and  C_6
REMARK    5  A    between atoms: C_6  and  C_7
REMARK                            x       y       z     vdW  Elec       q    Type
REMARK                         _______ _______ _______ _____ _____    ______ ____
ROOT
ATOM      1  C   UNL     1      10.364  -0.793  23.518  0.00  0.00    +0.016 C 
ENDROOT
BRANCH   1   2
ATOM      2  C   UNL     1      10.234   0.719  23.343  0.00  0.00    +0.121 C 
BRANCH   2   3
ATOM      3  C   UNL     1       9.854   1.084  21.927  0.00  0.00    +0.305 C 
ATOM      4  O   UNL     1       9.248   0.365  21.148  0.00  0.00    -0.251 OA
BRANCH   3   5
ATOM      5  O   UNL     1      10.256   2.332  21.593  0.00  0.00    -0.481 OA
ATOM      6  H   UNL     1      10.805   2.766  22.272  0.00  0.00    +0.295 HD
ENDBRANCH   3   5
ENDBRANCH   2   3
ENDBRANCH   1   2
BRANCH   1   7
ATOM      7  C   UNL     1       9.341  -1.335  24.521  0.00  0.00    +0.043 C 
BRANCH   7   8
ATOM      8  C   UNL     1       8.715  -2.604  24.025  0.00  0.00    -0.010 A 
ATOM      9  S   UNL     1       7.697  -2.585  22.648  0.00  0.00    -0.102 S 
ATOM     10  C   UNL     1       7.398  -4.264  22.767  0.00  0.00    +0.045 A 
ATOM     11  C   UNL     1       8.069  -4.835  23.825  0.00  0.00    +0.008 A 
ATOM     12  C   UNL     1       8.834  -3.876  24.550  0.00  0.00    +0.011 A 
ENDBRANCH   7   8
ENDBRANCH   1   7
TORSDOF 5
ENDMDL
MODEL 9
REMARK VINA RESULT:      -4.2      5.566      7.280
REMARK  Name = 
REMARK  5 active torsions:
REMARK  status: ('A' for Active; 'I' for Inactive)
REMARK    1  A    between atoms: O_1  and  C_2
REMARK    2  A    between atoms: C_2  and  C_4
REMARK    3  A    between atoms: C_4  and  C_5
REMARK    4  A    between atoms: C_5  and  C_6
REMARK    5  A    between atoms: C_6  and  C_7
REMARK                            x       y       z     vdW  Elec       q    Type
REMARK                         _______ _______ _______ _____ _____    ______ ____
ROOT
ATOM      1  C   UNL     1       8.519  -2.854  23.538  0.00  0.00    +0.016 C 
ENDROOT
BRANCH   1   2
ATOM      2  C   UNL     1       9.955  -2.375  23.740  0.00  0.00    +0.121 C 
BRANCH   2   3
ATOM      3  C   UNL     1      10.292  -1.224  22.820  0.00  0.00    +0.305 C 
ATOM      4  O   UNL     1      10.621  -0.104  23.178  0.00  0.00    -0.251 OA
BRANCH   3   5
ATOM      5  O   UNL     1      10.198  -1.566  21.514  0.00  0.00    -0.481 OA
ATOM      6  H   UNL     1      10.348  -2.514  21.341  0.00  0.00    +0.295 HD
ENDBRANCH   3   5
ENDBRANCH   2   3
ENDBRANCH   1   2
BRANCH   1   7
ATOM      7  C   UNL     1       8.346  -4.313  23.967  0.00  0.00    +0.043 C 
BRANCH   7   8
ATOM      8  C   UNL     1       7.201  -4.959  23.245  0.00  0.00    -0.010 A 
ATOM      9  S   UNL     1       5.681  -5.133  24.016  0.00  0.00    -0.102 S 
ATOM     10  C   UNL     1       5.010  -5.922  22.655  0.00  0.00    +0.045 A 
ATOM     11  C   UNL     1       5.918  -6.040  21.627  0.00  0.00    +0.008 A 
ATOM     12  C   UNL     1       7.183  -5.480  21.966  0.00  0.00    +0.011 A 
ENDBRANCH   7   8
ENDBRANCH   1   7
TORSDOF 5
ENDMDL
