MODEL 1
REMARK VINA RESULT:      -7.4      0.000      0.000
REMARK  Name = 
REMARK  8 active torsions:
REMARK  status: ('A' for Active; 'I' for Inactive)
REMARK    1  A    between atoms: C_2  and  O_3
REMARK    2  A    between atoms: C_2  and  C_4
REMARK    3  A    between atoms: C_2  and  C_18
REMARK    4  A    between atoms: C_4  and  O_5
REMARK    5  A    between atoms: O_5  and  C_6
REMARK    6  A    between atoms: C_9  and  C_12
REMARK    7  A    between atoms: C_18  and  N_19
REMARK    8  A    between atoms: N_22  and  C_25
REMARK                            x       y       z     vdW  Elec       q    Type
REMARK                         _______ _______ _______ _____ _____    ______ ____
ROOT
ATOM      1  C   UNL     1       8.738  -1.883  23.208  0.00  0.00    +0.166 C 
ENDROOT
BRANCH   1   2
ATOM      2  O   UNL     1       9.637  -1.606  22.122  0.00  0.00    -0.387 OA
ATOM      3  H   UNL     1       9.974  -2.476  21.831  0.00  0.00    +0.210 HD
ENDBRANCH   1   2
BRANCH   1   4
ATOM      4  C   UNL     1       9.498  -2.701  24.275  0.00  0.00    +0.119 C 
BRANCH   4   5
ATOM      5  N   UNL     1       9.368  -4.164  24.179  0.00  0.00    -0.297 NA
ATOM      6  C   UNL     1       7.987  -4.552  23.794  0.00  0.00    +0.103 C 
ATOM      7  C   UNL     1       6.916  -4.421  24.908  0.00  0.00    +0.122 C 
ATOM      8  N   UNL     1       7.350  -5.164  26.098  0.00  0.00    -0.313 N 
ATOM      9  C   UNL     1       8.687  -4.774  26.584  0.00  0.00    +0.122 C 
ATOM     10  C   UNL     1       9.716  -4.876  25.432  0.00  0.00    +0.103 C 
BRANCH   8  11
ATOM     11  C   UNL     1       6.445  -5.596  27.059  0.00  0.00    +0.121 A 
ATOM     12  N   UNL     1       6.926  -6.025  28.249  0.00  0.00    -0.240 NA
ATOM     13  C   UNL     1       6.075  -6.562  29.154  0.00  0.00    +0.113 A 
ATOM     14  C   UNL     1       4.718  -6.702  28.948  0.00  0.00    +0.020 A 
ATOM     15  C   UNL     1       4.210  -6.253  27.742  0.00  0.00    +0.005 A 
ATOM     16  C   UNL     1       5.078  -5.702  26.795  0.00  0.00    +0.043 A 
ENDBRANCH   8  11
ENDBRANCH   4   5
ENDBRANCH   1   4
BRANCH   1  17
ATOM     17  C   UNL     1       8.187  -0.562  23.758  0.00  0.00    +0.261 C 
BRANCH  17  18
ATOM     18  O   UNL     1       9.202   0.017  24.600  0.00  0.00    -0.489 OA
BRANCH  18  19
ATOM     19  C   UNL     1       9.477   1.334  24.348  0.00  0.00    +0.121 A 
ATOM     20  C   UNL     1      10.594   1.797  23.663  0.00  0.00    +0.046 A 
ATOM     21  C   UNL     1      10.760   3.166  23.426  0.00  0.00    +0.007 A 
ATOM     22  C   UNL     1       9.836   4.117  23.890  0.00  0.00    -0.044 A 
ATOM     23  C   UNL     1       8.729   3.627  24.606  0.00  0.00    +0.007 A 
ATOM     24  C   UNL     1       8.562   2.255  24.845  0.00  0.00    +0.046 A 
BRANCH  22  25
ATOM     25  C   UNL     1       9.988   5.601  23.539  0.00  0.00    +0.019 C 
ATOM     26  C   UNL     1      11.444   6.076  23.313  0.00  0.00    +0.008 C 
ATOM     27  C   UNL     1      12.246   6.113  24.617  0.00  0.00    +0.001 C 
ATOM     28  C   UNL     1      11.573   7.000  25.661  0.00  0.00    +0.000 C 
ATOM     29  C   UNL     1      10.103   6.645  25.866  0.00  0.00    +0.001 C 
ATOM     30  C   UNL     1       9.344   6.588  24.539  0.00  0.00    +0.008 C 
ENDBRANCH  22  25
ENDBRANCH  18  19
ENDBRANCH  17  18
ENDBRANCH   1  17
TORSDOF 8
ENDMDL
MODEL 2
REMARK VINA RESULT:      -7.3      3.967      6.769
REMARK  Name = 
REMARK  8 active torsions:
REMARK  status: ('A' for Active; 'I' for Inactive)
REMARK    1  A    between atoms: C_2  and  O_3
REMARK    2  A    between atoms: C_2  and  C_4
REMARK    3  A    between atoms: C_2  and  C_18
REMARK    4  A    between atoms: C_4  and  O_5
REMARK    5  A    between atoms: O_5  and  C_6
REMARK    6  A    between atoms: C_9  and  C_12
REMARK    7  A    between atoms: C_18  and  N_19
REMARK    8  A    between atoms: N_22  and  C_25
REMARK                            x       y       z     vdW  Elec       q    Type
REMARK                         _______ _______ _______ _____ _____    ______ ____
ROOT
ATOM      1  C   UNL     1       5.320  -6.708  27.792  0.00  0.00    +0.166 C 
ENDROOT
BRANCH   1   2
ATOM      2  O   UNL     1       5.599  -7.878  28.578  0.00  0.00    -0.387 OA
ATOM      3  H   UNL     1       6.572  -7.910  28.666  0.00  0.00    +0.210 HD
ENDBRANCH   1   2
BRANCH   1   4
ATOM      4  C   UNL     1       3.896  -6.218  28.134  0.00  0.00    +0.119 C 
BRANCH   4   5
ATOM      5  N   UNL     1       2.925  -6.237  27.028  0.00  0.00    -0.297 NA
ATOM      6  C   UNL     1       3.320  -7.220  25.988  0.00  0.00    +0.103 C 
ATOM      7  C   UNL     1       4.508  -6.801  25.083  0.00  0.00    +0.122 C 
ATOM      8  N   UNL     1       4.228  -5.492  24.478  0.00  0.00    -0.313 N 
ATOM      9  C   UNL     1       3.902  -4.443  25.462  0.00  0.00    +0.122 C 
ATOM     10  C   UNL     1       2.743  -4.919  26.373  0.00  0.00    +0.103 C 
BRANCH   8  11
ATOM     11  C   UNL     1       4.864  -5.074  23.317  0.00  0.00    +0.121 A 
ATOM     12  N   UNL     1       5.565  -5.986  22.603  0.00  0.00    -0.240 NA
ATOM     13  C   UNL     1       6.290  -5.578  21.536  0.00  0.00    +0.113 A 
ATOM     14  C   UNL     1       6.364  -4.269  21.108  0.00  0.00    +0.020 A 
ATOM     15  C   UNL     1       5.640  -3.328  21.819  0.00  0.00    +0.005 A 
ATOM     16  C   UNL     1       4.891  -3.733  22.927  0.00  0.00    +0.043 A 
ENDBRANCH   8  11
ENDBRANCH   4   5
ENDBRANCH   1   4
BRANCH   1  17
ATOM     17  C   UNL     1       6.392  -5.647  28.066  0.00  0.00    +0.261 C 
BRANCH  17  18
ATOM     18  O   UNL     1       7.443  -5.829  27.099  0.00  0.00    -0.489 OA
BRANCH  18  19
ATOM     19  C   UNL     1       7.630  -4.774  26.247  0.00  0.00    +0.121 A 
ATOM     20  C   UNL     1       8.250  -4.852  25.006  0.00  0.00    +0.046 A 
ATOM     21  C   UNL     1       8.357  -3.716  24.196  0.00  0.00    +0.007 A 
ATOM     22  C   UNL     1       7.877  -2.463  24.609  0.00  0.00    -0.044 A 
ATOM     23  C   UNL     1       7.280  -2.401  25.881  0.00  0.00    +0.007 A 
ATOM     24  C   UNL     1       7.175  -3.539  26.695  0.00  0.00    +0.046 A 
BRANCH  22  25
ATOM     25  C   UNL     1       7.920  -1.253  23.669  0.00  0.00    +0.019 C 
ATOM     26  C   UNL     1       8.855  -1.405  22.445  0.00  0.00    +0.008 C 
ATOM     27  C   UNL     1      10.333  -1.379  22.846  0.00  0.00    +0.001 C 
ATOM     28  C   UNL     1      10.683  -0.101  23.603  0.00  0.00    +0.000 C 
ATOM     29  C   UNL     1       9.737   0.160  24.772  0.00  0.00    +0.001 C 
ATOM     30  C   UNL     1       8.271   0.095  24.339  0.00  0.00    +0.008 C 
ENDBRANCH  22  25
ENDBRANCH  18  19
ENDBRANCH  17  18
ENDBRANCH   1  17
TORSDOF 8
ENDMDL
MODEL 3
REMARK VINA RESULT:      -7.3      3.078      4.567
REMARK  Name = 
REMARK  8 active torsions:
REMARK  status: ('A' for Active; 'I' for Inactive)
REMARK    1  A    between atoms: C_2  and  O_3
REMARK    2  A    between atoms: C_2  and  C_4
REMARK    3  A    between atoms: C_2  and  C_18
REMARK    4  A    between atoms: C_4  and  O_5
REMARK    5  A    between atoms: O_5  and  C_6
REMARK    6  A    between atoms: C_9  and  C_12
REMARK    7  A    between atoms: C_18  and  N_19
REMARK    8  A    between atoms: N_22  and  C_25
REMARK                            x       y       z     vdW  Elec       q    Type
REMARK                         _______ _______ _______ _____ _____    ______ ____
ROOT
ATOM      1  C   UNL     1       9.067  -5.009  24.735  0.00  0.00    +0.166 C 
ENDROOT
BRANCH   1   2
ATOM      2  O   UNL     1      10.073  -5.836  25.342  0.00  0.00    -0.387 OA
ATOM      3  H   UNL     1       9.789  -6.757  25.181  0.00  0.00    +0.210 HD
ENDBRANCH   1   2
BRANCH   1   4
ATOM      4  C   UNL     1       7.704  -5.348  25.377  0.00  0.00    +0.119 C 
BRANCH   4   5
ATOM      5  N   UNL     1       6.582  -4.470  25.008  0.00  0.00    -0.297 NA
ATOM      6  C   UNL     1       5.445  -4.633  25.948  0.00  0.00    +0.103 C 
ATOM      7  C   UNL     1       4.619  -5.936  25.786  0.00  0.00    +0.122 C 
ATOM      8  N   UNL     1       4.163  -6.060  24.396  0.00  0.00    -0.313 N 
ATOM      9  C   UNL     1       5.254  -5.984  23.406  0.00  0.00    +0.122 C 
ATOM     10  C   UNL     1       6.079  -4.693  23.631  0.00  0.00    +0.103 C 
BRANCH   8  11
ATOM     11  C   UNL     1       3.072  -6.848  24.053  0.00  0.00    +0.121 A 
ATOM     12  N   UNL     1       2.862  -7.992  24.745  0.00  0.00    -0.240 NA
ATOM     13  C   UNL     1       1.878  -8.833  24.352  0.00  0.00    +0.113 A 
ATOM     14  C   UNL     1       1.047  -8.600  23.276  0.00  0.00    +0.020 A 
ATOM     15  C   UNL     1       1.239  -7.426  22.570  0.00  0.00    +0.005 A 
ATOM     16  C   UNL     1       2.256  -6.550  22.959  0.00  0.00    +0.043 A 
ENDBRANCH   8  11
ENDBRANCH   4   5
ENDBRANCH   1   4
BRANCH   1  17
ATOM     17  C   UNL     1       9.451  -3.535  24.909  0.00  0.00    +0.261 C 
BRANCH  17  18
ATOM     18  O   UNL     1      10.224  -3.147  23.757  0.00  0.00    -0.489 OA
BRANCH  18  19
ATOM     19  C   UNL     1      10.010  -1.866  23.326  0.00  0.00    +0.121 A 
ATOM     20  C   UNL     1       9.715  -1.505  22.016  0.00  0.00    +0.046 A 
ATOM     21  C   UNL     1       9.478  -0.165  21.689  0.00  0.00    +0.007 A 
ATOM     22  C   UNL     1       9.556   0.858  22.648  0.00  0.00    -0.044 A 
ATOM     23  C   UNL     1       9.885   0.473  23.960  0.00  0.00    +0.007 A 
ATOM     24  C   UNL     1      10.126  -0.869  24.289  0.00  0.00    +0.046 A 
BRANCH  22  25
ATOM     25  C   UNL     1       9.201   2.305  22.288  0.00  0.00    +0.019 C 
ATOM     26  C   UNL     1       9.310   3.317  23.453  0.00  0.00    +0.008 C 
ATOM     27  C   UNL     1       8.208   3.112  24.497  0.00  0.00    +0.001 C 
ATOM     28  C   UNL     1       6.821   3.201  23.868  0.00  0.00    +0.000 C 
ATOM     29  C   UNL     1       6.674   2.293  22.650  0.00  0.00    +0.001 C 
ATOM     30  C   UNL     1       7.809   2.505  21.647  0.00  0.00    +0.008 C 
ENDBRANCH  22  25
ENDBRANCH  18  19
ENDBRANCH  17  18
ENDBRANCH   1  17
TORSDOF 8
ENDMDL
MODEL 4
REMARK VINA RESULT:      -7.2      3.117      5.333
REMARK  Name = 
REMARK  8 active torsions:
REMARK  status: ('A' for Active; 'I' for Inactive)
REMARK    1  A    between atoms: C_2  and  O_3
REMARK    2  A    between atoms: C_2  and  C_4
REMARK    3  A    between atoms: C_2  and  C_18
REMARK    4  A    between atoms: C_4  and  O_5
REMARK    5  A    between atoms: O_5  and  C_6
REMARK    6  A    between atoms: C_9  and  C_12
REMARK    7  A    between atoms: C_18  and  N_19
REMARK    8  A    between atoms: N_22  and  C_25
REMARK                            x       y       z     vdW  Elec       q    Type
REMARK                         _______ _______ _______ _____ _____    ______ ____
ROOT
ATOM      1  C   UNL     1       5.761  -5.339  22.415  0.00  0.00    +0.166 C 
ENDROOT
BRANCH   1   2
ATOM      2  O   UNL     1       5.351  -6.240  21.373  0.00  0.00    -0.387 OA
ATOM      3  H   UNL     1       5.295  -7.120  21.794  0.00  0.00    +0.210 HD
ENDBRANCH   1   2
BRANCH   1   4
ATOM      4  C   UNL     1       5.514  -6.022  23.777  0.00  0.00    +0.119 C 
BRANCH   4   5
ATOM      5  N   UNL     1       4.424  -5.460  24.591  0.00  0.00    -0.297 NA
ATOM      6  C   UNL     1       3.898  -4.210  23.988  0.00  0.00    +0.103 C 
ATOM      7  C   UNL     1       4.801  -2.958  24.138  0.00  0.00    +0.122 C 
ATOM      8  N   UNL     1       5.126  -2.752  25.555  0.00  0.00    -0.313 N 
ATOM      9  C   UNL     1       5.727  -3.933  26.202  0.00  0.00    +0.122 C 
ATOM     10  C   UNL     1       4.817  -5.168  25.992  0.00  0.00    +0.103 C 
BRANCH   8  11
ATOM     11  C   UNL     1       5.523  -1.513  26.039  0.00  0.00    +0.121 A 
ATOM     12  N   UNL     1       4.809  -0.421  25.678  0.00  0.00    -0.240 NA
ATOM     13  C   UNL     1       5.245   0.807  26.039  0.00  0.00    +0.113 A 
ATOM     14  C   UNL     1       6.391   1.033  26.773  0.00  0.00    +0.020 A 
ATOM     15  C   UNL     1       7.122  -0.074  27.164  0.00  0.00    +0.005 A 
ATOM     16  C   UNL     1       6.688  -1.348  26.793  0.00  0.00    +0.043 A 
ENDBRANCH   8  11
ENDBRANCH   4   5
ENDBRANCH   1   4
BRANCH   1  17
ATOM     17  C   UNL     1       7.231  -4.957  22.203  0.00  0.00    +0.261 C 
BRANCH  17  18
ATOM     18  O   UNL     1       7.754  -4.516  23.471  0.00  0.00    -0.489 OA
BRANCH  18  19
ATOM     19  C   UNL     1       8.364  -3.291  23.446  0.00  0.00    +0.121 A 
ATOM     20  C   UNL     1       9.094  -2.744  24.495  0.00  0.00    +0.046 A 
ATOM     21  C   UNL     1       9.710  -1.496  24.351  0.00  0.00    +0.007 A 
ATOM     22  C   UNL     1       9.592  -0.742  23.172  0.00  0.00    -0.044 A 
ATOM     23  C   UNL     1       8.824  -1.302  22.136  0.00  0.00    +0.007 A 
ATOM     24  C   UNL     1       8.205  -2.552  22.279  0.00  0.00    +0.046 A 
BRANCH  22  25
ATOM     25  C   UNL     1      10.351   0.579  23.002  0.00  0.00    +0.019 C 
ATOM     26  C   UNL     1      10.422   1.464  24.270  0.00  0.00    +0.008 C 
ATOM     27  C   UNL     1       9.062   2.077  24.619  0.00  0.00    +0.001 C 
ATOM     28  C   UNL     1       8.503   2.891  23.456  0.00  0.00    +0.000 C 
ATOM     29  C   UNL     1       8.493   2.105  22.147  0.00  0.00    +0.001 C 
ATOM     30  C   UNL     1       9.858   1.483  21.850  0.00  0.00    +0.008 C 
ENDBRANCH  22  25
ENDBRANCH  18  19
ENDBRANCH  17  18
ENDBRANCH   1  17
TORSDOF 8
ENDMDL
MODEL 5
REMARK VINA RESULT:      -7.2      1.213      2.071
REMARK  Name = 
REMARK  8 active torsions:
REMARK  status: ('A' for Active; 'I' for Inactive)
REMARK    1  A    between atoms: C_2  and  O_3
REMARK    2  A    between atoms: C_2  and  C_4
REMARK    3  A    between atoms: C_2  and  C_18
REMARK    4  A    between atoms: C_4  and  O_5
REMARK    5  A    between atoms: O_5  and  C_6
REMARK    6  A    between atoms: C_9  and  C_12
REMARK    7  A    between atoms: C_18  and  N_19
REMARK    8  A    between atoms: N_22  and  C_25
REMARK                            x       y       z     vdW  Elec       q    Type
REMARK                         _______ _______ _______ _____ _____    ______ ____
ROOT
ATOM      1  C   UNL     1       9.103  -1.902  22.885  0.00  0.00    +0.166 C 
ENDROOT
BRANCH   1   2
ATOM      2  O   UNL     1      10.264  -1.908  22.037  0.00  0.00    -0.387 OA
ATOM      3  H   UNL     1      10.001  -2.402  21.236  0.00  0.00    +0.210 HD
ENDBRANCH   1   2
BRANCH   1   4
ATOM      4  C   UNL     1       9.448  -2.653  24.190  0.00  0.00    +0.119 C 
BRANCH   4   5
ATOM      5  N   UNL     1       9.417  -4.122  24.114  0.00  0.00    -0.297 NA
ATOM      6  C   UNL     1       8.078  -4.608  23.697  0.00  0.00    +0.103 C 
ATOM      7  C   UNL     1       6.968  -4.532  24.777  0.00  0.00    +0.122 C 
ATOM      8  N   UNL     1       7.415  -5.227  25.992  0.00  0.00    -0.313 N 
ATOM      9  C   UNL     1       8.708  -4.742  26.509  0.00  0.00    +0.122 C 
ATOM     10  C   UNL     1       9.775  -4.792  25.389  0.00  0.00    +0.103 C 
BRANCH   8  11
ATOM     11  C   UNL     1       6.512  -5.705  26.933  0.00  0.00    +0.121 A 
ATOM     12  N   UNL     1       6.950  -5.912  28.196  0.00  0.00    -0.240 NA
ATOM     13  C   UNL     1       6.123  -6.489  29.099  0.00  0.00    +0.113 A 
ATOM     14  C   UNL     1       4.832  -6.885  28.818  0.00  0.00    +0.020 A 
ATOM     15  C   UNL     1       4.366  -6.664  27.535  0.00  0.00    +0.005 A 
ATOM     16  C   UNL     1       5.210  -6.076  26.590  0.00  0.00    +0.043 A 
ENDBRANCH   8  11
ENDBRANCH   4   5
ENDBRANCH   1   4
BRANCH   1  17
ATOM     17  C   UNL     1       8.667  -0.453  23.135  0.00  0.00    +0.261 C 
BRANCH  17  18
ATOM     18  O   UNL     1       9.750   0.219  23.806  0.00  0.00    -0.489 OA
BRANCH  18  19
ATOM     19  C   UNL     1       9.545   1.552  24.037  0.00  0.00    +0.121 A 
ATOM     20  C   UNL     1      10.297   2.581  23.482  0.00  0.00    +0.046 A 
ATOM     21  C   UNL     1       9.978   3.916  23.755  0.00  0.00    +0.007 A 
ATOM     22  C   UNL     1       8.922   4.265  24.613  0.00  0.00    -0.044 A 
ATOM     23  C   UNL     1       8.195   3.208  25.186  0.00  0.00    +0.007 A 
ATOM     24  C   UNL     1       8.514   1.869  24.914  0.00  0.00    +0.046 A 
BRANCH  22  25
ATOM     25  C   UNL     1       8.532   5.733  24.825  0.00  0.00    +0.019 C 
ATOM     26  C   UNL     1       7.052   5.969  25.210  0.00  0.00    +0.008 C 
ATOM     27  C   UNL     1       6.103   5.694  24.039  0.00  0.00    +0.001 C 
ATOM     28  C   UNL     1       6.458   6.543  22.822  0.00  0.00    +0.000 C 
ATOM     29  C   UNL     1       7.932   6.429  22.443  0.00  0.00    +0.001 C 
ATOM     30  C   UNL     1       8.846   6.679  23.644  0.00  0.00    +0.008 C 
ENDBRANCH  22  25
ENDBRANCH  18  19
ENDBRANCH  17  18
ENDBRANCH   1  17
TORSDOF 8
ENDMDL
MODEL 6
REMARK VINA RESULT:      -7.1      1.995      2.788
REMARK  Name = 
REMARK  8 active torsions:
REMARK  status: ('A' for Active; 'I' for Inactive)
REMARK    1  A    between atoms: C_2  and  O_3
REMARK    2  A    between atoms: C_2  and  C_4
REMARK    3  A    between atoms: C_2  and  C_18
REMARK    4  A    between atoms: C_4  and  O_5
REMARK    5  A    between atoms: O_5  and  C_6
REMARK    6  A    between atoms: C_9  and  C_12
REMARK    7  A    between atoms: C_18  and  N_19
REMARK    8  A    between atoms: N_22  and  C_25
REMARK                            x       y       z     vdW  Elec       q    Type
REMARK                         _______ _______ _______ _____ _____    ______ ____
ROOT
ATOM      1  C   UNL     1       9.187  -0.921  22.730  0.00  0.00    +0.166 C 
ENDROOT
BRANCH   1   2
ATOM      2  O   UNL     1       9.922  -0.781  21.503  0.00  0.00    -0.387 OA
ATOM      3  H   UNL     1      10.274   0.130  21.510  0.00  0.00    +0.210 HD
ENDBRANCH   1   2
BRANCH   1   4
ATOM      4  C   UNL     1       8.572  -2.337  22.772  0.00  0.00    +0.119 C 
BRANCH   4   5
ATOM      5  N   UNL     1       8.255  -2.862  24.111  0.00  0.00    -0.297 NA
ATOM      6  C   UNL     1       8.384  -4.340  24.148  0.00  0.00    +0.103 C 
ATOM      7  C   UNL     1       7.248  -5.133  23.450  0.00  0.00    +0.122 C 
ATOM      8  N   UNL     1       5.949  -4.712  23.991  0.00  0.00    -0.313 N 
ATOM      9  C   UNL     1       5.720  -3.258  23.916  0.00  0.00    +0.122 C 
ATOM     10  C   UNL     1       6.895  -2.504  24.584  0.00  0.00    +0.103 C 
BRANCH   8  11
ATOM     11  C   UNL     1       4.824  -5.522  23.900  0.00  0.00    +0.121 A 
ATOM     12  N   UNL     1       3.829  -5.147  23.063  0.00  0.00    -0.240 NA
ATOM     13  C   UNL     1       2.675  -5.854  23.047  0.00  0.00    +0.113 A 
ATOM     14  C   UNL     1       2.437  -6.960  23.836  0.00  0.00    +0.020 A 
ATOM     15  C   UNL     1       3.452  -7.364  24.684  0.00  0.00    +0.005 A 
ATOM     16  C   UNL     1       4.647  -6.640  24.717  0.00  0.00    +0.043 A 
ENDBRANCH   8  11
ENDBRANCH   4   5
ENDBRANCH   1   4
BRANCH   1  17
ATOM     17  C   UNL     1      10.122  -0.648  23.914  0.00  0.00    +0.261 C 
BRANCH  17  18
ATOM     18  O   UNL     1       9.432   0.233  24.821  0.00  0.00    -0.489 OA
BRANCH  18  19
ATOM     19  C   UNL     1       9.501   1.561  24.496  0.00  0.00    +0.121 A 
ATOM     20  C   UNL     1       8.538   2.511  24.818  0.00  0.00    +0.046 A 
ATOM     21  C   UNL     1       8.725   3.853  24.470  0.00  0.00    +0.007 A 
ATOM     22  C   UNL     1       9.861   4.285  23.764  0.00  0.00    -0.044 A 
ATOM     23  C   UNL     1      10.807   3.302  23.424  0.00  0.00    +0.007 A 
ATOM     24  C   UNL     1      10.619   1.956  23.770  0.00  0.00    +0.046 A 
BRANCH  22  25
ATOM     25  C   UNL     1      10.090   5.773  23.475  0.00  0.00    +0.019 C 
ATOM     26  C   UNL     1      11.574   6.211  23.428  0.00  0.00    +0.008 C 
ATOM     27  C   UNL     1      12.223   6.192  24.815  0.00  0.00    +0.001 C 
ATOM     28  C   UNL     1      11.459   7.071  25.800  0.00  0.00    +0.000 C 
ATOM     29  C   UNL     1       9.966   6.754  25.828  0.00  0.00    +0.001 C 
ATOM     30  C   UNL     1       9.362   6.752  24.423  0.00  0.00    +0.008 C 
ENDBRANCH  22  25
ENDBRANCH  18  19
ENDBRANCH  17  18
ENDBRANCH   1  17
TORSDOF 8
ENDMDL
MODEL 7
REMARK VINA RESULT:      -7.1      3.014     10.400
REMARK  Name = 
REMARK  8 active torsions:
REMARK  status: ('A' for Active; 'I' for Inactive)
REMARK    1  A    between atoms: C_2  and  O_3
REMARK    2  A    between atoms: C_2  and  C_4
REMARK    3  A    between atoms: C_2  and  C_18
REMARK    4  A    between atoms: C_4  and  O_5
REMARK    5  A    between atoms: O_5  and  C_6
REMARK    6  A    between atoms: C_9  and  C_12
REMARK    7  A    between atoms: C_18  and  N_19
REMARK    8  A    between atoms: N_22  and  C_25
REMARK                            x       y       z     vdW  Elec       q    Type
REMARK                         _______ _______ _______ _____ _____    ______ ____
ROOT
ATOM      1  C   UNL     1       9.638  -1.648  23.241  0.00  0.00    +0.166 C 
ENDROOT
BRANCH   1   2
ATOM      2  O   UNL     1      10.559  -1.899  22.167  0.00  0.00    -0.387 OA
ATOM      3  H   UNL     1      11.101  -2.659  22.457  0.00  0.00    +0.210 HD
ENDBRANCH   1   2
BRANCH   1   4
ATOM      4  C   UNL     1       8.473  -0.794  22.696  0.00  0.00    +0.119 C 
BRANCH   4   5
ATOM      5  N   UNL     1       7.885   0.170  23.640  0.00  0.00    -0.297 NA
ATOM      6  C   UNL     1       7.439   1.400  22.938  0.00  0.00    +0.103 C 
ATOM      7  C   UNL     1       8.567   2.365  22.488  0.00  0.00    +0.122 C 
ATOM      8  N   UNL     1       9.413   2.704  23.639  0.00  0.00    -0.313 N 
ATOM      9  C   UNL     1       9.956   1.527  24.341  0.00  0.00    +0.122 C 
ATOM     10  C   UNL     1       8.804   0.570  24.733  0.00  0.00    +0.103 C 
BRANCH   8  11
ATOM     11  C   UNL     1      10.197   3.850  23.655  0.00  0.00    +0.121 A 
ATOM     12  N   UNL     1      11.495   3.747  23.287  0.00  0.00    -0.240 NA
ATOM     13  C   UNL     1      12.307   4.823  23.409  0.00  0.00    +0.113 A 
ATOM     14  C   UNL     1      11.896   6.049  23.887  0.00  0.00    +0.020 A 
ATOM     15  C   UNL     1      10.567   6.173  24.253  0.00  0.00    +0.005 A 
ATOM     16  C   UNL     1       9.718   5.070  24.139  0.00  0.00    +0.043 A 
ENDBRANCH   8  11
ENDBRANCH   4   5
ENDBRANCH   1   4
BRANCH   1  17
ATOM     17  C   UNL     1       9.167  -2.984  23.827  0.00  0.00    +0.261 C 
BRANCH  17  18
ATOM     18  O   UNL     1       8.468  -3.694  22.787  0.00  0.00    -0.489 OA
BRANCH  18  19
ATOM     19  C   UNL     1       7.423  -4.465  23.219  0.00  0.00    +0.121 A 
ATOM     20  C   UNL     1       7.140  -4.749  24.549  0.00  0.00    +0.046 A 
ATOM     21  C   UNL     1       6.021  -5.520  24.885  0.00  0.00    +0.007 A 
ATOM     22  C   UNL     1       5.168  -6.055  23.906  0.00  0.00    -0.044 A 
ATOM     23  C   UNL     1       5.491  -5.779  22.565  0.00  0.00    +0.007 A 
ATOM     24  C   UNL     1       6.613  -5.008  22.228  0.00  0.00    +0.046 A 
BRANCH  22  25
ATOM     25  C   UNL     1       3.897  -6.817  24.298  0.00  0.00    +0.019 C 
ATOM     26  C   UNL     1       2.715  -6.675  23.309  0.00  0.00    +0.008 C 
ATOM     27  C   UNL     1       2.105  -5.270  23.342  0.00  0.00    +0.001 C 
ATOM     28  C   UNL     1       1.645  -4.894  24.747  0.00  0.00    +0.000 C 
ATOM     29  C   UNL     1       2.740  -5.101  25.792  0.00  0.00    +0.001 C 
ATOM     30  C   UNL     1       3.345  -6.503  25.707  0.00  0.00    +0.008 C 
ENDBRANCH  22  25
ENDBRANCH  18  19
ENDBRANCH  17  18
ENDBRANCH   1  17
TORSDOF 8
ENDMDL
MODEL 8
REMARK VINA RESULT:      -7.1      2.934      9.860
REMARK  Name = 
REMARK  8 active torsions:
REMARK  status: ('A' for Active; 'I' for Inactive)
REMARK    1  A    between atoms: C_2  and  O_3
REMARK    2  A    between atoms: C_2  and  C_4
REMARK    3  A    between atoms: C_2  and  C_18
REMARK    4  A    between atoms: C_4  and  O_5
REMARK    5  A    between atoms: O_5  and  C_6
REMARK    6  A    between atoms: C_9  and  C_12
REMARK    7  A    between atoms: C_18  and  N_19
REMARK    8  A    between atoms: N_22  and  C_25
REMARK                            x       y       z     vdW  Elec       q    Type
REMARK                         _______ _______ _______ _____ _____    ______ ____
ROOT
ATOM      1  C   UNL     1       9.967  -0.868  22.781  0.00  0.00    +0.166 C 
ENDROOT
BRANCH   1   2
ATOM      2  O   UNL     1      10.125  -1.818  21.714  0.00  0.00    -0.387 OA
ATOM      3  H   UNL     1      10.606  -2.574  22.105  0.00  0.00    +0.210 HD
ENDBRANCH   1   2
BRANCH   1   4
ATOM      4  C   UNL     1       8.701  -0.028  22.503  0.00  0.00    +0.119 C 
BRANCH   4   5
ATOM      5  N   UNL     1       8.896   1.179  21.685  0.00  0.00    -0.297 NA
ATOM      6  C   UNL     1      10.188   1.837  22.003  0.00  0.00    +0.103 C 
ATOM      7  C   UNL     1      10.238   2.609  23.347  0.00  0.00    +0.122 C 
ATOM      8  N   UNL     1       9.137   3.579  23.399  0.00  0.00    -0.313 N 
ATOM      9  C   UNL     1       7.809   2.981  23.167  0.00  0.00    +0.122 C 
ATOM     10  C   UNL     1       7.816   2.184  21.839  0.00  0.00    +0.103 C 
BRANCH   8  11
ATOM     11  C   UNL     1       9.178   4.686  24.237  0.00  0.00    +0.121 A 
ATOM     12  N   UNL     1      10.177   5.584  24.067  0.00  0.00    -0.240 NA
ATOM     13  C   UNL     1      10.307   6.605  24.946  0.00  0.00    +0.113 A 
ATOM     14  C   UNL     1       9.472   6.805  26.024  0.00  0.00    +0.020 A 
ATOM     15  C   UNL     1       8.437   5.905  26.200  0.00  0.00    +0.005 A 
ATOM     16  C   UNL     1       8.293   4.842  25.305  0.00  0.00    +0.043 A 
ENDBRANCH   8  11
ENDBRANCH   4   5
ENDBRANCH   1   4
BRANCH   1  17
ATOM     17  C   UNL     1       9.900  -1.615  24.118  0.00  0.00    +0.261 C 
BRANCH  17  18
ATOM     18  O   UNL     1       9.998  -3.024  23.836  0.00  0.00    -0.489 OA
BRANCH  18  19
ATOM     19  C   UNL     1       9.032  -3.797  24.422  0.00  0.00    +0.121 A 
ATOM     20  C   UNL     1       9.203  -4.541  25.583  0.00  0.00    +0.046 A 
ATOM     21  C   UNL     1       8.136  -5.269  26.120  0.00  0.00    +0.007 A 
ATOM     22  C   UNL     1       6.875  -5.303  25.501  0.00  0.00    -0.044 A 
ATOM     23  C   UNL     1       6.733  -4.566  24.312  0.00  0.00    +0.007 A 
ATOM     24  C   UNL     1       7.803  -3.837  23.772  0.00  0.00    +0.046 A 
BRANCH  22  25
ATOM     25  C   UNL     1       5.695  -6.030  26.156  0.00  0.00    +0.019 C 
ATOM     26  C   UNL     1       4.296  -5.512  25.746  0.00  0.00    +0.008 C 
ATOM     27  C   UNL     1       4.003  -4.126  26.329  0.00  0.00    +0.001 C 
ATOM     28  C   UNL     1       4.126  -4.123  27.850  0.00  0.00    +0.000 C 
ATOM     29  C   UNL     1       5.451  -4.712  28.327  0.00  0.00    +0.001 C 
ATOM     30  C   UNL     1       5.722  -6.080  27.700  0.00  0.00    +0.008 C 
ENDBRANCH  22  25
ENDBRANCH  18  19
ENDBRANCH  17  18
ENDBRANCH   1  17
TORSDOF 8
ENDMDL
MODEL 9
REMARK VINA RESULT:      -7.0      3.220      6.042
REMARK  Name = 
REMARK  8 active torsions:
REMARK  status: ('A' for Active; 'I' for Inactive)
REMARK    1  A    between atoms: C_2  and  O_3
REMARK    2  A    between atoms: C_2  and  C_4
REMARK    3  A    between atoms: C_2  and  C_18
REMARK    4  A    between atoms: C_4  and  O_5
REMARK    5  A    between atoms: O_5  and  C_6
REMARK    6  A    between atoms: C_9  and  C_12
REMARK    7  A    between atoms: C_18  and  N_19
REMARK    8  A    between atoms: N_22  and  C_25
REMARK                            x       y       z     vdW  Elec       q    Type
REMARK                         _______ _______ _______ _____ _____    ______ ____
ROOT
ATOM      1  C   UNL     1       6.354  -5.105  25.854  0.00  0.00    +0.166 C 
ENDROOT
BRANCH   1   2
ATOM      2  O   UNL     1       6.063  -6.393  26.421  0.00  0.00    -0.387 OA
ATOM      3  H   UNL     1       6.909  -6.715  26.790  0.00  0.00    +0.210 HD
ENDBRANCH   1   2
BRANCH   1   4
ATOM      4  C   UNL     1       6.088  -5.170  24.334  0.00  0.00    +0.119 C 
BRANCH   4   5
ATOM      5  N   UNL     1       7.274  -5.354  23.480  0.00  0.00    -0.297 NA
ATOM      6  C   UNL     1       8.512  -4.949  24.193  0.00  0.00    +0.103 C 
ATOM      7  C   UNL     1       8.728  -3.421  24.351  0.00  0.00    +0.122 C 
ATOM      8  N   UNL     1       8.654  -2.775  23.034  0.00  0.00    -0.313 N 
ATOM      9  C   UNL     1       7.411  -3.072  22.299  0.00  0.00    +0.122 C 
ATOM     10  C   UNL     1       7.210  -4.604  22.202  0.00  0.00    +0.103 C 
BRANCH   8  11
ATOM     11  C   UNL     1       9.232  -1.534  22.797  0.00  0.00    +0.121 A 
ATOM     12  N   UNL     1      10.127  -1.059  23.694  0.00  0.00    -0.240 NA
ATOM     13  C   UNL     1      10.612   0.195  23.547  0.00  0.00    +0.113 A 
ATOM     14  C   UNL     1      10.256   1.043  22.519  0.00  0.00    +0.020 A 
ATOM     15  C   UNL     1       9.355   0.565  21.585  0.00  0.00    +0.005 A 
ATOM     16  C   UNL     1       8.840  -0.726  21.728  0.00  0.00    +0.043 A 
ENDBRANCH   8  11
ENDBRANCH   4   5
ENDBRANCH   1   4
BRANCH   1  17
ATOM     17  C   UNL     1       5.504  -4.039  26.557  0.00  0.00    +0.261 C 
BRANCH  17  18
ATOM     18  O   UNL     1       6.405  -3.077  27.137  0.00  0.00    -0.489 OA
BRANCH  18  19
ATOM     19  C   UNL     1       6.573  -1.932  26.406  0.00  0.00    +0.121 A 
ATOM     20  C   UNL     1       5.795  -1.562  25.315  0.00  0.00    +0.046 A 
ATOM     21  C   UNL     1       6.029  -0.349  24.659  0.00  0.00    +0.007 A 
ATOM     22  C   UNL     1       7.064   0.518  25.049  0.00  0.00    -0.044 A 
ATOM     23  C   UNL     1       7.857   0.109  26.136  0.00  0.00    +0.007 A 
ATOM     24  C   UNL     1       7.624  -1.108  26.794  0.00  0.00    +0.046 A 
BRANCH  22  25
ATOM     25  C   UNL     1       7.243   1.884  24.377  0.00  0.00    +0.019 C 
ATOM     26  C   UNL     1       8.019   2.930  25.213  0.00  0.00    +0.008 C 
ATOM     27  C   UNL     1       7.206   3.422  26.414  0.00  0.00    +0.001 C 
ATOM     28  C   UNL     1       5.866   4.006  25.979  0.00  0.00    +0.000 C 
ATOM     29  C   UNL     1       5.086   3.058  25.071  0.00  0.00    +0.001 C 
ATOM     30  C   UNL     1       5.940   2.565  23.902  0.00  0.00    +0.008 C 
ENDBRANCH  22  25
ENDBRANCH  18  19
ENDBRANCH  17  18
ENDBRANCH   1  17
TORSDOF 8
ENDMDL
