MODEL 1
REMARK VINA RESULT:      -8.6      0.000      0.000
REMARK  Name = 
REMARK  3 active torsions:
REMARK  status: ('A' for Active; 'I' for Inactive)
REMARK    1  A    between atoms: C_3  and  C_4
REMARK    2  A    between atoms: C_4  and  C_5
REMARK    3  A    between atoms: C_5  and  N_6
REMARK                            x       y       z     vdW  Elec       q    Type
REMARK                         _______ _______ _______ _____ _____    ______ ____
ROOT
ATOM      1  N   UNL     1       8.429  -1.962  23.726  0.00  0.00    -0.299 NA
ATOM      2  C   UNL     1       9.181  -1.215  22.690  0.00  0.00    +0.103 C 
ATOM      3  C   UNL     1      10.181  -0.086  23.121  0.00  0.00    +0.122 C 
ATOM      4  N   UNL     1       9.828   0.614  24.368  0.00  0.00    -0.312 N 
ATOM      5  C   UNL     1       9.238   1.865  24.351  0.00  0.00    +0.138 A 
ATOM      6  C   UNL     1       9.973   3.064  23.976  0.00  0.00    +0.031 A 
ATOM      7  C   UNL     1       9.229   4.204  24.308  0.00  0.00    +0.041 A 
ATOM      8  C   UNL     1       9.717   5.509  24.156  0.00  0.00    +0.017 A 
ATOM      9  C   UNL     1      10.995   5.676  23.625  0.00  0.00    +0.001 A 
ATOM     10  C   UNL     1      11.758   4.574  23.260  0.00  0.00    +0.001 A 
ATOM     11  S   UNL     1       7.710   3.694  24.913  0.00  0.00    +0.014 S 
ATOM     12  C   UNL     1      11.265   3.265  23.458  0.00  0.00    +0.012 A 
ATOM     13  N   UNL     1       8.018   2.085  24.837  0.00  0.00    -0.194 NA
ATOM     14  C   UNL     1       9.309  -0.302  25.388  0.00  0.00    +0.122 C 
ATOM     15  C   UNL     1       8.080  -1.039  24.826  0.00  0.00    +0.103 C 
ENDROOT
BRANCH   1  16
ATOM     16  C   UNL     1       9.061  -3.214  24.186  0.00  0.00    +0.089 C 
BRANCH  16  17
ATOM     17  C   UNL     1       8.179  -4.395  23.759  0.00  0.00    +0.052 C 
BRANCH  17  29
ATOM     18 CL   UNL     1       5.981  -5.757  21.939  0.00  0.00    -0.083 Cl
ATOM     19  C   UNL     1       5.886  -5.472  23.640  0.00  0.00    +0.046 A 
ATOM     20  C   UNL     1       5.058  -6.303  24.390  0.00  0.00    +0.043 A 
ATOM     21  C   UNL     1       5.128  -6.160  25.757  0.00  0.00    +0.038 A 
ATOM     22  C   UNL     1       5.761  -5.085  26.378  0.00  0.00    -0.017 A 
ATOM     23  C   UNL     1       5.696  -5.276  27.863  0.00  0.00    +0.133 C 
ATOM     24  C   UNL     1       5.456  -6.786  27.932  0.00  0.00    +0.222 C 
ATOM     25  O   UNL     1       5.730  -7.530  28.856  0.00  0.00    -0.275 OA
ATOM     26  C   UNL     1       6.585  -4.257  25.649  0.00  0.00    +0.011 A 
ATOM     27  N   UNL     1       4.909  -7.161  26.702  0.00  0.00    -0.285 N 
ATOM     28  H   UNL     1       4.777  -8.134  26.468  0.00  0.00    +0.155 HD
ATOM     29  C   UNL     1       6.767  -4.565  24.290  0.00  0.00    -0.027 A 
ENDBRANCH  17  29
ENDBRANCH  16  17
ENDBRANCH   1  16
TORSDOF 3
ENDMDL
MODEL 2
REMARK VINA RESULT:      -8.4      2.059      2.730
REMARK  Name = 
REMARK  3 active torsions:
REMARK  status: ('A' for Active; 'I' for Inactive)
REMARK    1  A    between atoms: C_3  and  C_4
REMARK    2  A    between atoms: C_4  and  C_5
REMARK    3  A    between atoms: C_5  and  N_6
REMARK                            x       y       z     vdW  Elec       q    Type
REMARK                         _______ _______ _______ _____ _____    ______ ____
ROOT
ATOM      1  N   UNL     1       6.227   0.574  23.915  0.00  0.00    -0.299 NA
ATOM      2  C   UNL     1       7.181   0.894  22.827  0.00  0.00    +0.103 C 
ATOM      3  C   UNL     1       8.637   1.354  23.183  0.00  0.00    +0.122 C 
ATOM      4  N   UNL     1       8.765   2.080  24.459  0.00  0.00    -0.312 N 
ATOM      5  C   UNL     1       8.880   3.457  24.496  0.00  0.00    +0.138 A 
ATOM      6  C   UNL     1      10.089   4.146  24.071  0.00  0.00    +0.031 A 
ATOM      7  C   UNL     1      10.038   5.489  24.469  0.00  0.00    +0.041 A 
ATOM      8  C   UNL     1      11.102   6.384  24.286  0.00  0.00    +0.017 A 
ATOM      9  C   UNL     1      12.254   5.916  23.654  0.00  0.00    +0.001 A 
ATOM     10  C   UNL     1      12.338   4.598  23.223  0.00  0.00    +0.001 A 
ATOM     11  S   UNL     1       8.512   5.776  25.190  0.00  0.00    +0.014 S 
ATOM     12  C   UNL     1      11.270   3.701  23.452  0.00  0.00    +0.012 A 
ATOM     13  N   UNL     1       7.969   4.233  25.080  0.00  0.00    -0.194 NA
ATOM     14  C   UNL     1       7.927   1.498  25.511  0.00  0.00    +0.122 C 
ATOM     15  C   UNL     1       6.460   1.497  25.045  0.00  0.00    +0.103 C 
ENDROOT
BRANCH   1  16
ATOM     16  C   UNL     1       6.177  -0.845  24.316  0.00  0.00    +0.089 C 
BRANCH  16  17
ATOM     17  C   UNL     1       6.789  -1.695  23.194  0.00  0.00    +0.052 C 
BRANCH  17  29
ATOM     18 CL   UNL     1       9.925  -2.036  22.966  0.00  0.00    -0.083 Cl
ATOM     19  C   UNL     1       8.817  -3.125  23.722  0.00  0.00    +0.046 A 
ATOM     20  C   UNL     1       9.307  -3.950  24.730  0.00  0.00    +0.043 A 
ATOM     21  C   UNL     1       8.372  -4.685  25.423  0.00  0.00    +0.038 A 
ATOM     22  C   UNL     1       7.054  -4.835  24.997  0.00  0.00    -0.017 A 
ATOM     23  C   UNL     1       6.306  -5.647  26.012  0.00  0.00    +0.133 C 
ATOM     24  C   UNL     1       7.200  -5.442  27.236  0.00  0.00    +0.222 C 
ATOM     25  O   UNL     1       6.872  -5.522  28.405  0.00  0.00    -0.275 OA
ATOM     26  C   UNL     1       6.555  -4.024  24.002  0.00  0.00    +0.011 A 
ATOM     27  N   UNL     1       8.464  -5.090  26.754  0.00  0.00    -0.285 N 
ATOM     28  H   UNL     1       9.194  -4.788  27.382  0.00  0.00    +0.155 HD
ATOM     29  C   UNL     1       7.418  -3.047  23.476  0.00  0.00    -0.027 A 
ENDBRANCH  17  29
ENDBRANCH  16  17
ENDBRANCH   1  16
TORSDOF 3
ENDMDL
MODEL 3
REMARK VINA RESULT:      -8.3      4.314      9.959
REMARK  Name = 
REMARK  3 active torsions:
REMARK  status: ('A' for Active; 'I' for Inactive)
REMARK    1  A    between atoms: C_3  and  C_4
REMARK    2  A    between atoms: C_4  and  C_5
REMARK    3  A    between atoms: C_5  and  N_6
REMARK                            x       y       z     vdW  Elec       q    Type
REMARK                         _______ _______ _______ _____ _____    ______ ____
ROOT
ATOM      1  N   UNL     1       8.859  -0.310  22.961  0.00  0.00    -0.299 NA
ATOM      2  C   UNL     1       7.753  -0.416  23.941  0.00  0.00    +0.103 C 
ATOM      3  C   UNL     1       7.592  -1.725  24.790  0.00  0.00    +0.122 C 
ATOM      4  N   UNL     1       8.059  -2.956  24.129  0.00  0.00    -0.312 N 
ATOM      5  C   UNL     1       7.172  -3.845  23.551  0.00  0.00    +0.138 A 
ATOM      6  C   UNL     1       6.298  -4.695  24.344  0.00  0.00    +0.031 A 
ATOM      7  C   UNL     1       5.717  -5.676  23.530  0.00  0.00    +0.041 A 
ATOM      8  C   UNL     1       4.901  -6.702  24.028  0.00  0.00    +0.017 A 
ATOM      9  C   UNL     1       4.637  -6.727  25.396  0.00  0.00    +0.001 A 
ATOM     10  C   UNL     1       5.174  -5.759  26.237  0.00  0.00    +0.001 A 
ATOM     11  S   UNL     1       6.199  -5.383  21.913  0.00  0.00    +0.014 S 
ATOM     12  C   UNL     1       6.026  -4.757  25.723  0.00  0.00    +0.012 A 
ATOM     13  N   UNL     1       7.177  -4.110  22.246  0.00  0.00    -0.194 NA
ATOM     14  C   UNL     1       9.301  -2.743  23.380  0.00  0.00    +0.122 C 
ATOM     15  C   UNL     1       9.078  -1.632  22.338  0.00  0.00    +0.103 C 
ENDROOT
BRANCH   1  16
ATOM     16  C   UNL     1      10.096   0.314  23.468  0.00  0.00    +0.089 C 
BRANCH  16  17
ATOM     17  C   UNL     1       9.721   1.562  24.279  0.00  0.00    +0.052 C 
BRANCH  17  29
ATOM     18 CL   UNL     1       7.016   3.187  24.075  0.00  0.00    -0.083 Cl
ATOM     19  C   UNL     1       8.615   3.808  23.874  0.00  0.00    +0.046 A 
ATOM     20  C   UNL     1       8.821   5.160  24.133  0.00  0.00    +0.043 A 
ATOM     21  C   UNL     1      10.129   5.590  24.124  0.00  0.00    +0.038 A 
ATOM     22  C   UNL     1      11.178   4.822  23.624  0.00  0.00    -0.017 A 
ATOM     23  C   UNL     1      12.463   5.570  23.822  0.00  0.00    +0.133 C 
ATOM     24  C   UNL     1      12.049   6.532  24.937  0.00  0.00    +0.222 C 
ATOM     25  O   UNL     1      12.777   7.066  25.752  0.00  0.00    -0.275 OA
ATOM     26  C   UNL     1      10.989   3.482  23.366  0.00  0.00    +0.011 A 
ATOM     27  N   UNL     1      10.656   6.638  24.876  0.00  0.00    -0.285 N 
ATOM     28  H   UNL     1      10.142   7.128  25.594  0.00  0.00    +0.155 HD
ATOM     29  C   UNL     1       9.723   2.945  23.653  0.00  0.00    -0.027 A 
ENDBRANCH  17  29
ENDBRANCH  16  17
ENDBRANCH   1  16
TORSDOF 3
ENDMDL
MODEL 4
REMARK VINA RESULT:      -8.2      2.535      3.131
REMARK  Name = 
REMARK  3 active torsions:
REMARK  status: ('A' for Active; 'I' for Inactive)
REMARK    1  A    between atoms: C_3  and  C_4
REMARK    2  A    between atoms: C_4  and  C_5
REMARK    3  A    between atoms: C_5  and  N_6
REMARK                            x       y       z     vdW  Elec       q    Type
REMARK                         _______ _______ _______ _____ _____    ______ ____
ROOT
ATOM      1  N   UNL     1       9.107  -1.608  23.479  0.00  0.00    -0.299 NA
ATOM      2  C   UNL     1       9.952  -0.721  22.647  0.00  0.00    +0.103 C 
ATOM      3  C   UNL     1      10.568   0.578  23.275  0.00  0.00    +0.122 C 
ATOM      4  N   UNL     1       9.768   1.186  24.352  0.00  0.00    -0.312 N 
ATOM      5  C   UNL     1       8.979   2.298  24.124  0.00  0.00    +0.138 A 
ATOM      6  C   UNL     1       9.545   3.620  23.904  0.00  0.00    +0.031 A 
ATOM      7  C   UNL     1       8.538   4.590  23.977  0.00  0.00    +0.041 A 
ATOM      8  C   UNL     1       8.791   5.967  23.900  0.00  0.00    +0.017 A 
ATOM      9  C   UNL     1      10.109   6.384  23.717  0.00  0.00    +0.001 A 
ATOM     10  C   UNL     1      11.137   5.454  23.616  0.00  0.00    +0.001 A 
ATOM     11  S   UNL     1       7.038   3.790  24.182  0.00  0.00    +0.014 S 
ATOM     12  C   UNL     1      10.866   4.073  23.735  0.00  0.00    +0.012 A 
ATOM     13  N   UNL     1       7.654   2.273  24.261  0.00  0.00    -0.194 NA
ATOM     14  C   UNL     1       9.180   0.178  25.239  0.00  0.00    +0.122 C 
ATOM     15  C   UNL     1       8.308  -0.780  24.406  0.00  0.00    +0.103 C 
ENDROOT
BRANCH   1  16
ATOM     16  C   UNL     1       9.818  -2.717  24.146  0.00  0.00    +0.089 C 
BRANCH  16  17
ATOM     17  C   UNL     1       8.940  -3.249  25.287  0.00  0.00    +0.052 C 
BRANCH  17  29
ATOM     18 CL   UNL     1       6.163  -3.177  26.800  0.00  0.00    -0.083 Cl
ATOM     19  C   UNL     1       6.581  -4.166  25.445  0.00  0.00    +0.046 A 
ATOM     20  C   UNL     1       5.548  -4.600  24.620  0.00  0.00    +0.043 A 
ATOM     21  C   UNL     1       5.924  -5.246  23.463  0.00  0.00    +0.038 A 
ATOM     22  C   UNL     1       7.221  -5.698  23.231  0.00  0.00    -0.017 A 
ATOM     23  C   UNL     1       7.287  -6.299  21.860  0.00  0.00    +0.133 C 
ATOM     24  C   UNL     1       6.068  -5.637  21.214  0.00  0.00    +0.222 C 
ATOM     25  O   UNL     1       5.884  -5.439  20.028  0.00  0.00    -0.275 OA
ATOM     26  C   UNL     1       8.253  -5.273  24.039  0.00  0.00    +0.011 A 
ATOM     27  N   UNL     1       5.223  -5.251  22.258  0.00  0.00    -0.285 N 
ATOM     28  H   UNL     1       4.406  -4.684  22.082  0.00  0.00    +0.155 HD
ATOM     29  C   UNL     1       7.936  -4.364  25.062  0.00  0.00    -0.027 A 
ENDBRANCH  17  29
ENDBRANCH  16  17
ENDBRANCH   1  16
TORSDOF 3
ENDMDL
MODEL 5
REMARK VINA RESULT:      -8.2      2.151      2.736
REMARK  Name = 
REMARK  3 active torsions:
REMARK  status: ('A' for Active; 'I' for Inactive)
REMARK    1  A    between atoms: C_3  and  C_4
REMARK    2  A    between atoms: C_4  and  C_5
REMARK    3  A    between atoms: C_5  and  N_6
REMARK                            x       y       z     vdW  Elec       q    Type
REMARK                         _______ _______ _______ _____ _____    ______ ____
ROOT
ATOM      1  N   UNL     1       8.378  -0.778  22.515  0.00  0.00    -0.299 NA
ATOM      2  C   UNL     1       9.110   0.195  21.671  0.00  0.00    +0.103 C 
ATOM      3  C   UNL     1      10.177   1.140  22.324  0.00  0.00    +0.122 C 
ATOM      4  N   UNL     1       9.916   1.493  23.730  0.00  0.00    -0.312 N 
ATOM      5  C   UNL     1       9.382   2.720  24.078  0.00  0.00    +0.138 A 
ATOM      6  C   UNL     1      10.148   3.953  23.991  0.00  0.00    +0.031 A 
ATOM      7  C   UNL     1       9.471   4.985  24.655  0.00  0.00    +0.041 A 
ATOM      8  C   UNL     1      10.007   6.270  24.824  0.00  0.00    +0.017 A 
ATOM      9  C   UNL     1      11.263   6.535  24.281  0.00  0.00    +0.001 A 
ATOM     10  C   UNL     1      11.960   5.547  23.595  0.00  0.00    +0.001 A 
ATOM     11  S   UNL     1       7.964   4.377  25.191  0.00  0.00    +0.014 S 
ATOM     12  C   UNL     1      11.420   4.248  23.469  0.00  0.00    +0.012 A 
ATOM     13  N   UNL     1       8.197   2.838  24.676  0.00  0.00    -0.194 NA
ATOM     14  C   UNL     1       9.409   0.354  24.501  0.00  0.00    +0.122 C 
ATOM     15  C   UNL     1       8.123  -0.171  23.838  0.00  0.00    +0.103 C 
ENDROOT
BRANCH   1  16
ATOM     16  C   UNL     1       8.976  -2.125  22.591  0.00  0.00    +0.089 C 
BRANCH  16  17
ATOM     17  C   UNL     1       8.611  -2.749  23.946  0.00  0.00    +0.052 C 
BRANCH  17  29
ATOM     18 CL   UNL     1       8.735  -4.244  26.729  0.00  0.00    -0.083 Cl
ATOM     19  C   UNL     1       7.831  -4.721  25.336  0.00  0.00    +0.046 A 
ATOM     20  C   UNL     1       6.696  -5.502  25.537  0.00  0.00    +0.043 A 
ATOM     21  C   UNL     1       5.909  -5.728  24.431  0.00  0.00    +0.038 A 
ATOM     22  C   UNL     1       6.325  -5.449  23.131  0.00  0.00    -0.017 A 
ATOM     23  C   UNL     1       5.205  -5.763  22.185  0.00  0.00    +0.133 C 
ATOM     24  C   UNL     1       4.016  -5.714  23.146  0.00  0.00    +0.222 C 
ATOM     25  O   UNL     1       2.855  -5.485  22.864  0.00  0.00    -0.275 OA
ATOM     26  C   UNL     1       7.445  -4.675  22.917  0.00  0.00    +0.011 A 
ATOM     27  N   UNL     1       4.529  -5.928  24.429  0.00  0.00    -0.285 N 
ATOM     28  H   UNL     1       3.946  -5.820  25.246  0.00  0.00    +0.155 HD
ATOM     29  C   UNL     1       8.107  -4.176  24.052  0.00  0.00    -0.027 A 
ENDBRANCH  17  29
ENDBRANCH  16  17
ENDBRANCH   1  16
TORSDOF 3
ENDMDL
MODEL 6
REMARK VINA RESULT:      -8.1      2.688      3.702
REMARK  Name = 
REMARK  3 active torsions:
REMARK  status: ('A' for Active; 'I' for Inactive)
REMARK    1  A    between atoms: C_3  and  C_4
REMARK    2  A    between atoms: C_4  and  C_5
REMARK    3  A    between atoms: C_5  and  N_6
REMARK                            x       y       z     vdW  Elec       q    Type
REMARK                         _______ _______ _______ _____ _____    ______ ____
ROOT
ATOM      1  N   UNL     1       9.861  -0.838  24.526  0.00  0.00    -0.299 NA
ATOM      2  C   UNL     1       9.145   0.030  25.489  0.00  0.00    +0.103 C 
ATOM      3  C   UNL     1       8.378   1.296  24.971  0.00  0.00    +0.122 C 
ATOM      4  N   UNL     1       8.948   1.917  23.763  0.00  0.00    -0.312 N 
ATOM      5  C   UNL     1       9.723   3.059  23.837  0.00  0.00    +0.138 A 
ATOM      6  C   UNL     1       9.155   4.363  24.144  0.00  0.00    +0.031 A 
ATOM      7  C   UNL     1      10.096   5.368  23.884  0.00  0.00    +0.041 A 
ATOM      8  C   UNL     1       9.807   6.736  23.993  0.00  0.00    +0.017 A 
ATOM      9  C   UNL     1       8.529   7.108  24.406  0.00  0.00    +0.001 A 
ATOM     10  C   UNL     1       7.572   6.143  24.697  0.00  0.00    +0.001 A 
ATOM     11  S   UNL     1      11.564   4.619  23.419  0.00  0.00    +0.014 S 
ATOM     12  C   UNL     1       7.869   4.771  24.543  0.00  0.00    +0.012 A 
ATOM     13  N   UNL     1      11.001   3.080  23.464  0.00  0.00    -0.194 NA
ATOM     14  C   UNL     1       9.406   0.918  22.793  0.00  0.00    +0.122 C 
ATOM     15  C   UNL     1      10.449   0.004  23.464  0.00  0.00    +0.103 C 
ENDROOT
BRANCH   1  16
ATOM     16  C   UNL     1       9.085  -1.982  24.007  0.00  0.00    +0.089 C 
BRANCH  16  17
ATOM     17  C   UNL     1       8.497  -2.757  25.194  0.00  0.00    +0.052 C 
BRANCH  17  29
ATOM     18 CL   UNL     1       5.925  -3.465  26.893  0.00  0.00    -0.083 Cl
ATOM     19  C   UNL     1       6.499  -4.290  25.488  0.00  0.00    +0.046 A 
ATOM     20  C   UNL     1       5.568  -4.987  24.722  0.00  0.00    +0.043 A 
ATOM     21  C   UNL     1       6.021  -5.495  23.526  0.00  0.00    +0.038 A 
ATOM     22  C   UNL     1       7.372  -5.570  23.194  0.00  0.00    -0.017 A 
ATOM     23  C   UNL     1       7.501  -6.119  21.805  0.00  0.00    +0.133 C 
ATOM     24  C   UNL     1       6.104  -5.815  21.262  0.00  0.00    +0.222 C 
ATOM     25  O   UNL     1       5.787  -5.666  20.097  0.00  0.00    -0.275 OA
ATOM     26  C   UNL     1       8.304  -4.883  23.941  0.00  0.00    +0.011 A 
ATOM     27  N   UNL     1       5.263  -5.685  22.371  0.00  0.00    -0.285 N 
ATOM     28  H   UNL     1       4.312  -5.364  22.267  0.00  0.00    +0.155 HD
ATOM     29  C   UNL     1       7.824  -4.104  25.008  0.00  0.00    -0.027 A 
ENDBRANCH  17  29
ENDBRANCH  16  17
ENDBRANCH   1  16
TORSDOF 3
ENDMDL
MODEL 7
REMARK VINA RESULT:      -8.1      4.202      9.833
REMARK  Name = 
REMARK  3 active torsions:
REMARK  status: ('A' for Active; 'I' for Inactive)
REMARK    1  A    between atoms: C_3  and  C_4
REMARK    2  A    between atoms: C_4  and  C_5
REMARK    3  A    between atoms: C_5  and  N_6
REMARK                            x       y       z     vdW  Elec       q    Type
REMARK                         _______ _______ _______ _____ _____    ______ ____
ROOT
ATOM      1  N   UNL     1      10.094  -0.701  24.105  0.00  0.00    -0.299 NA
ATOM      2  C   UNL     1       9.976  -1.943  23.306  0.00  0.00    +0.103 C 
ATOM      3  C   UNL     1       8.557  -2.543  23.010  0.00  0.00    +0.122 C 
ATOM      4  N   UNL     1       7.543  -2.281  24.047  0.00  0.00    -0.312 N 
ATOM      5  C   UNL     1       7.186  -3.249  24.967  0.00  0.00    +0.138 A 
ATOM      6  C   UNL     1       6.398  -4.416  24.600  0.00  0.00    +0.031 A 
ATOM      7  C   UNL     1       5.952  -5.074  25.753  0.00  0.00    +0.041 A 
ATOM      8  C   UNL     1       5.089  -6.179  25.721  0.00  0.00    +0.017 A 
ATOM      9  C   UNL     1       4.679  -6.657  24.478  0.00  0.00    +0.001 A 
ATOM     10  C   UNL     1       5.115  -6.048  23.307  0.00  0.00    +0.001 A 
ATOM     11  S   UNL     1       6.627  -4.284  27.114  0.00  0.00    +0.014 S 
ATOM     12  C   UNL     1       5.953  -4.912  23.361  0.00  0.00    +0.012 A 
ATOM     13  N   UNL     1       7.387  -3.098  26.275  0.00  0.00    -0.194 NA
ATOM     14  C   UNL     1       7.641  -0.921  24.583  0.00  0.00    +0.122 C 
ATOM     15  C   UNL     1       9.054  -0.704  25.155  0.00  0.00    +0.103 C 
ENDROOT
BRANCH   1  16
ATOM     16  C   UNL     1      10.138   0.551  23.326  0.00  0.00    +0.089 C 
BRANCH  16  17
ATOM     17  C   UNL     1       9.750   1.717  24.245  0.00  0.00    +0.052 C 
BRANCH  17  29
ATOM     18 CL   UNL     1       7.030   3.327  24.342  0.00  0.00    -0.083 Cl
ATOM     19  C   UNL     1       8.611   3.978  24.098  0.00  0.00    +0.046 A 
ATOM     20  C   UNL     1       8.826   5.306  24.457  0.00  0.00    +0.043 A 
ATOM     21  C   UNL     1      10.129   5.748  24.406  0.00  0.00    +0.038 A 
ATOM     22  C   UNL     1      11.150   5.035  23.780  0.00  0.00    -0.017 A 
ATOM     23  C   UNL     1      12.441   5.775  23.962  0.00  0.00    +0.133 C 
ATOM     24  C   UNL     1      12.090   6.636  25.177  0.00  0.00    +0.222 C 
ATOM     25  O   UNL     1      12.865   7.107  25.989  0.00  0.00    -0.275 OA
ATOM     26  C   UNL     1      10.952   3.719  23.422  0.00  0.00    +0.011 A 
ATOM     27  N   UNL     1      10.697   6.734  25.210  0.00  0.00    -0.285 N 
ATOM     28  H   UNL     1      10.224   7.158  25.995  0.00  0.00    +0.155 HD
ATOM     29  C   UNL     1       9.708   3.147  23.739  0.00  0.00    -0.027 A 
ENDBRANCH  17  29
ENDBRANCH  16  17
ENDBRANCH   1  16
TORSDOF 3
ENDMDL
MODEL 8
REMARK VINA RESULT:      -8.0      3.838      8.847
REMARK  Name = 
REMARK  3 active torsions:
REMARK  status: ('A' for Active; 'I' for Inactive)
REMARK    1  A    between atoms: C_3  and  C_4
REMARK    2  A    between atoms: C_4  and  C_5
REMARK    3  A    between atoms: C_5  and  N_6
REMARK                            x       y       z     vdW  Elec       q    Type
REMARK                         _______ _______ _______ _____ _____    ______ ____
ROOT
ATOM      1  N   UNL     1       9.582  -0.803  25.563  0.00  0.00    -0.299 NA
ATOM      2  C   UNL     1       9.400  -1.684  24.386  0.00  0.00    +0.103 C 
ATOM      3  C   UNL     1       7.969  -2.215  24.029  0.00  0.00    +0.122 C 
ATOM      4  N   UNL     1       7.067  -2.394  25.181  0.00  0.00    -0.312 N 
ATOM      5  C   UNL     1       6.827  -3.643  25.721  0.00  0.00    +0.138 A 
ATOM      6  C   UNL     1       6.023  -4.644  25.035  0.00  0.00    +0.031 A 
ATOM      7  C   UNL     1       5.714  -5.693  25.912  0.00  0.00    +0.041 A 
ATOM      8  C   UNL     1       4.872  -6.759  25.566  0.00  0.00    +0.017 A 
ATOM      9  C   UNL     1       4.339  -6.785  24.278  0.00  0.00    +0.001 A 
ATOM     10  C   UNL     1       4.638  -5.777  23.369  0.00  0.00    +0.001 A 
ATOM     11  S   UNL     1       6.517  -5.402  27.396  0.00  0.00    +0.014 S 
ATOM     12  C   UNL     1       5.457  -4.691  23.749  0.00  0.00    +0.012 A 
ATOM     13  N   UNL     1       7.163  -3.957  26.971  0.00  0.00    -0.194 NA
ATOM     14  C   UNL     1       7.198  -1.310  26.158  0.00  0.00    +0.122 C 
ATOM     15  C   UNL     1       8.661  -1.235  26.635  0.00  0.00    +0.103 C 
ENDROOT
BRANCH   1  16
ATOM     16  C   UNL     1       9.522   0.645  25.285  0.00  0.00    +0.089 C 
BRANCH  16  17
ATOM     17  C   UNL     1      10.289   0.928  23.985  0.00  0.00    +0.052 C 
BRANCH  17  29
ATOM     18 CL   UNL     1       9.446  -0.214  21.160  0.00  0.00    -0.083 Cl
ATOM     19  C   UNL     1       9.042   1.333  21.815  0.00  0.00    +0.046 A 
ATOM     20  C   UNL     1       7.885   1.950  21.349  0.00  0.00    +0.043 A 
ATOM     21  C   UNL     1       7.502   3.100  22.003  0.00  0.00    +0.038 A 
ATOM     22  C   UNL     1       8.332   3.783  22.889  0.00  0.00    -0.017 A 
ATOM     23  C   UNL     1       7.580   4.949  23.456  0.00  0.00    +0.133 C 
ATOM     24  C   UNL     1       6.142   4.496  23.200  0.00  0.00    +0.222 C 
ATOM     25  O   UNL     1       5.145   4.841  23.807  0.00  0.00    -0.275 OA
ATOM     26  C   UNL     1       9.479   3.182  23.360  0.00  0.00    +0.011 A 
ATOM     27  N   UNL     1       6.196   3.560  22.163  0.00  0.00    -0.285 N 
ATOM     28  H   UNL     1       5.379   3.030  21.898  0.00  0.00    +0.155 HD
ATOM     29  C   UNL     1       9.741   1.871  22.930  0.00  0.00    -0.027 A 
ENDBRANCH  17  29
ENDBRANCH  16  17
ENDBRANCH   1  16
TORSDOF 3
ENDMDL
MODEL 9
REMARK VINA RESULT:      -7.8      3.665      9.041
REMARK  Name = 
REMARK  3 active torsions:
REMARK  status: ('A' for Active; 'I' for Inactive)
REMARK    1  A    between atoms: C_3  and  C_4
REMARK    2  A    between atoms: C_4  and  C_5
REMARK    3  A    between atoms: C_5  and  N_6
REMARK                            x       y       z     vdW  Elec       q    Type
REMARK                         _______ _______ _______ _____ _____    ______ ____
ROOT
ATOM      1  N   UNL     1       8.675  -0.681  24.419  0.00  0.00    -0.299 NA
ATOM      2  C   UNL     1       7.572  -0.889  25.386  0.00  0.00    +0.103 C 
ATOM      3  C   UNL     1       7.352  -2.306  26.020  0.00  0.00    +0.122 C 
ATOM      4  N   UNL     1       7.753  -3.438  25.166  0.00  0.00    -0.312 N 
ATOM      5  C   UNL     1       6.820  -4.180  24.468  0.00  0.00    +0.138 A 
ATOM      6  C   UNL     1       5.909  -5.102  25.129  0.00  0.00    +0.031 A 
ATOM      7  C   UNL     1       5.276  -5.913  24.178  0.00  0.00    +0.041 A 
ATOM      8  C   UNL     1       4.413  -6.965  24.519  0.00  0.00    +0.017 A 
ATOM      9  C   UNL     1       4.157  -7.194  25.870  0.00  0.00    +0.001 A 
ATOM     10  C   UNL     1       4.746  -6.398  26.846  0.00  0.00    +0.001 A 
ATOM     11  S   UNL     1       5.761  -5.391  22.622  0.00  0.00    +0.014 S 
ATOM     12  C   UNL     1       5.643  -5.369  26.484  0.00  0.00    +0.012 A 
ATOM     13  N   UNL     1       6.803  -4.235  23.137  0.00  0.00    -0.194 NA
ATOM     14  C   UNL     1       9.000  -3.169  24.443  0.00  0.00    +0.122 C 
ATOM     15  C   UNL     1       8.825  -1.897  23.593  0.00  0.00    +0.103 C 
ENDROOT
BRANCH   1  16
ATOM     16  C   UNL     1       9.946  -0.206  25.002  0.00  0.00    +0.089 C 
BRANCH  16  17
ATOM     17  C   UNL     1      10.758   0.494  23.904  0.00  0.00    +0.052 C 
BRANCH  17  29
ATOM     18 CL   UNL     1       9.382   0.220  21.070  0.00  0.00    -0.083 Cl
ATOM     19  C   UNL     1       9.323   1.589  22.123  0.00  0.00    +0.046 A 
ATOM     20  C   UNL     1       8.231   2.445  22.010  0.00  0.00    +0.043 A 
ATOM     21  C   UNL     1       8.128   3.430  22.967  0.00  0.00    +0.038 A 
ATOM     22  C   UNL     1       9.166   3.756  23.837  0.00  0.00    -0.017 A 
ATOM     23  C   UNL     1       8.693   4.826  24.776  0.00  0.00    +0.133 C 
ATOM     24  C   UNL     1       7.179   4.636  24.663  0.00  0.00    +0.222 C 
ATOM     25  O   UNL     1       6.339   4.939  25.490  0.00  0.00    -0.275 OA
ATOM     26  C   UNL     1      10.252   2.917  23.961  0.00  0.00    +0.011 A 
ATOM     27  N   UNL     1       6.946   3.995  23.443  0.00  0.00    -0.285 N 
ATOM     28  H   UNL     1       6.026   3.656  23.202  0.00  0.00    +0.155 HD
ATOM     29  C   UNL     1      10.239   1.735  23.201  0.00  0.00    -0.027 A 
ENDBRANCH  17  29
ENDBRANCH  16  17
ENDBRANCH   1  16
TORSDOF 3
ENDMDL
