MODEL 1
REMARK VINA RESULT:      -6.8      0.000      0.000
REMARK  Name = 
REMARK  10 active torsions:
REMARK  status: ('A' for Active; 'I' for Inactive)
REMARK    1  A    between atoms: CA_2  and  CB_3
REMARK    2  A    between atoms: CA_2  and  N_4
REMARK    3  A    between atoms: CA_2  and  C_21
REMARK    4  A    between atoms: C_5  and  C_7
REMARK    5  A    between atoms: C_7  and  C_9
REMARK    6  A    between atoms: C_7  and  C_14
REMARK    7  A    between atoms: C_9  and  C_10
REMARK    8  A    between atoms: N_12  and  O_13
REMARK    9  A    between atoms: C_14  and  C_15
REMARK   10  A    between atoms: C_21  and  O_22
REMARK                            x       y       z     vdW  Elec       q    Type
REMARK                         _______ _______ _______ _____ _____    ______ ____
ROOT
ATOM      1  C   UNK A   0       9.068  -2.845  24.196  0.00  0.00    +0.088 C 
ENDROOT
BRANCH   1   4
ATOM      2  N   ALA A   1       7.465  -4.258  22.977  0.00  0.00    -0.302 N 
ATOM      3  H   ALA A   1       8.102  -5.032  23.150  0.00  0.00    +0.150 HD
ATOM      4  C   UNK A   0       7.748  -3.009  23.447  0.00  0.00    +0.218 C 
ATOM      5  O   UNK A   0       6.935  -2.089  23.388  0.00  0.00    -0.275 OA
BRANCH   2   6
ATOM      6  CA  ALA A   1       6.308  -4.595  22.154  0.00  0.00    +0.178 C 
ATOM      7  CB  ALA A   1       6.604  -5.732  21.180  0.00  0.00    +0.040 C 
BRANCH   6   8
ATOM      8  C   ALA A   1       5.199  -5.015  23.133  0.00  0.00    +0.325 C 
ATOM      9  OXT ALA A   1       4.003  -4.885  22.889  0.00  0.00    -0.249 OA
BRANCH   8  10
ATOM     10  O   ALA A   1       5.645  -5.548  24.291  0.00  0.00    -0.479 OA
ATOM     11  H   ALA A   1       5.499  -4.997  25.080  0.00  0.00    +0.295 HD
ENDBRANCH   8  10
ENDBRANCH   6   8
ENDBRANCH   2   6
ENDBRANCH   1   4
BRANCH   1  12
ATOM     12  C   UNK A   0      10.228  -2.251  23.367  0.00  0.00    +0.048 C 
BRANCH  12  13
ATOM     13  C   UNK A   0      10.170  -0.743  23.245  0.00  0.00    -0.047 A 
ATOM     14  C   UNK A   0      10.470   0.076  24.343  0.00  0.00    +0.003 A 
ATOM     15  C   UNK A   0      10.462   1.467  24.218  0.00  0.00    +0.000 A 
ATOM     16  C   UNK A   0      10.137   2.054  22.998  0.00  0.00    +0.000 A 
ATOM     17  C   UNK A   0       9.815   1.252  21.905  0.00  0.00    +0.000 A 
ATOM     18  C   UNK A   0       9.831  -0.138  22.027  0.00  0.00    +0.003 A 
ENDBRANCH  12  13
ENDBRANCH   1  12
BRANCH   1  19
ATOM     19  C   UNK A   0       9.438  -4.168  24.875  0.00  0.00    +0.111 C 
BRANCH  19  20
ATOM     20  C   UNK A   0       8.712  -4.399  26.180  0.00  0.00    +0.236 C 
ATOM     21  N   UNK A   0       8.289  -5.687  26.385  0.00  0.00    -0.197 N 
ATOM     22  H   UNK A   0       8.651  -6.488  25.873  0.00  0.00    +0.182 HD
ATOM     23  O   UNK A   0       8.531  -3.508  27.006  0.00  0.00    -0.274 OA
BRANCH  21  24
ATOM     24  O   UNK A   0       7.696  -5.951  27.640  0.00  0.00    -0.295 OA
ATOM     25  H   UNK A   0       8.211  -5.374  28.246  0.00  0.00    +0.241 HD
ENDBRANCH  21  24
ENDBRANCH  19  20
ENDBRANCH   1  19
TORSDOF 9
ENDMDL
MODEL 2
REMARK VINA RESULT:      -6.4      1.441      2.010
REMARK  Name = 
REMARK  10 active torsions:
REMARK  status: ('A' for Active; 'I' for Inactive)
REMARK    1  A    between atoms: CA_2  and  CB_3
REMARK    2  A    between atoms: CA_2  and  N_4
REMARK    3  A    between atoms: CA_2  and  C_21
REMARK    4  A    between atoms: C_5  and  C_7
REMARK    5  A    between atoms: C_7  and  C_9
REMARK    6  A    between atoms: C_7  and  C_14
REMARK    7  A    between atoms: C_9  and  C_10
REMARK    8  A    between atoms: N_12  and  O_13
REMARK    9  A    between atoms: C_14  and  C_15
REMARK   10  A    between atoms: C_21  and  O_22
REMARK                            x       y       z     vdW  Elec       q    Type
REMARK                         _______ _______ _______ _____ _____    ______ ____
ROOT
ATOM      1  C   UNK A   0       8.654  -2.940  24.491  0.00  0.00    +0.088 C 
ENDROOT
BRANCH   1   4
ATOM      2  N   ALA A   1       6.662  -4.134  23.678  0.00  0.00    -0.302 N 
ATOM      3  H   ALA A   1       6.175  -3.243  23.732  0.00  0.00    +0.150 HD
ATOM      4  C   UNK A   0       7.983  -4.224  24.009  0.00  0.00    +0.218 C 
ATOM      5  O   UNK A   0       8.637  -5.246  23.813  0.00  0.00    -0.275 OA
BRANCH   2   6
ATOM      6  CA  ALA A   1       5.821  -5.264  23.294  0.00  0.00    +0.178 C 
ATOM      7  CB  ALA A   1       4.408  -5.149  23.857  0.00  0.00    +0.040 C 
BRANCH   6   8
ATOM      8  C   ALA A   1       5.779  -5.258  21.758  0.00  0.00    +0.325 C 
ATOM      9  OXT ALA A   1       5.743  -4.228  21.091  0.00  0.00    -0.249 OA
BRANCH   8  10
ATOM     10  O   ALA A   1       5.791  -6.484  21.190  0.00  0.00    -0.479 OA
ATOM     11  H   ALA A   1       5.171  -6.599  20.448  0.00  0.00    +0.295 HD
ENDBRANCH   8  10
ENDBRANCH   6   8
ENDBRANCH   2   6
ENDBRANCH   1   4
BRANCH   1  12
ATOM     12  C   UNK A   0       9.957  -2.558  23.756  0.00  0.00    +0.048 C 
BRANCH  12  13
ATOM     13  C   UNK A   0       9.941  -1.153  23.193  0.00  0.00    -0.047 A 
ATOM     14  C   UNK A   0       9.466  -0.907  21.896  0.00  0.00    +0.003 A 
ATOM     15  C   UNK A   0       9.409   0.395  21.394  0.00  0.00    +0.000 A 
ATOM     16  C   UNK A   0       9.841   1.463  22.177  0.00  0.00    +0.000 A 
ATOM     17  C   UNK A   0      10.335   1.229  23.459  0.00  0.00    +0.000 A 
ATOM     18  C   UNK A   0      10.386  -0.071  23.964  0.00  0.00    +0.003 A 
ENDBRANCH  12  13
ENDBRANCH   1  12
BRANCH   1  19
ATOM     19  C   UNK A   0       8.822  -2.993  26.014  0.00  0.00    +0.111 C 
BRANCH  19  20
ATOM     20  C   UNK A   0       7.887  -3.968  26.691  0.00  0.00    +0.236 C 
ATOM     21  N   UNK A   0       8.439  -5.189  26.983  0.00  0.00    -0.197 N 
ATOM     22  H   UNK A   0       9.440  -5.362  27.016  0.00  0.00    +0.182 HD
ATOM     23  O   UNK A   0       6.726  -3.685  26.977  0.00  0.00    -0.274 OA
BRANCH  21  24
ATOM     24  O   UNK A   0       7.615  -6.083  27.704  0.00  0.00    -0.295 OA
ATOM     25  H   UNK A   0       6.897  -6.278  27.062  0.00  0.00    +0.241 HD
ENDBRANCH  21  24
ENDBRANCH  19  20
ENDBRANCH   1  19
TORSDOF 9
ENDMDL
MODEL 3
REMARK VINA RESULT:      -6.3      2.370      5.989
REMARK  Name = 
REMARK  10 active torsions:
REMARK  status: ('A' for Active; 'I' for Inactive)
REMARK    1  A    between atoms: CA_2  and  CB_3
REMARK    2  A    between atoms: CA_2  and  N_4
REMARK    3  A    between atoms: CA_2  and  C_21
REMARK    4  A    between atoms: C_5  and  C_7
REMARK    5  A    between atoms: C_7  and  C_9
REMARK    6  A    between atoms: C_7  and  C_14
REMARK    7  A    between atoms: C_9  and  C_10
REMARK    8  A    between atoms: N_12  and  O_13
REMARK    9  A    between atoms: C_14  and  C_15
REMARK   10  A    between atoms: C_21  and  O_22
REMARK                            x       y       z     vdW  Elec       q    Type
REMARK                         _______ _______ _______ _____ _____    ______ ____
ROOT
ATOM      1  C   UNK A   0       8.638  -2.753  23.080  0.00  0.00    +0.088 C 
ENDROOT
BRANCH   1   4
ATOM      2  N   ALA A   1       9.328  -0.392  23.116  0.00  0.00    -0.302 N 
ATOM      3  H   ALA A   1       8.407  -0.187  23.498  0.00  0.00    +0.150 HD
ATOM      4  C   UNK A   0       9.691  -1.676  22.832  0.00  0.00    +0.218 C 
ATOM      5  O   UNK A   0      10.840  -1.975  22.513  0.00  0.00    -0.275 OA
BRANCH   2   6
ATOM      6  CA  ALA A   1      10.153   0.784  22.853  0.00  0.00    +0.178 C 
ATOM      7  CB  ALA A   1       9.561   1.672  21.763  0.00  0.00    +0.040 C 
BRANCH   6   8
ATOM      8  C   ALA A   1      10.225   1.556  24.181  0.00  0.00    +0.325 C 
ATOM      9  OXT ALA A   1       9.968   2.753  24.277  0.00  0.00    -0.249 OA
BRANCH   8  10
ATOM     10  O   ALA A   1      10.590   0.810  25.246  0.00  0.00    -0.479 OA
ATOM     11  H   ALA A   1      10.046   0.938  26.043  0.00  0.00    +0.295 HD
ENDBRANCH   8  10
ENDBRANCH   6   8
ENDBRANCH   2   6
ENDBRANCH   1   4
BRANCH   1  12
ATOM     12  C   UNK A   0       7.343  -2.614  22.251  0.00  0.00    +0.048 C 
BRANCH  12  13
ATOM     13  C   UNK A   0       6.369  -3.755  22.460  0.00  0.00    -0.047 A 
ATOM     14  C   UNK A   0       6.713  -5.065  22.098  0.00  0.00    +0.003 A 
ATOM     15  C   UNK A   0       5.833  -6.123  22.333  0.00  0.00    +0.000 A 
ATOM     16  C   UNK A   0       4.593  -5.880  22.918  0.00  0.00    +0.000 A 
ATOM     17  C   UNK A   0       4.230  -4.580  23.262  0.00  0.00    +0.000 A 
ATOM     18  C   UNK A   0       5.111  -3.523  23.034  0.00  0.00    +0.003 A 
ENDBRANCH  12  13
ENDBRANCH   1  12
BRANCH   1  19
ATOM     19  C   UNK A   0       8.373  -2.871  24.585  0.00  0.00    +0.111 C 
BRANCH  19  20
ATOM     20  C   UNK A   0       8.859  -4.169  25.184  0.00  0.00    +0.236 C 
ATOM     21  N   UNK A   0       8.063  -4.682  26.176  0.00  0.00    -0.197 N 
ATOM     22  H   UNK A   0       7.097  -4.401  26.325  0.00  0.00    +0.182 HD
ATOM     23  O   UNK A   0       9.880  -4.737  24.801  0.00  0.00    -0.274 OA
BRANCH  21  24
ATOM     24  O   UNK A   0       8.443  -5.945  26.684  0.00  0.00    -0.295 OA
ATOM     25  H   UNK A   0       7.612  -6.465  26.607  0.00  0.00    +0.241 HD
ENDBRANCH  21  24
ENDBRANCH  19  20
ENDBRANCH   1  19
TORSDOF 9
ENDMDL
MODEL 4
REMARK VINA RESULT:      -6.3      2.317      5.814
REMARK  Name = 
REMARK  10 active torsions:
REMARK  status: ('A' for Active; 'I' for Inactive)
REMARK    1  A    between atoms: CA_2  and  CB_3
REMARK    2  A    between atoms: CA_2  and  N_4
REMARK    3  A    between atoms: CA_2  and  C_21
REMARK    4  A    between atoms: C_5  and  C_7
REMARK    5  A    between atoms: C_7  and  C_9
REMARK    6  A    between atoms: C_7  and  C_14
REMARK    7  A    between atoms: C_9  and  C_10
REMARK    8  A    between atoms: N_12  and  O_13
REMARK    9  A    between atoms: C_14  and  C_15
REMARK   10  A    between atoms: C_21  and  O_22
REMARK                            x       y       z     vdW  Elec       q    Type
REMARK                         _______ _______ _______ _____ _____    ______ ____
ROOT
ATOM      1  C   UNK A   0       7.761  -2.327  24.918  0.00  0.00    +0.088 C 
ENDROOT
BRANCH   1   4
ATOM      2  N   ALA A   1       8.952  -0.526  23.739  0.00  0.00    -0.302 N 
ATOM      3  H   ALA A   1       9.211  -1.226  23.048  0.00  0.00    +0.150 HD
ATOM      4  C   UNK A   0       8.172  -0.861  24.808  0.00  0.00    +0.218 C 
ATOM      5  O   UNK A   0       7.718  -0.016  25.576  0.00  0.00    -0.275 OA
BRANCH   2   6
ATOM      6  CA  ALA A   1       9.530   0.796  23.512  0.00  0.00    +0.178 C 
ATOM      7  CB  ALA A   1      10.849   0.983  24.255  0.00  0.00    +0.040 C 
BRANCH   6   8
ATOM      8  C   ALA A   1       9.758   0.904  21.996  0.00  0.00    +0.325 C 
ATOM      9  OXT ALA A   1       9.595  -0.037  21.223  0.00  0.00    -0.249 OA
BRANCH   8  10
ATOM     10  O   ALA A   1      10.151   2.124  21.572  0.00  0.00    -0.479 OA
ATOM     11  H   ALA A   1      10.719   2.122  20.781  0.00  0.00    +0.295 HD
ENDBRANCH   8  10
ENDBRANCH   6   8
ENDBRANCH   2   6
ENDBRANCH   1   4
BRANCH   1  12
ATOM     12  C   UNK A   0       6.307  -2.638  24.501  0.00  0.00    +0.048 C 
BRANCH  12  13
ATOM     13  C   UNK A   0       6.192  -3.809  23.547  0.00  0.00    -0.047 A 
ATOM     14  C   UNK A   0       7.260  -4.154  22.707  0.00  0.00    +0.003 A 
ATOM     15  C   UNK A   0       7.171  -5.261  21.861  0.00  0.00    +0.000 A 
ATOM     16  C   UNK A   0       6.007  -6.025  21.834  0.00  0.00    +0.000 A 
ATOM     17  C   UNK A   0       4.930  -5.679  22.648  0.00  0.00    +0.000 A 
ATOM     18  C   UNK A   0       5.021  -4.577  23.499  0.00  0.00    +0.003 A 
ENDBRANCH  12  13
ENDBRANCH   1  12
BRANCH   1  19
ATOM     19  C   UNK A   0       8.104  -2.850  26.318  0.00  0.00    +0.111 C 
BRANCH  19  20
ATOM     20  C   UNK A   0       8.638  -4.263  26.320  0.00  0.00    +0.236 C 
ATOM     21  N   UNK A   0       9.577  -4.527  25.355  0.00  0.00    -0.197 N 
ATOM     22  H   UNK A   0      10.092  -3.805  24.858  0.00  0.00    +0.182 HD
ATOM     23  O   UNK A   0       8.276  -5.109  27.133  0.00  0.00    -0.274 OA
BRANCH  21  24
ATOM     24  O   UNK A   0      10.164  -5.812  25.398  0.00  0.00    -0.295 OA
ATOM     25  H   UNK A   0      10.173  -6.010  26.361  0.00  0.00    +0.241 HD
ENDBRANCH  21  24
ENDBRANCH  19  20
ENDBRANCH   1  19
TORSDOF 9
ENDMDL
MODEL 5
REMARK VINA RESULT:      -6.2      1.913      3.973
REMARK  Name = 
REMARK  10 active torsions:
REMARK  status: ('A' for Active; 'I' for Inactive)
REMARK    1  A    between atoms: CA_2  and  CB_3
REMARK    2  A    between atoms: CA_2  and  N_4
REMARK    3  A    between atoms: CA_2  and  C_21
REMARK    4  A    between atoms: C_5  and  C_7
REMARK    5  A    between atoms: C_7  and  C_9
REMARK    6  A    between atoms: C_7  and  C_14
REMARK    7  A    between atoms: C_9  and  C_10
REMARK    8  A    between atoms: N_12  and  O_13
REMARK    9  A    between atoms: C_14  and  C_15
REMARK   10  A    between atoms: C_21  and  O_22
REMARK                            x       y       z     vdW  Elec       q    Type
REMARK                         _______ _______ _______ _____ _____    ______ ____
ROOT
ATOM      1  C   UNK A   0       7.221  -3.892  22.464  0.00  0.00    +0.088 C 
ENDROOT
BRANCH   1   4
ATOM      2  N   ALA A   1       7.515  -4.578  24.808  0.00  0.00    -0.302 N 
ATOM      3  H   ALA A   1       6.897  -3.808  25.053  0.00  0.00    +0.150 HD
ATOM      4  C   UNK A   0       7.819  -4.836  23.503  0.00  0.00    +0.218 C 
ATOM      5  O   UNK A   0       8.435  -5.844  23.163  0.00  0.00    -0.275 OA
BRANCH   2   6
ATOM      6  CA  ALA A   1       8.067  -5.301  25.951  0.00  0.00    +0.178 C 
ATOM      7  CB  ALA A   1       9.149  -4.503  26.670  0.00  0.00    +0.040 C 
BRANCH   6   8
ATOM      8  C   ALA A   1       6.885  -5.561  26.899  0.00  0.00    +0.325 C 
ATOM      9  OXT ALA A   1       6.826  -5.107  28.039  0.00  0.00    -0.249 OA
BRANCH   8  10
ATOM     10  O   ALA A   1       5.904  -6.329  26.378  0.00  0.00    -0.479 OA
ATOM     11  H   ALA A   1       6.183  -6.913  25.650  0.00  0.00    +0.295 HD
ENDBRANCH   8  10
ENDBRANCH   6   8
ENDBRANCH   2   6
ENDBRANCH   1   4
BRANCH   1  12
ATOM     12  C   UNK A   0       6.715  -2.540  23.014  0.00  0.00    +0.048 C 
BRANCH  12  13
ATOM     13  C   UNK A   0       7.581  -1.365  22.612  0.00  0.00    -0.047 A 
ATOM     14  C   UNK A   0       7.180  -0.051  22.896  0.00  0.00    +0.003 A 
ATOM     15  C   UNK A   0       7.999   1.030  22.567  0.00  0.00    +0.000 A 
ATOM     16  C   UNK A   0       9.221   0.811  21.936  0.00  0.00    +0.000 A 
ATOM     17  C   UNK A   0       9.621  -0.488  21.628  0.00  0.00    +0.000 A 
ATOM     18  C   UNK A   0       8.805  -1.570  21.963  0.00  0.00    +0.003 A 
ENDBRANCH  12  13
ENDBRANCH   1  12
BRANCH   1  19
ATOM     19  C   UNK A   0       6.161  -4.637  21.646  0.00  0.00    +0.111 C 
BRANCH  19  20
ATOM     20  C   UNK A   0       5.129  -5.343  22.495  0.00  0.00    +0.236 C 
ATOM     21  N   UNK A   0       5.442  -6.635  22.830  0.00  0.00    -0.197 N 
ATOM     22  H   UNK A   0       6.382  -7.020  22.774  0.00  0.00    +0.182 HD
ATOM     23  O   UNK A   0       4.096  -4.797  22.876  0.00  0.00    -0.274 OA
BRANCH  21  24
ATOM     24  O   UNK A   0       4.541  -7.284  23.705  0.00  0.00    -0.295 OA
ATOM     25  H   UNK A   0       3.746  -6.707  23.658  0.00  0.00    +0.241 HD
ENDBRANCH  21  24
ENDBRANCH  19  20
ENDBRANCH   1  19
TORSDOF 9
ENDMDL
MODEL 6
REMARK VINA RESULT:      -6.1      2.156      2.642
REMARK  Name = 
REMARK  10 active torsions:
REMARK  status: ('A' for Active; 'I' for Inactive)
REMARK    1  A    between atoms: CA_2  and  CB_3
REMARK    2  A    between atoms: CA_2  and  N_4
REMARK    3  A    between atoms: CA_2  and  C_21
REMARK    4  A    between atoms: C_5  and  C_7
REMARK    5  A    between atoms: C_7  and  C_9
REMARK    6  A    between atoms: C_7  and  C_14
REMARK    7  A    between atoms: C_9  and  C_10
REMARK    8  A    between atoms: N_12  and  O_13
REMARK    9  A    between atoms: C_14  and  C_15
REMARK   10  A    between atoms: C_21  and  O_22
REMARK                            x       y       z     vdW  Elec       q    Type
REMARK                         _______ _______ _______ _____ _____    ______ ____
ROOT
ATOM      1  C   UNK A   0       8.601  -2.638  24.577  0.00  0.00    +0.088 C 
ENDROOT
BRANCH   1   4
ATOM      2  N   ALA A   1       6.716  -4.140  24.086  0.00  0.00    -0.302 N 
ATOM      3  H   ALA A   1       6.117  -3.321  24.161  0.00  0.00    +0.150 HD
ATOM      4  C   UNK A   0       8.066  -4.028  24.246  0.00  0.00    +0.218 C 
ATOM      5  O   UNK A   0       8.830  -4.963  24.014  0.00  0.00    -0.275 OA
BRANCH   2   6
ATOM      6  CA  ALA A   1       6.004  -5.395  23.866  0.00  0.00    +0.178 C 
ATOM      7  CB  ALA A   1       5.307  -5.891  25.129  0.00  0.00    +0.040 C 
BRANCH   6   8
ATOM      8  C   ALA A   1       4.966  -5.108  22.770  0.00  0.00    +0.325 C 
ATOM      9  OXT ALA A   1       4.831  -4.006  22.244  0.00  0.00    -0.249 OA
BRANCH   8  10
ATOM     10  O   ALA A   1       4.208  -6.170  22.420  0.00  0.00    -0.479 OA
ATOM     11  H   ALA A   1       4.702  -6.919  22.039  0.00  0.00    +0.295 HD
ENDBRANCH   8  10
ENDBRANCH   6   8
ENDBRANCH   2   6
ENDBRANCH   1   4
BRANCH   1  12
ATOM     12  C   UNK A   0       9.928  -2.258  23.885  0.00  0.00    +0.048 C 
BRANCH  12  13
ATOM     13  C   UNK A   0       9.980  -0.813  23.434  0.00  0.00    -0.047 A 
ATOM     14  C   UNK A   0      10.456   0.188  24.294  0.00  0.00    +0.003 A 
ATOM     15  C   UNK A   0      10.546   1.513  23.863  0.00  0.00    +0.000 A 
ATOM     16  C   UNK A   0      10.147   1.854  22.573  0.00  0.00    +0.000 A 
ATOM     17  C   UNK A   0       9.652   0.873  21.717  0.00  0.00    +0.000 A 
ATOM     18  C   UNK A   0       9.568  -0.453  22.144  0.00  0.00    +0.003 A 
ENDBRANCH  12  13
ENDBRANCH   1  12
BRANCH   1  19
ATOM     19  C   UNK A   0       8.650  -2.459  26.099  0.00  0.00    +0.111 C 
BRANCH  19  20
ATOM     20  C   UNK A   0       7.856  -1.273  26.593  0.00  0.00    +0.236 C 
ATOM     21  N   UNK A   0       8.567  -0.376  27.347  0.00  0.00    -0.197 N 
ATOM     22  H   UNK A   0       9.583  -0.328  27.358  0.00  0.00    +0.182 HD
ATOM     23  O   UNK A   0       6.667  -1.111  26.326  0.00  0.00    -0.274 OA
BRANCH  21  24
ATOM     24  O   UNK A   0       7.873   0.792  27.739  0.00  0.00    -0.295 OA
ATOM     25  H   UNK A   0       8.517   1.504  27.529  0.00  0.00    +0.241 HD
ENDBRANCH  21  24
ENDBRANCH  19  20
ENDBRANCH   1  19
TORSDOF 9
ENDMDL
MODEL 7
REMARK VINA RESULT:      -6.0      2.153      3.447
REMARK  Name = 
REMARK  10 active torsions:
REMARK  status: ('A' for Active; 'I' for Inactive)
REMARK    1  A    between atoms: CA_2  and  CB_3
REMARK    2  A    between atoms: CA_2  and  N_4
REMARK    3  A    between atoms: CA_2  and  C_21
REMARK    4  A    between atoms: C_5  and  C_7
REMARK    5  A    between atoms: C_7  and  C_9
REMARK    6  A    between atoms: C_7  and  C_14
REMARK    7  A    between atoms: C_9  and  C_10
REMARK    8  A    between atoms: N_12  and  O_13
REMARK    9  A    between atoms: C_14  and  C_15
REMARK   10  A    between atoms: C_21  and  O_22
REMARK                            x       y       z     vdW  Elec       q    Type
REMARK                         _______ _______ _______ _____ _____    ______ ____
ROOT
ATOM      1  C   UNK A   0       7.072  -1.968  23.042  0.00  0.00    +0.088 C 
ENDROOT
BRANCH   1   4
ATOM      2  N   ALA A   1       6.280  -4.292  23.203  0.00  0.00    -0.302 N 
ATOM      3  H   ALA A   1       6.774  -4.339  24.091  0.00  0.00    +0.150 HD
ATOM      4  C   UNK A   0       6.275  -3.138  22.473  0.00  0.00    +0.218 C 
ATOM      5  O   UNK A   0       5.569  -2.999  21.477  0.00  0.00    -0.275 OA
BRANCH   2   6
ATOM      6  CA  ALA A   1       5.664  -5.547  22.781  0.00  0.00    +0.178 C 
ATOM      7  CB  ALA A   1       6.623  -6.416  21.974  0.00  0.00    +0.040 C 
BRANCH   6   8
ATOM      8  C   ALA A   1       5.254  -6.272  24.073  0.00  0.00    +0.325 C 
ATOM      9  OXT ALA A   1       5.558  -5.873  25.194  0.00  0.00    -0.249 OA
BRANCH   8  10
ATOM     10  O   ALA A   1       4.523  -7.391  23.881  0.00  0.00    -0.479 OA
ATOM     11  H   ALA A   1       4.241  -7.843  24.696  0.00  0.00    +0.295 HD
ENDBRANCH   8  10
ENDBRANCH   6   8
ENDBRANCH   2   6
ENDBRANCH   1   4
BRANCH   1  12
ATOM     12  C   UNK A   0       8.596  -2.025  22.796  0.00  0.00    +0.048 C 
BRANCH  12  13
ATOM     13  C   UNK A   0       9.271  -0.672  22.885  0.00  0.00    -0.047 A 
ATOM     14  C   UNK A   0       9.181   0.243  21.826  0.00  0.00    +0.003 A 
ATOM     15  C   UNK A   0       9.765   1.507  21.927  0.00  0.00    +0.000 A 
ATOM     16  C   UNK A   0      10.458   1.864  23.080  0.00  0.00    +0.000 A 
ATOM     17  C   UNK A   0      10.574   0.956  24.131  0.00  0.00    +0.000 A 
ATOM     18  C   UNK A   0       9.985  -0.305  24.034  0.00  0.00    +0.003 A 
ENDBRANCH  12  13
ENDBRANCH   1  12
BRANCH   1  19
ATOM     19  C   UNK A   0       6.714  -1.776  24.520  0.00  0.00    +0.111 C 
BRANCH  19  20
ATOM     20  C   UNK A   0       5.753  -0.637  24.765  0.00  0.00    +0.236 C 
ATOM     21  N   UNK A   0       5.948   0.464  23.971  0.00  0.00    -0.197 N 
ATOM     22  H   UNK A   0       6.485   0.448  23.108  0.00  0.00    +0.182 HD
ATOM     23  O   UNK A   0       4.851  -0.695  25.598  0.00  0.00    -0.274 OA
BRANCH  21  24
ATOM     24  O   UNK A   0       5.002   1.505  24.112  0.00  0.00    -0.295 OA
ATOM     25  H   UNK A   0       4.410   1.161  24.818  0.00  0.00    +0.241 HD
ENDBRANCH  21  24
ENDBRANCH  19  20
ENDBRANCH   1  19
TORSDOF 9
ENDMDL
MODEL 8
REMARK VINA RESULT:      -5.9      2.326      5.684
REMARK  Name = 
REMARK  10 active torsions:
REMARK  status: ('A' for Active; 'I' for Inactive)
REMARK    1  A    between atoms: CA_2  and  CB_3
REMARK    2  A    between atoms: CA_2  and  N_4
REMARK    3  A    between atoms: CA_2  and  C_21
REMARK    4  A    between atoms: C_5  and  C_7
REMARK    5  A    between atoms: C_7  and  C_9
REMARK    6  A    between atoms: C_7  and  C_14
REMARK    7  A    between atoms: C_9  and  C_10
REMARK    8  A    between atoms: N_12  and  O_13
REMARK    9  A    between atoms: C_14  and  C_15
REMARK   10  A    between atoms: C_21  and  O_22
REMARK                            x       y       z     vdW  Elec       q    Type
REMARK                         _______ _______ _______ _____ _____    ______ ____
ROOT
ATOM      1  C   UNK A   0       7.994  -2.323  24.403  0.00  0.00    +0.088 C 
ENDROOT
BRANCH   1   4
ATOM      2  N   ALA A   1       8.046  -0.116  23.318  0.00  0.00    -0.302 N 
ATOM      3  H   ALA A   1       7.180  -0.384  22.857  0.00  0.00    +0.150 HD
ATOM      4  C   UNK A   0       8.657  -0.964  24.196  0.00  0.00    +0.218 C 
ATOM      5  O   UNK A   0       9.617  -0.616  24.880  0.00  0.00    -0.275 OA
BRANCH   2   6
ATOM      6  CA  ALA A   1       8.576   1.182  22.909  0.00  0.00    +0.178 C 
ATOM      7  CB  ALA A   1       9.639   1.054  21.823  0.00  0.00    +0.040 C 
BRANCH   6   8
ATOM      8  C   ALA A   1       7.375   1.982  22.380  0.00  0.00    +0.325 C 
ATOM      9  OXT ALA A   1       7.470   3.124  21.938  0.00  0.00    -0.249 OA
BRANCH   8  10
ATOM     10  O   ALA A   1       6.195   1.326  22.431  0.00  0.00    -0.479 OA
ATOM     11  H   ALA A   1       5.422   1.848  22.150  0.00  0.00    +0.295 HD
ENDBRANCH   8  10
ENDBRANCH   6   8
ENDBRANCH   2   6
ENDBRANCH   1   4
BRANCH   1  12
ATOM     12  C   UNK A   0       6.563  -2.454  23.839  0.00  0.00    +0.048 C 
BRANCH  12  13
ATOM     13  C   UNK A   0       6.314  -3.765  23.124  0.00  0.00    -0.047 A 
ATOM     14  C   UNK A   0       7.303  -4.332  22.306  0.00  0.00    +0.003 A 
ATOM     15  C   UNK A   0       7.092  -5.564  21.684  0.00  0.00    +0.000 A 
ATOM     16  C   UNK A   0       5.884  -6.234  21.859  0.00  0.00    +0.000 A 
ATOM     17  C   UNK A   0       4.885  -5.671  22.651  0.00  0.00    +0.000 A 
ATOM     18  C   UNK A   0       5.098  -4.443  23.279  0.00  0.00    +0.003 A 
ENDBRANCH  12  13
ENDBRANCH   1  12
BRANCH   1  19
ATOM     19  C   UNK A   0       8.090  -2.717  25.881  0.00  0.00    +0.111 C 
BRANCH  19  20
ATOM     20  C   UNK A   0       8.718  -4.073  26.105  0.00  0.00    +0.236 C 
ATOM     21  N   UNK A   0       9.593  -4.472  25.127  0.00  0.00    -0.197 N 
ATOM     22  H   UNK A   0      10.017  -3.836  24.457  0.00  0.00    +0.182 HD
ATOM     23  O   UNK A   0       8.481  -4.760  27.095  0.00  0.00    -0.274 OA
BRANCH  21  24
ATOM     24  O   UNK A   0      10.269  -5.691  25.362  0.00  0.00    -0.295 OA
ATOM     25  H   UNK A   0      11.045  -5.406  25.895  0.00  0.00    +0.241 HD
ENDBRANCH  21  24
ENDBRANCH  19  20
ENDBRANCH   1  19
TORSDOF 9
ENDMDL
MODEL 9
REMARK VINA RESULT:      -5.9      5.337      7.969
REMARK  Name = 
REMARK  10 active torsions:
REMARK  status: ('A' for Active; 'I' for Inactive)
REMARK    1  A    between atoms: CA_2  and  CB_3
REMARK    2  A    between atoms: CA_2  and  N_4
REMARK    3  A    between atoms: CA_2  and  C_21
REMARK    4  A    between atoms: C_5  and  C_7
REMARK    5  A    between atoms: C_7  and  C_9
REMARK    6  A    between atoms: C_7  and  C_14
REMARK    7  A    between atoms: C_9  and  C_10
REMARK    8  A    between atoms: N_12  and  O_13
REMARK    9  A    between atoms: C_14  and  C_15
REMARK   10  A    between atoms: C_21  and  O_22
REMARK                            x       y       z     vdW  Elec       q    Type
REMARK                         _______ _______ _______ _____ _____    ______ ____
ROOT
ATOM      1  C   UNK A   0       9.938   4.206  23.473  0.00  0.00    +0.088 C 
ENDROOT
BRANCH   1   4
ATOM      2  N   ALA A   1       7.496   3.970  23.288  0.00  0.00    -0.302 N 
ATOM      3  H   ALA A   1       7.626   4.000  22.279  0.00  0.00    +0.150 HD
ATOM      4  C   UNK A   0       8.569   4.041  24.128  0.00  0.00    +0.218 C 
ATOM      5  O   UNK A   0       8.464   3.857  25.339  0.00  0.00    -0.275 OA
BRANCH   2   6
ATOM      6  CA  ALA A   1       6.102   3.913  23.720  0.00  0.00    +0.178 C 
ATOM      7  CB  ALA A   1       5.210   4.852  22.914  0.00  0.00    +0.040 C 
BRANCH   6   8
ATOM      8  C   ALA A   1       5.654   2.457  23.517  0.00  0.00    +0.325 C 
ATOM      9  OXT ALA A   1       6.426   1.553  23.208  0.00  0.00    -0.249 OA
BRANCH   8  10
ATOM     10  O   ALA A   1       4.336   2.242  23.713  0.00  0.00    -0.479 OA
ATOM     11  H   ALA A   1       3.750   2.643  23.046  0.00  0.00    +0.295 HD
ENDBRANCH   8  10
ENDBRANCH   6   8
ENDBRANCH   2   6
ENDBRANCH   1   4
BRANCH   1  12
ATOM     12  C   UNK A   0      10.948   3.073  23.758  0.00  0.00    +0.048 C 
BRANCH  12  13
ATOM     13  C   UNK A   0      10.475   1.713  23.290  0.00  0.00    -0.047 A 
ATOM     14  C   UNK A   0       9.950   1.543  22.001  0.00  0.00    +0.003 A 
ATOM     15  C   UNK A   0       9.556   0.280  21.553  0.00  0.00    +0.000 A 
ATOM     16  C   UNK A   0       9.669  -0.823  22.395  0.00  0.00    +0.000 A 
ATOM     17  C   UNK A   0      10.168  -0.664  23.686  0.00  0.00    +0.000 A 
ATOM     18  C   UNK A   0      10.569   0.597  24.132  0.00  0.00    +0.003 A 
ENDBRANCH  12  13
ENDBRANCH   1  12
BRANCH   1  19
ATOM     19  C   UNK A   0      10.494   5.597  23.798  0.00  0.00    +0.111 C 
BRANCH  19  20
ATOM     20  C   UNK A   0      11.994   5.696  23.650  0.00  0.00    +0.236 C 
ATOM     21  N   UNK A   0      12.466   5.476  22.381  0.00  0.00    -0.197 N 
ATOM     22  H   UNK A   0      11.884   5.520  21.549  0.00  0.00    +0.182 HD
ATOM     23  O   UNK A   0      12.738   5.971  24.589  0.00  0.00    -0.274 OA
BRANCH  21  24
ATOM     24  O   UNK A   0      13.855   5.660  22.197  0.00  0.00    -0.295 OA
ATOM     25  H   UNK A   0      14.083   4.944  21.563  0.00  0.00    +0.241 HD
ENDBRANCH  21  24
ENDBRANCH  19  20
ENDBRANCH   1  19
TORSDOF 9
ENDMDL
