MODEL 1
REMARK VINA RESULT:      -3.9      0.000      0.000
REMARK  Name = 
REMARK  6 active torsions:
REMARK  status: ('A' for Active; 'I' for Inactive)
REMARK    1  A    between atoms: O_1  and  N_2
REMARK    2  A    between atoms: N_2  and  C_3
REMARK    3  A    between atoms: C_3  and  C_4
REMARK    4  A    between atoms: C_4  and  P_5
REMARK    5  A    between atoms: P_5  and  O_6
REMARK    6  A    between atoms: P_5  and  O_7
REMARK                            x       y       z     vdW  Elec       q    Type
REMARK                         _______ _______ _______ _____ _____    ______ ____
ROOT
ATOM      1  C   UNL     1       8.607  -0.878  22.614  0.00  0.00    +0.148 C 
ENDROOT
BRANCH   1   2
ATOM      2  P   UNL     1       9.286  -2.351  23.461  0.00  0.00    +0.329 P 
ATOM      3  O   UNL     1       9.861  -3.596  24.178  0.00  0.00    -0.259 OA
BRANCH   2   4
ATOM      4  O   UNL     1       9.472  -1.392  24.779  0.00  0.00    -0.324 OA
ATOM      5  H   UNL     1       9.961  -1.926  25.438  0.00  0.00    +0.220 HD
ENDBRANCH   2   4
BRANCH   2   6
ATOM      6  O   UNL     1      10.735  -1.957  22.777  0.00  0.00    -0.324 OA
ATOM      7  H   UNL     1      10.947  -2.361  21.917  0.00  0.00    +0.220 HD
ENDBRANCH   2   6
ENDBRANCH   1   2
BRANCH   1   8
ATOM      8  C   UNL     1       9.718  -0.050  21.989  0.00  0.00    +0.151 C 
BRANCH   8   9
ATOM      9  N   UNL     1       9.782   1.309  22.511  0.00  0.00    -0.186 N 
ATOM     10  C   UNL     1      10.660   1.622  23.542  0.00  0.00    +0.352 C 
ATOM     11  O   UNL     1      11.109   0.828  24.360  0.00  0.00    -0.277 OA
BRANCH   9  12
ATOM     12  O   UNL     1       9.846   2.261  21.462  0.00  0.00    -0.293 OA
ATOM     13  H   UNL     1      10.508   2.897  21.797  0.00  0.00    +0.242 HD
ENDBRANCH   9  12
ENDBRANCH   8   9
ENDBRANCH   1   8
TORSDOF 6
ENDMDL
MODEL 2
REMARK VINA RESULT:      -3.8      2.560      4.411
REMARK  Name = 
REMARK  6 active torsions:
REMARK  status: ('A' for Active; 'I' for Inactive)
REMARK    1  A    between atoms: O_1  and  N_2
REMARK    2  A    between atoms: N_2  and  C_3
REMARK    3  A    between atoms: C_3  and  C_4
REMARK    4  A    between atoms: C_4  and  P_5
REMARK    5  A    between atoms: P_5  and  O_6
REMARK    6  A    between atoms: P_5  and  O_7
REMARK                            x       y       z     vdW  Elec       q    Type
REMARK                         _______ _______ _______ _____ _____    ______ ____
ROOT
ATOM      1  C   UNL     1      10.240   0.456  22.918  0.00  0.00    +0.148 C 
ENDROOT
BRANCH   1   2
ATOM      2  P   UNL     1       9.070   1.737  22.334  0.00  0.00    +0.329 P 
ATOM      3  O   UNL     1       8.081   2.819  21.839  0.00  0.00    -0.259 OA
BRANCH   2   4
ATOM      4  O   UNL     1       8.944   0.859  20.953  0.00  0.00    -0.324 OA
ATOM      5  H   UNL     1       8.186   0.254  21.083  0.00  0.00    +0.220 HD
ENDBRANCH   2   4
BRANCH   2   6
ATOM      6  O   UNL     1      10.397   2.593  21.853  0.00  0.00    -0.324 OA
ATOM      7  H   UNL     1      11.109   2.716  22.505  0.00  0.00    +0.220 HD
ENDBRANCH   2   6
ENDBRANCH   1   2
BRANCH   1   8
ATOM      8  C   UNL     1       9.497  -0.708  23.554  0.00  0.00    +0.151 C 
BRANCH   8   9
ATOM      9  N   UNL     1       9.412  -1.875  22.684  0.00  0.00    -0.186 N 
ATOM     10  C   UNL     1       8.173  -2.390  22.323  0.00  0.00    +0.352 C 
ATOM     11  O   UNL     1       7.133  -2.251  22.955  0.00  0.00    -0.277 OA
BRANCH   9  12
ATOM     12  O   UNL     1      10.272  -1.746  21.564  0.00  0.00    -0.293 OA
ATOM     13  H   UNL     1      10.765  -2.589  21.580  0.00  0.00    +0.242 HD
ENDBRANCH   9  12
ENDBRANCH   8   9
ENDBRANCH   1   8
TORSDOF 6
ENDMDL
MODEL 3
REMARK VINA RESULT:      -3.8      1.767      2.309
REMARK  Name = 
REMARK  6 active torsions:
REMARK  status: ('A' for Active; 'I' for Inactive)
REMARK    1  A    between atoms: O_1  and  N_2
REMARK    2  A    between atoms: N_2  and  C_3
REMARK    3  A    between atoms: C_3  and  C_4
REMARK    4  A    between atoms: C_4  and  P_5
REMARK    5  A    between atoms: P_5  and  O_6
REMARK    6  A    between atoms: P_5  and  O_7
REMARK                            x       y       z     vdW  Elec       q    Type
REMARK                         _______ _______ _______ _____ _____    ______ ____
ROOT
ATOM      1  C   UNL     1      10.328  -0.340  23.390  0.00  0.00    +0.148 C 
ENDROOT
BRANCH   1   2
ATOM      2  P   UNL     1       9.222  -1.674  22.802  0.00  0.00    +0.329 P 
ATOM      3  O   UNL     1       8.286  -2.803  22.305  0.00  0.00    -0.259 OA
BRANCH   2   4
ATOM      4  O   UNL     1      10.207  -2.716  23.599  0.00  0.00    -0.324 OA
ATOM      5  H   UNL     1      10.233  -3.533  23.061  0.00  0.00    +0.220 HD
ENDBRANCH   2   4
BRANCH   2   6
ATOM      6  O   UNL     1      10.104  -1.661  21.408  0.00  0.00    -0.324 OA
ATOM      7  H   UNL     1       9.694  -1.259  20.623  0.00  0.00    +0.220 HD
ENDBRANCH   2   6
ENDBRANCH   1   2
BRANCH   1   8
ATOM      8  C   UNL     1       9.622   1.006  23.357  0.00  0.00    +0.151 C 
BRANCH   8   9
ATOM      9  N   UNL     1       9.362   1.482  22.004  0.00  0.00    -0.186 N 
ATOM     10  C   UNL     1       8.081   1.876  21.635  0.00  0.00    +0.352 C 
ATOM     11  O   UNL     1       7.041   1.503  22.164  0.00  0.00    -0.277 OA
BRANCH   9  12
ATOM     12  O   UNL     1      10.338   2.424  21.594  0.00  0.00    -0.293 OA
ATOM     13  H   UNL     1       9.798   3.104  21.146  0.00  0.00    +0.242 HD
ENDBRANCH   9  12
ENDBRANCH   8   9
ENDBRANCH   1   8
TORSDOF 6
ENDMDL
MODEL 4
REMARK VINA RESULT:      -3.7      5.823      6.657
REMARK  Name = 
REMARK  6 active torsions:
REMARK  status: ('A' for Active; 'I' for Inactive)
REMARK    1  A    between atoms: O_1  and  N_2
REMARK    2  A    between atoms: N_2  and  C_3
REMARK    3  A    between atoms: C_3  and  C_4
REMARK    4  A    between atoms: C_4  and  P_5
REMARK    5  A    between atoms: P_5  and  O_6
REMARK    6  A    between atoms: P_5  and  O_7
REMARK                            x       y       z     vdW  Elec       q    Type
REMARK                         _______ _______ _______ _____ _____    ______ ____
ROOT
ATOM      1  C   UNL     1       6.987  -4.336  25.344  0.00  0.00    +0.148 C 
ENDROOT
BRANCH   1   2
ATOM      2  P   UNL     1       7.065  -5.235  26.936  0.00  0.00    +0.329 P 
ATOM      3  O   UNL     1       7.132  -5.995  28.283  0.00  0.00    -0.259 OA
BRANCH   2   4
ATOM      4  O   UNL     1       8.444  -5.923  26.374  0.00  0.00    -0.324 OA
ATOM      5  H   UNL     1       9.176  -5.532  26.893  0.00  0.00    +0.220 HD
ENDBRANCH   2   4
BRANCH   2   6
ATOM      6  O   UNL     1       6.049  -6.341  26.253  0.00  0.00    -0.324 OA
ATOM      7  H   UNL     1       5.180  -6.466  26.671  0.00  0.00    +0.220 HD
ENDBRANCH   2   6
ENDBRANCH   1   2
BRANCH   1   8
ATOM      8  C   UNL     1       6.170  -5.112  24.323  0.00  0.00    +0.151 C 
BRANCH   8   9
ATOM      9  N   UNL     1       6.927  -5.455  23.126  0.00  0.00    -0.186 N 
ATOM     10  C   UNL     1       6.658  -4.816  21.921  0.00  0.00    +0.352 C 
ATOM     11  O   UNL     1       5.597  -4.286  21.617  0.00  0.00    -0.277 OA
BRANCH   9  12
ATOM     12  O   UNL     1       8.318  -5.503  23.393  0.00  0.00    -0.293 OA
ATOM     13  H   UNL     1       8.493  -6.464  23.423  0.00  0.00    +0.242 HD
ENDBRANCH   9  12
ENDBRANCH   8   9
ENDBRANCH   1   8
TORSDOF 6
ENDMDL
MODEL 5
REMARK VINA RESULT:      -3.6      2.300      4.441
REMARK  Name = 
REMARK  6 active torsions:
REMARK  status: ('A' for Active; 'I' for Inactive)
REMARK    1  A    between atoms: O_1  and  N_2
REMARK    2  A    between atoms: N_2  and  C_3
REMARK    3  A    between atoms: C_3  and  C_4
REMARK    4  A    between atoms: C_4  and  P_5
REMARK    5  A    between atoms: P_5  and  O_6
REMARK    6  A    between atoms: P_5  and  O_7
REMARK                            x       y       z     vdW  Elec       q    Type
REMARK                         _______ _______ _______ _____ _____    ______ ____
ROOT
ATOM      1  C   UNL     1      10.332   2.160  23.943  0.00  0.00    +0.148 C 
ENDROOT
BRANCH   1   2
ATOM      2  P   UNL     1       9.047   2.107  22.641  0.00  0.00    +0.329 P 
ATOM      3  O   UNL     1       7.961   2.062  21.539  0.00  0.00    -0.259 OA
BRANCH   2   4
ATOM      4  O   UNL     1      10.276   2.182  21.556  0.00  0.00    -0.324 OA
ATOM      5  H   UNL     1      10.948   2.778  21.946  0.00  0.00    +0.220 HD
ENDBRANCH   2   4
BRANCH   2   6
ATOM      6  O   UNL     1       8.914   3.739  22.839  0.00  0.00    -0.324 OA
ATOM      7  H   UNL     1       8.864   4.284  22.035  0.00  0.00    +0.220 HD
ENDBRANCH   2   6
ENDBRANCH   1   2
BRANCH   1   8
ATOM      8  C   UNL     1      10.858   0.766  24.245  0.00  0.00    +0.151 C 
BRANCH   8   9
ATOM      9  N   UNL     1       9.811  -0.167  24.642  0.00  0.00    -0.186 N 
ATOM     10  C   UNL     1       9.808  -1.467  24.151  0.00  0.00    +0.352 C 
ATOM     11  O   UNL     1      10.335  -1.835  23.108  0.00  0.00    -0.277 OA
BRANCH   9  12
ATOM     12  O   UNL     1       9.599  -0.136  26.043  0.00  0.00    -0.293 OA
ATOM     13  H   UNL     1       8.865  -0.770  26.159  0.00  0.00    +0.242 HD
ENDBRANCH   9  12
ENDBRANCH   8   9
ENDBRANCH   1   8
TORSDOF 6
ENDMDL
MODEL 6
REMARK VINA RESULT:      -3.6      3.410      5.364
REMARK  Name = 
REMARK  6 active torsions:
REMARK  status: ('A' for Active; 'I' for Inactive)
REMARK    1  A    between atoms: O_1  and  N_2
REMARK    2  A    between atoms: N_2  and  C_3
REMARK    3  A    between atoms: C_3  and  C_4
REMARK    4  A    between atoms: C_4  and  P_5
REMARK    5  A    between atoms: P_5  and  O_6
REMARK    6  A    between atoms: P_5  and  O_7
REMARK                            x       y       z     vdW  Elec       q    Type
REMARK                         _______ _______ _______ _____ _____    ______ ____
ROOT
ATOM      1  C   UNL     1       8.285  -2.683  22.265  0.00  0.00    +0.148 C 
ENDROOT
BRANCH   1   2
ATOM      2  P   UNL     1       9.442  -1.608  23.188  0.00  0.00    +0.329 P 
ATOM      3  O   UNL     1      10.422  -0.698  23.969  0.00  0.00    -0.259 OA
BRANCH   2   4
ATOM      4  O   UNL     1      10.377  -1.613  21.840  0.00  0.00    -0.324 OA
ATOM      5  H   UNL     1      10.629  -2.547  21.687  0.00  0.00    +0.220 HD
ENDBRANCH   2   4
BRANCH   2   6
ATOM      6  O   UNL     1      10.075  -2.994  23.822  0.00  0.00    -0.324 OA
ATOM      7  H   UNL     1      10.217  -3.021  24.784  0.00  0.00    +0.220 HD
ENDBRANCH   2   6
ENDBRANCH   1   2
BRANCH   1   8
ATOM      8  C   UNL     1       7.228  -3.265  23.191  0.00  0.00    +0.151 C 
BRANCH   8   9
ATOM      9  N   UNL     1       7.130  -4.717  23.106  0.00  0.00    -0.186 N 
ATOM     10  C   UNL     1       6.582  -5.316  21.978  0.00  0.00    +0.352 C 
ATOM     11  O   UNL     1       5.794  -4.789  21.203  0.00  0.00    -0.277 OA
BRANCH   9  12
ATOM     12  O   UNL     1       8.345  -5.338  23.491  0.00  0.00    -0.293 OA
ATOM     13  H   UNL     1       8.038  -6.039  24.098  0.00  0.00    +0.242 HD
ENDBRANCH   9  12
ENDBRANCH   8   9
ENDBRANCH   1   8
TORSDOF 6
ENDMDL
MODEL 7
REMARK VINA RESULT:      -3.6      1.569      2.081
REMARK  Name = 
REMARK  6 active torsions:
REMARK  status: ('A' for Active; 'I' for Inactive)
REMARK    1  A    between atoms: O_1  and  N_2
REMARK    2  A    between atoms: N_2  and  C_3
REMARK    3  A    between atoms: C_3  and  C_4
REMARK    4  A    between atoms: C_4  and  P_5
REMARK    5  A    between atoms: P_5  and  O_6
REMARK    6  A    between atoms: P_5  and  O_7
REMARK                            x       y       z     vdW  Elec       q    Type
REMARK                         _______ _______ _______ _____ _____    ______ ____
ROOT
ATOM      1  C   UNL     1       8.534  -1.378  24.149  0.00  0.00    +0.148 C 
ENDROOT
BRANCH   1   2
ATOM      2  P   UNL     1       8.814  -3.186  24.214  0.00  0.00    +0.329 P 
ATOM      3  O   UNL     1       9.052  -4.714  24.268  0.00  0.00    -0.259 OA
BRANCH   2   4
ATOM      4  O   UNL     1      10.335  -2.875  23.684  0.00  0.00    -0.324 OA
ATOM      5  H   UNL     1      10.933  -3.092  24.428  0.00  0.00    +0.220 HD
ENDBRANCH   2   4
BRANCH   2   6
ATOM      6  O   UNL     1       8.135  -3.249  22.711  0.00  0.00    -0.324 OA
ATOM      7  H   UNL     1       8.738  -3.230  21.947  0.00  0.00    +0.220 HD
ENDBRANCH   2   6
ENDBRANCH   1   2
BRANCH   1   8
ATOM      8  C   UNL     1       9.725  -0.665  23.529  0.00  0.00    +0.151 C 
BRANCH   8   9
ATOM      9  N   UNL     1       9.435  -0.103  22.216  0.00  0.00    -0.186 N 
ATOM     10  C   UNL     1       9.922   1.153  21.871  0.00  0.00    +0.352 C 
ATOM     11  O   UNL     1      10.227   2.040  22.658  0.00  0.00    -0.277 OA
BRANCH   9  12
ATOM     12  O   UNL     1       9.659  -1.052  21.189  0.00  0.00    -0.293 OA
ATOM     13  H   UNL     1       9.488  -1.899  21.645  0.00  0.00    +0.242 HD
ENDBRANCH   9  12
ENDBRANCH   8   9
ENDBRANCH   1   8
TORSDOF 6
ENDMDL
MODEL 8
REMARK VINA RESULT:      -3.5      3.110      4.930
REMARK  Name = 
REMARK  6 active torsions:
REMARK  status: ('A' for Active; 'I' for Inactive)
REMARK    1  A    between atoms: O_1  and  N_2
REMARK    2  A    between atoms: N_2  and  C_3
REMARK    3  A    between atoms: C_3  and  C_4
REMARK    4  A    between atoms: C_4  and  P_5
REMARK    5  A    between atoms: P_5  and  O_6
REMARK    6  A    between atoms: P_5  and  O_7
REMARK                            x       y       z     vdW  Elec       q    Type
REMARK                         _______ _______ _______ _____ _____    ______ ____
ROOT
ATOM      1  C   UNL     1       8.243  -2.532  22.464  0.00  0.00    +0.148 C 
ENDROOT
BRANCH   1   2
ATOM      2  P   UNL     1       9.495  -1.238  22.795  0.00  0.00    +0.329 P 
ATOM      3  O   UNL     1      10.553  -0.144  23.075  0.00  0.00    -0.259 OA
BRANCH   2   4
ATOM      4  O   UNL     1       9.677  -1.129  21.169  0.00  0.00    -0.324 OA
ATOM      5  H   UNL     1      10.483  -0.594  21.020  0.00  0.00    +0.220 HD
ENDBRANCH   2   4
BRANCH   2   6
ATOM      6  O   UNL     1      10.576  -2.469  22.991  0.00  0.00    -0.324 OA
ATOM      7  H   UNL     1      10.960  -2.589  23.877  0.00  0.00    +0.220 HD
ENDBRANCH   2   6
ENDBRANCH   1   2
BRANCH   1   8
ATOM      8  C   UNL     1       7.699  -3.106  23.763  0.00  0.00    +0.151 C 
BRANCH   8   9
ATOM      9  N   UNL     1       7.801  -4.558  23.833  0.00  0.00    -0.186 N 
ATOM     10  C   UNL     1       8.827  -5.152  24.558  0.00  0.00    +0.352 C 
ATOM     11  O   UNL     1       9.906  -4.635  24.822  0.00  0.00    -0.277 OA
BRANCH   9  12
ATOM     12  O   UNL     1       6.546  -5.149  24.122  0.00  0.00    -0.293 OA
ATOM     13  H   UNL     1       6.265  -5.482  23.248  0.00  0.00    +0.242 HD
ENDBRANCH   9  12
ENDBRANCH   8   9
ENDBRANCH   1   8
TORSDOF 6
ENDMDL
MODEL 9
REMARK VINA RESULT:      -3.5      3.992      5.178
REMARK  Name = 
REMARK  6 active torsions:
REMARK  status: ('A' for Active; 'I' for Inactive)
REMARK    1  A    between atoms: O_1  and  N_2
REMARK    2  A    between atoms: N_2  and  C_3
REMARK    3  A    between atoms: C_3  and  C_4
REMARK    4  A    between atoms: C_4  and  P_5
REMARK    5  A    between atoms: P_5  and  O_6
REMARK    6  A    between atoms: P_5  and  O_7
REMARK                            x       y       z     vdW  Elec       q    Type
REMARK                         _______ _______ _______ _____ _____    ______ ____
ROOT
ATOM      1  C   UNL     1       7.829  -3.710  26.174  0.00  0.00    +0.148 C 
ENDROOT
BRANCH   1   2
ATOM      2  P   UNL     1       6.833  -5.218  26.463  0.00  0.00    +0.329 P 
ATOM      3  O   UNL     1       5.990  -6.493  26.707  0.00  0.00    -0.259 OA
BRANCH   2   4
ATOM      4  O   UNL     1       6.665  -4.698  28.009  0.00  0.00    -0.324 OA
ATOM      5  H   UNL     1       5.705  -4.719  28.202  0.00  0.00    +0.220 HD
ENDBRANCH   2   4
BRANCH   2   6
ATOM      6  O   UNL     1       8.264  -5.999  26.716  0.00  0.00    -0.324 OA
ATOM      7  H   UNL     1       9.060  -5.450  26.826  0.00  0.00    +0.220 HD
ENDBRANCH   2   6
ENDBRANCH   1   2
BRANCH   1   8
ATOM      8  C   UNL     1       7.835  -3.336  24.700  0.00  0.00    +0.151 C 
BRANCH   8   9
ATOM      9  N   UNL     1       9.151  -3.457  24.085  0.00  0.00    -0.186 N 
ATOM     10  C   UNL     1       9.899  -2.320  23.804  0.00  0.00    +0.352 C 
ATOM     11  O   UNL     1       9.446  -1.195  23.628  0.00  0.00    -0.277 OA
BRANCH   9  12
ATOM     12  O   UNL     1       9.930  -4.451  24.728  0.00  0.00    -0.293 OA
ATOM     13  H   UNL     1       9.483  -4.542  25.592  0.00  0.00    +0.242 HD
ENDBRANCH   9  12
ENDBRANCH   8   9
ENDBRANCH   1   8
TORSDOF 6
ENDMDL
