MODEL 1
REMARK VINA RESULT:      -6.0      0.000      0.000
REMARK  Name = 
REMARK  13 active torsions:
REMARK  status: ('A' for Active; 'I' for Inactive)
REMARK    1  A    between atoms: CA_2  and  C_3
REMARK    2  A    between atoms: CA_2  and  N_7
REMARK    3  A    between atoms: CA_2  and  C_23
REMARK    4  A    between atoms: C_3  and  C_4
REMARK    5  A    between atoms: C_4  and  C_5
REMARK    6  A    between atoms: C_5  and  C_6
REMARK    7  A    between atoms: C_8  and  O_10
REMARK    8  A    between atoms: O_10  and  C_11
REMARK    9  A    between atoms: C_11  and  C_13
REMARK   10  A    between atoms: C_11  and  C_20
REMARK   11  A    between atoms: C_13  and  C_14
REMARK   12  A    between atoms: C_20  and  C_21
REMARK   13  A    between atoms: C_20  and  C_22
REMARK                            x       y       z     vdW  Elec       q    Type
REMARK                         _______ _______ _______ _____ _____    ______ ____
ROOT
ATOM      1  O   UNL     1       8.894  -3.200  25.330  0.00  0.00    -0.447 OA
ENDROOT
BRANCH   1   4
ATOM      2  N   UNL     1       8.378  -5.145  26.370  0.00  0.00    -0.272 N 
ATOM      3  H   UNL     1       8.759  -6.015  26.712  0.00  0.00    +0.153 HD
ATOM      4  C   UNL     1       9.181  -4.511  25.477  0.00  0.00    +0.401 C 
ATOM      5  O   UNL     1      10.097  -5.112  24.940  0.00  0.00    -0.226 OA
BRANCH   2   6
ATOM      6  CA  UNL     1       6.933  -4.972  26.473  0.00  0.00    +0.139 C 
BRANCH   6   7
ATOM      7  C   UNL     1       6.422  -5.562  27.783  0.00  0.00    +0.245 C 
ATOM      8  O   UNL     1       7.073  -6.306  28.510  0.00  0.00    -0.299 OA
ENDBRANCH   6   7
BRANCH   6   9
ATOM      9  C   UNL     1       6.279  -5.678  25.271  0.00  0.00    +0.030 C 
BRANCH   9  10
ATOM     10  C   UNL     1       5.495  -4.754  24.339  0.00  0.00    +0.002 C 
BRANCH  10  11
ATOM     11  C   UNL     1       5.659  -5.183  22.876  0.00  0.00    -0.003 C 
ATOM     12  C   UNL     1       7.089  -5.603  22.574  0.00  0.00    +0.004 C 
ENDBRANCH  10  11
ENDBRANCH   9  10
ENDBRANCH   6   9
ENDBRANCH   2   6
ENDBRANCH   1   4
BRANCH   1  13
ATOM     13  C   UNL     1       8.803  -2.623  23.990  0.00  0.00    +0.185 C 
BRANCH  13  14
ATOM     14  C   UNL     1       7.722  -1.496  24.049  0.00  0.00    +0.024 C 
ATOM     15  C   UNL     1       6.999  -1.438  25.400  0.00  0.00    +0.011 C 
ATOM     16  C   UNL     1       6.674  -1.610  22.934  0.00  0.00    +0.011 C 
ENDBRANCH  13  14
BRANCH  13  17
ATOM     17  C   UNL     1      10.158  -2.107  23.405  0.00  0.00    +0.080 C 
BRANCH  17  18
ATOM     18  C   UNL     1      10.232  -0.609  23.225  0.00  0.00    -0.044 A 
ATOM     19  C   UNL     1       9.920  -0.013  21.995  0.00  0.00    +0.004 A 
ATOM     20  C   UNL     1       9.824   1.372  21.877  0.00  0.00    +0.000 A 
ATOM     21  C   UNL     1      10.083   2.182  22.979  0.00  0.00    +0.000 A 
ATOM     22  C   UNL     1      10.470   1.607  24.187  0.00  0.00    +0.000 A 
ATOM     23  C   UNL     1      10.554   0.220  24.307  0.00  0.00    +0.004 A 
ENDBRANCH  17  18
ENDBRANCH  13  17
ENDBRANCH   1  13
TORSDOF 10
ENDMDL
MODEL 2
REMARK VINA RESULT:      -5.8      0.868      1.482
REMARK  Name = 
REMARK  13 active torsions:
REMARK  status: ('A' for Active; 'I' for Inactive)
REMARK    1  A    between atoms: CA_2  and  C_3
REMARK    2  A    between atoms: CA_2  and  N_7
REMARK    3  A    between atoms: CA_2  and  C_23
REMARK    4  A    between atoms: C_3  and  C_4
REMARK    5  A    between atoms: C_4  and  C_5
REMARK    6  A    between atoms: C_5  and  C_6
REMARK    7  A    between atoms: C_8  and  O_10
REMARK    8  A    between atoms: O_10  and  C_11
REMARK    9  A    between atoms: C_11  and  C_13
REMARK   10  A    between atoms: C_11  and  C_20
REMARK   11  A    between atoms: C_13  and  C_14
REMARK   12  A    between atoms: C_20  and  C_21
REMARK   13  A    between atoms: C_20  and  C_22
REMARK                            x       y       z     vdW  Elec       q    Type
REMARK                         _______ _______ _______ _____ _____    ______ ____
ROOT
ATOM      1  O   UNL     1       8.901  -2.978  24.870  0.00  0.00    -0.447 OA
ENDROOT
BRANCH   1   4
ATOM      2  N   UNL     1       8.499  -4.731  26.248  0.00  0.00    -0.272 N 
ATOM      3  H   UNL     1       8.930  -5.503  26.735  0.00  0.00    +0.153 HD
ATOM      4  C   UNL     1       9.262  -4.225  25.245  0.00  0.00    +0.401 C 
ATOM      5  O   UNL     1      10.209  -4.860  24.813  0.00  0.00    -0.226 OA
BRANCH   2   6
ATOM      6  CA  UNL     1       7.047  -4.623  26.337  0.00  0.00    +0.139 C 
BRANCH   6   7
ATOM      7  C   UNL     1       6.540  -5.335  27.586  0.00  0.00    +0.245 C 
ATOM      8  O   UNL     1       7.194  -6.140  28.240  0.00  0.00    -0.299 OA
ENDBRANCH   6   7
BRANCH   6   9
ATOM      9  C   UNL     1       6.441  -5.256  25.070  0.00  0.00    +0.030 C 
BRANCH   9  10
ATOM     10  C   UNL     1       5.159  -6.054  25.309  0.00  0.00    +0.002 C 
BRANCH  10  11
ATOM     11  C   UNL     1       3.931  -5.279  24.817  0.00  0.00    -0.003 C 
ATOM     12  C   UNL     1       3.896  -5.192  23.299  0.00  0.00    +0.004 C 
ENDBRANCH  10  11
ENDBRANCH   9  10
ENDBRANCH   6   9
ENDBRANCH   2   6
ENDBRANCH   1   4
BRANCH   1  13
ATOM     13  C   UNL     1       8.755  -2.662  23.450  0.00  0.00    +0.185 C 
BRANCH  13  14
ATOM     14  C   UNL     1       7.455  -1.807  23.303  0.00  0.00    +0.024 C 
ATOM     15  C   UNL     1       6.906  -1.326  24.652  0.00  0.00    +0.011 C 
ATOM     16  C   UNL     1       6.338  -2.538  22.549  0.00  0.00    +0.011 C 
ENDBRANCH  13  14
BRANCH  13  17
ATOM     17  C   UNL     1       9.995  -1.964  22.803  0.00  0.00    +0.080 C 
BRANCH  17  18
ATOM     18  C   UNL     1      10.024  -0.463  22.969  0.00  0.00    -0.044 A 
ATOM     19  C   UNL     1      10.335   0.121  24.205  0.00  0.00    +0.004 A 
ATOM     20  C   UNL     1      10.528   1.496  24.317  0.00  0.00    +0.000 A 
ATOM     21  C   UNL     1      10.368   2.312  23.201  0.00  0.00    +0.000 A 
ATOM     22  C   UNL     1       9.982   1.755  21.984  0.00  0.00    +0.000 A 
ATOM     23  C   UNL     1       9.801   0.377  21.870  0.00  0.00    +0.004 A 
ENDBRANCH  17  18
ENDBRANCH  13  17
ENDBRANCH   1  13
TORSDOF 10
ENDMDL
MODEL 3
REMARK VINA RESULT:      -5.5      2.291      3.546
REMARK  Name = 
REMARK  13 active torsions:
REMARK  status: ('A' for Active; 'I' for Inactive)
REMARK    1  A    between atoms: CA_2  and  C_3
REMARK    2  A    between atoms: CA_2  and  N_7
REMARK    3  A    between atoms: CA_2  and  C_23
REMARK    4  A    between atoms: C_3  and  C_4
REMARK    5  A    between atoms: C_4  and  C_5
REMARK    6  A    between atoms: C_5  and  C_6
REMARK    7  A    between atoms: C_8  and  O_10
REMARK    8  A    between atoms: O_10  and  C_11
REMARK    9  A    between atoms: C_11  and  C_13
REMARK   10  A    between atoms: C_11  and  C_20
REMARK   11  A    between atoms: C_13  and  C_14
REMARK   12  A    between atoms: C_20  and  C_21
REMARK   13  A    between atoms: C_20  and  C_22
REMARK                            x       y       z     vdW  Elec       q    Type
REMARK                         _______ _______ _______ _____ _____    ______ ____
ROOT
ATOM      1  O   UNL     1       7.885  -3.051  22.967  0.00  0.00    -0.447 OA
ENDROOT
BRANCH   1   4
ATOM      2  N   UNL     1       5.704  -3.251  22.389  0.00  0.00    -0.272 N 
ATOM      3  H   UNL     1       4.927  -2.775  21.952  0.00  0.00    +0.153 HD
ATOM      4  C   UNL     1       6.707  -2.420  22.771  0.00  0.00    +0.401 C 
ATOM      5  O   UNL     1       6.514  -1.218  22.848  0.00  0.00    -0.226 OA
BRANCH   2   6
ATOM      6  CA  UNL     1       5.434  -4.565  22.963  0.00  0.00    +0.139 C 
BRANCH   6   7
ATOM      7  C   UNL     1       5.477  -5.635  21.878  0.00  0.00    +0.245 C 
ATOM      8  O   UNL     1       6.006  -5.490  20.781  0.00  0.00    -0.299 OA
ENDBRANCH   6   7
BRANCH   6   9
ATOM      9  C   UNL     1       4.045  -4.522  23.625  0.00  0.00    +0.030 C 
BRANCH   9  10
ATOM     10  C   UNL     1       4.063  -4.623  25.150  0.00  0.00    +0.002 C 
BRANCH  10  11
ATOM     11  C   UNL     1       5.196  -5.540  25.626  0.00  0.00    -0.003 C 
ATOM     12  C   UNL     1       4.660  -6.864  26.151  0.00  0.00    +0.004 C 
ENDBRANCH  10  11
ENDBRANCH   9  10
ENDBRANCH   6   9
ENDBRANCH   2   6
ENDBRANCH   1   4
BRANCH   1  13
ATOM     13  C   UNL     1       8.828  -2.534  23.957  0.00  0.00    +0.185 C 
BRANCH  13  14
ATOM     14  C   UNL     1       9.025  -3.653  25.031  0.00  0.00    +0.024 C 
ATOM     15  C   UNL     1       8.712  -5.054  24.492  0.00  0.00    +0.011 C 
ATOM     16  C   UNL     1       8.197  -3.417  26.301  0.00  0.00    +0.011 C 
ENDBRANCH  13  14
BRANCH  13  17
ATOM     17  C   UNL     1      10.190  -2.039  23.369  0.00  0.00    +0.080 C 
BRANCH  17  18
ATOM     18  C   UNL     1      10.265  -0.549  23.135  0.00  0.00    -0.044 A 
ATOM     19  C   UNL     1       9.860   0.012  21.915  0.00  0.00    +0.004 A 
ATOM     20  C   UNL     1       9.770   1.393  21.760  0.00  0.00    +0.000 A 
ATOM     21  C   UNL     1      10.126   2.234  22.810  0.00  0.00    +0.000 A 
ATOM     22  C   UNL     1      10.604   1.693  24.001  0.00  0.00    +0.000 A 
ATOM     23  C   UNL     1      10.683   0.310  24.159  0.00  0.00    +0.004 A 
ENDBRANCH  17  18
ENDBRANCH  13  17
ENDBRANCH   1  13
TORSDOF 10
ENDMDL
MODEL 4
REMARK VINA RESULT:      -5.5      1.728      3.828
REMARK  Name = 
REMARK  13 active torsions:
REMARK  status: ('A' for Active; 'I' for Inactive)
REMARK    1  A    between atoms: CA_2  and  C_3
REMARK    2  A    between atoms: CA_2  and  N_7
REMARK    3  A    between atoms: CA_2  and  C_23
REMARK    4  A    between atoms: C_3  and  C_4
REMARK    5  A    between atoms: C_4  and  C_5
REMARK    6  A    between atoms: C_5  and  C_6
REMARK    7  A    between atoms: C_8  and  O_10
REMARK    8  A    between atoms: O_10  and  C_11
REMARK    9  A    between atoms: C_11  and  C_13
REMARK   10  A    between atoms: C_11  and  C_20
REMARK   11  A    between atoms: C_13  and  C_14
REMARK   12  A    between atoms: C_20  and  C_21
REMARK   13  A    between atoms: C_20  and  C_22
REMARK                            x       y       z     vdW  Elec       q    Type
REMARK                         _______ _______ _______ _____ _____    ______ ____
ROOT
ATOM      1  O   UNL     1       8.792  -3.483  26.508  0.00  0.00    -0.447 OA
ENDROOT
BRANCH   1   4
ATOM      2  N   UNL     1       8.112  -5.555  27.121  0.00  0.00    -0.272 N 
ATOM      3  H   UNL     1       8.427  -6.495  27.312  0.00  0.00    +0.153 HD
ATOM      4  C   UNL     1       9.006  -4.813  26.416  0.00  0.00    +0.401 C 
ATOM      5  O   UNL     1       9.928  -5.355  25.830  0.00  0.00    -0.226 OA
BRANCH   2   6
ATOM      6  CA  UNL     1       6.673  -5.318  27.168  0.00  0.00    +0.139 C 
BRANCH   6   7
ATOM      7  C   UNL     1       6.060  -6.031  28.368  0.00  0.00    +0.245 C 
ATOM      8  O   UNL     1       6.511  -5.986  29.508  0.00  0.00    -0.299 OA
ENDBRANCH   6   7
BRANCH   6   9
ATOM      9  C   UNL     1       6.059  -5.841  25.857  0.00  0.00    +0.030 C 
BRANCH   9  10
ATOM     10  C   UNL     1       4.807  -5.093  25.398  0.00  0.00    +0.002 C 
BRANCH  10  11
ATOM     11  C   UNL     1       4.014  -5.923  24.382  0.00  0.00    -0.003 C 
ATOM     12  C   UNL     1       3.144  -5.042  23.499  0.00  0.00    +0.004 C 
ENDBRANCH  10  11
ENDBRANCH   9  10
ENDBRANCH   6   9
ENDBRANCH   2   6
ENDBRANCH   1   4
BRANCH   1  13
ATOM     13  C   UNL     1       8.242  -2.756  25.365  0.00  0.00    +0.185 C 
BRANCH  13  14
ATOM     14  C   UNL     1       8.499  -1.236  25.621  0.00  0.00    +0.024 C 
ATOM     15  C   UNL     1       7.241  -0.381  25.427  0.00  0.00    +0.011 C 
ATOM     16  C   UNL     1       9.623  -0.662  24.750  0.00  0.00    +0.011 C 
ENDBRANCH  13  14
BRANCH  13  17
ATOM     17  C   UNL     1       8.783  -3.217  23.972  0.00  0.00    +0.080 C 
BRANCH  17  18
ATOM     18  C   UNL     1       7.769  -3.937  23.115  0.00  0.00    -0.044 A 
ATOM     19  C   UNL     1       6.775  -3.230  22.424  0.00  0.00    +0.004 A 
ATOM     20  C   UNL     1       5.950  -3.873  21.504  0.00  0.00    +0.000 A 
ATOM     21  C   UNL     1       6.079  -5.243  21.295  0.00  0.00    +0.000 A 
ATOM     22  C   UNL     1       7.009  -5.972  22.032  0.00  0.00    +0.000 A 
ATOM     23  C   UNL     1       7.842  -5.325  22.944  0.00  0.00    +0.004 A 
ENDBRANCH  17  18
ENDBRANCH  13  17
ENDBRANCH   1  13
TORSDOF 10
ENDMDL
MODEL 5
REMARK VINA RESULT:      -5.2      2.067      4.230
REMARK  Name = 
REMARK  13 active torsions:
REMARK  status: ('A' for Active; 'I' for Inactive)
REMARK    1  A    between atoms: CA_2  and  C_3
REMARK    2  A    between atoms: CA_2  and  N_7
REMARK    3  A    between atoms: CA_2  and  C_23
REMARK    4  A    between atoms: C_3  and  C_4
REMARK    5  A    between atoms: C_4  and  C_5
REMARK    6  A    between atoms: C_5  and  C_6
REMARK    7  A    between atoms: C_8  and  O_10
REMARK    8  A    between atoms: O_10  and  C_11
REMARK    9  A    between atoms: C_11  and  C_13
REMARK   10  A    between atoms: C_11  and  C_20
REMARK   11  A    between atoms: C_13  and  C_14
REMARK   12  A    between atoms: C_20  and  C_21
REMARK   13  A    between atoms: C_20  and  C_22
REMARK                            x       y       z     vdW  Elec       q    Type
REMARK                         _______ _______ _______ _____ _____    ______ ____
ROOT
ATOM      1  O   UNL     1       9.027  -0.802  23.083  0.00  0.00    -0.447 OA
ENDROOT
BRANCH   1   4
ATOM      2  N   UNL     1       9.972  -2.692  23.899  0.00  0.00    -0.272 N 
ATOM      3  H   UNL     1      10.843  -3.192  24.001  0.00  0.00    +0.153 HD
ATOM      4  C   UNL     1      10.008  -1.721  22.951  0.00  0.00    +0.401 C 
ATOM      5  O   UNL     1      10.905  -1.703  22.124  0.00  0.00    -0.226 OA
BRANCH   2   6
ATOM      6  CA  UNL     1       8.766  -3.366  24.369  0.00  0.00    +0.139 C 
BRANCH   6   7
ATOM      7  C   UNL     1       9.133  -4.607  25.174  0.00  0.00    +0.245 C 
ATOM      8  O   UNL     1      10.217  -5.179  25.113  0.00  0.00    -0.299 OA
ENDBRANCH   6   7
BRANCH   6   9
ATOM      9  C   UNL     1       7.922  -3.749  23.140  0.00  0.00    +0.030 C 
BRANCH   9  10
ATOM     10  C   UNL     1       7.062  -5.000  23.323  0.00  0.00    +0.002 C 
BRANCH  10  11
ATOM     11  C   UNL     1       7.254  -5.974  22.156  0.00  0.00    -0.003 C 
ATOM     12  C   UNL     1       6.161  -5.816  21.110  0.00  0.00    +0.004 C 
ENDBRANCH  10  11
ENDBRANCH   9  10
ENDBRANCH   6   9
ENDBRANCH   2   6
ENDBRANCH   1   4
BRANCH   1  13
ATOM     13  C   UNL     1       9.262   0.397  23.886  0.00  0.00    +0.185 C 
BRANCH  13  14
ATOM     14  C   UNL     1       9.867   1.477  22.932  0.00  0.00    +0.024 C 
ATOM     15  C   UNL     1      10.238   2.773  23.663  0.00  0.00    +0.011 C 
ATOM     16  C   UNL     1       8.947   1.822  21.755  0.00  0.00    +0.011 C 
ENDBRANCH  13  14
BRANCH  13  17
ATOM     17  C   UNL     1       8.007   0.928  24.653  0.00  0.00    +0.080 C 
BRANCH  17  18
ATOM     18  C   UNL     1       7.123  -0.153  25.229  0.00  0.00    -0.044 A 
ATOM     19  C   UNL     1       6.026  -0.648  24.510  0.00  0.00    +0.004 A 
ATOM     20  C   UNL     1       5.315  -1.757  24.965  0.00  0.00    +0.000 A 
ATOM     21  C   UNL     1       5.665  -2.358  26.171  0.00  0.00    +0.000 A 
ATOM     22  C   UNL     1       6.703  -1.829  26.934  0.00  0.00    +0.000 A 
ATOM     23  C   UNL     1       7.421  -0.726  26.471  0.00  0.00    +0.004 A 
ENDBRANCH  17  18
ENDBRANCH  13  17
ENDBRANCH   1  13
TORSDOF 10
ENDMDL
MODEL 6
REMARK VINA RESULT:      -5.1      3.033      5.486
REMARK  Name = 
REMARK  13 active torsions:
REMARK  status: ('A' for Active; 'I' for Inactive)
REMARK    1  A    between atoms: CA_2  and  C_3
REMARK    2  A    between atoms: CA_2  and  N_7
REMARK    3  A    between atoms: CA_2  and  C_23
REMARK    4  A    between atoms: C_3  and  C_4
REMARK    5  A    between atoms: C_4  and  C_5
REMARK    6  A    between atoms: C_5  and  C_6
REMARK    7  A    between atoms: C_8  and  O_10
REMARK    8  A    between atoms: O_10  and  C_11
REMARK    9  A    between atoms: C_11  and  C_13
REMARK   10  A    between atoms: C_11  and  C_20
REMARK   11  A    between atoms: C_13  and  C_14
REMARK   12  A    between atoms: C_20  and  C_21
REMARK   13  A    between atoms: C_20  and  C_22
REMARK                            x       y       z     vdW  Elec       q    Type
REMARK                         _______ _______ _______ _____ _____    ______ ____
ROOT
ATOM      1  O   UNL     1       6.732  -1.231  23.038  0.00  0.00    -0.447 OA
ENDROOT
BRANCH   1   4
ATOM      2  N   UNL     1       6.694  -0.051  24.970  0.00  0.00    -0.272 N 
ATOM      3  H   UNL     1       6.460  -0.097  25.951  0.00  0.00    +0.153 HD
ATOM      4  C   UNL     1       6.124  -1.034  24.228  0.00  0.00    +0.401 C 
ATOM      5  O   UNL     1       5.194  -1.684  24.677  0.00  0.00    -0.226 OA
BRANCH   2   6
ATOM      6  CA  UNL     1       7.138   1.241  24.458  0.00  0.00    +0.139 C 
BRANCH   6   7
ATOM      7  C   UNL     1       7.571   2.145  25.607  0.00  0.00    +0.245 C 
ATOM      8  O   UNL     1       6.860   3.002  26.122  0.00  0.00    -0.299 OA
ENDBRANCH   6   7
BRANCH   6   9
ATOM      9  C   UNL     1       5.969   1.876  23.682  0.00  0.00    +0.030 C 
BRANCH   9  10
ATOM     10  C   UNL     1       6.380   2.628  22.416  0.00  0.00    +0.002 C 
BRANCH  10  11
ATOM     11  C   UNL     1       6.275   4.144  22.620  0.00  0.00    -0.003 C 
ATOM     12  C   UNL     1       7.645   4.780  22.803  0.00  0.00    +0.004 C 
ENDBRANCH  10  11
ENDBRANCH   9  10
ENDBRANCH   6   9
ENDBRANCH   2   6
ENDBRANCH   1   4
BRANCH   1  13
ATOM     13  C   UNL     1       7.894  -2.115  22.954  0.00  0.00    +0.185 C 
BRANCH  13  14
ATOM     14  C   UNL     1       7.371  -3.519  22.509  0.00  0.00    +0.024 C 
ATOM     15  C   UNL     1       6.051  -3.441  21.733  0.00  0.00    +0.011 C 
ATOM     16  C   UNL     1       7.196  -4.493  23.681  0.00  0.00    +0.011 C 
ENDBRANCH  13  14
BRANCH  13  17
ATOM     17  C   UNL     1       9.046  -1.598  22.032  0.00  0.00    +0.080 C 
BRANCH  17  18
ATOM     18  C   UNL     1       9.708  -0.328  22.512  0.00  0.00    -0.044 A 
ATOM     19  C   UNL     1       9.639   0.852  21.758  0.00  0.00    +0.004 A 
ATOM     20  C   UNL     1      10.102   2.060  22.277  0.00  0.00    +0.000 A 
ATOM     21  C   UNL     1      10.681   2.094  23.542  0.00  0.00    +0.000 A 
ATOM     22  C   UNL     1      10.827   0.917  24.270  0.00  0.00    +0.000 A 
ATOM     23  C   UNL     1      10.353  -0.289  23.755  0.00  0.00    +0.004 A 
ENDBRANCH  17  18
ENDBRANCH  13  17
ENDBRANCH   1  13
TORSDOF 10
ENDMDL
MODEL 7
REMARK VINA RESULT:      -5.1      2.184      4.325
REMARK  Name = 
REMARK  13 active torsions:
REMARK  status: ('A' for Active; 'I' for Inactive)
REMARK    1  A    between atoms: CA_2  and  C_3
REMARK    2  A    between atoms: CA_2  and  N_7
REMARK    3  A    between atoms: CA_2  and  C_23
REMARK    4  A    between atoms: C_3  and  C_4
REMARK    5  A    between atoms: C_4  and  C_5
REMARK    6  A    between atoms: C_5  and  C_6
REMARK    7  A    between atoms: C_8  and  O_10
REMARK    8  A    between atoms: O_10  and  C_11
REMARK    9  A    between atoms: C_11  and  C_13
REMARK   10  A    between atoms: C_11  and  C_20
REMARK   11  A    between atoms: C_13  and  C_14
REMARK   12  A    between atoms: C_20  and  C_21
REMARK   13  A    between atoms: C_20  and  C_22
REMARK                            x       y       z     vdW  Elec       q    Type
REMARK                         _______ _______ _______ _____ _____    ______ ____
ROOT
ATOM      1  O   UNL     1       8.253  -1.798  24.687  0.00  0.00    -0.447 OA
ENDROOT
BRANCH   1   4
ATOM      2  N   UNL     1       8.056  -1.026  26.807  0.00  0.00    -0.272 N 
ATOM      3  H   UNL     1       8.380  -1.150  27.755  0.00  0.00    +0.153 HD
ATOM      4  C   UNL     1       8.299  -2.093  26.004  0.00  0.00    +0.401 C 
ATOM      5  O   UNL     1       8.587  -3.175  26.489  0.00  0.00    -0.226 OA
BRANCH   2   6
ATOM      6  CA  UNL     1       7.011  -0.030  26.592  0.00  0.00    +0.139 C 
BRANCH   6   7
ATOM      7  C   UNL     1       5.663  -0.715  26.393  0.00  0.00    +0.245 C 
ATOM      8  O   UNL     1       4.946  -0.563  25.409  0.00  0.00    -0.299 OA
ENDBRANCH   6   7
BRANCH   6   9
ATOM      9  C   UNL     1       7.386   0.797  25.348  0.00  0.00    +0.030 C 
BRANCH   9  10
ATOM     10  C   UNL     1       7.474   2.304  25.589  0.00  0.00    +0.002 C 
BRANCH  10  11
ATOM     11  C   UNL     1       6.951   3.084  24.378  0.00  0.00    -0.003 C 
ATOM     12  C   UNL     1       6.300   2.163  23.358  0.00  0.00    +0.004 C 
ENDBRANCH  10  11
ENDBRANCH   9  10
ENDBRANCH   6   9
ENDBRANCH   2   6
ENDBRANCH   1   4
BRANCH   1  13
ATOM     13  C   UNL     1       8.969  -2.639  23.729  0.00  0.00    +0.185 C 
BRANCH  13  14
ATOM     14  C   UNL     1       7.916  -3.157  22.697  0.00  0.00    +0.024 C 
ATOM     15  C   UNL     1       6.658  -2.282  22.643  0.00  0.00    +0.011 C 
ATOM     16  C   UNL     1       7.494  -4.610  22.948  0.00  0.00    +0.011 C 
ENDBRANCH  13  14
BRANCH  13  17
ATOM     17  C   UNL     1      10.186  -1.949  23.032  0.00  0.00    +0.080 C 
BRANCH  17  18
ATOM     18  C   UNL     1      10.123  -0.440  23.015  0.00  0.00    -0.044 A 
ATOM     19  C   UNL     1      10.684   0.318  24.052  0.00  0.00    +0.004 A 
ATOM     20  C   UNL     1      10.776   1.705  23.955  0.00  0.00    +0.000 A 
ATOM     21  C   UNL     1      10.266   2.357  22.836  0.00  0.00    +0.000 A 
ATOM     22  C   UNL     1       9.636   1.624  21.833  0.00  0.00    +0.000 A 
ATOM     23  C   UNL     1       9.555   0.235  21.927  0.00  0.00    +0.004 A 
ENDBRANCH  17  18
ENDBRANCH  13  17
ENDBRANCH   1  13
TORSDOF 10
ENDMDL
MODEL 8
REMARK VINA RESULT:      -5.1      3.631      7.833
REMARK  Name = 
REMARK  13 active torsions:
REMARK  status: ('A' for Active; 'I' for Inactive)
REMARK    1  A    between atoms: CA_2  and  C_3
REMARK    2  A    between atoms: CA_2  and  N_7
REMARK    3  A    between atoms: CA_2  and  C_23
REMARK    4  A    between atoms: C_3  and  C_4
REMARK    5  A    between atoms: C_4  and  C_5
REMARK    6  A    between atoms: C_5  and  C_6
REMARK    7  A    between atoms: C_8  and  O_10
REMARK    8  A    between atoms: O_10  and  C_11
REMARK    9  A    between atoms: C_11  and  C_13
REMARK   10  A    between atoms: C_11  and  C_20
REMARK   11  A    between atoms: C_13  and  C_14
REMARK   12  A    between atoms: C_20  and  C_21
REMARK   13  A    between atoms: C_20  and  C_22
REMARK                            x       y       z     vdW  Elec       q    Type
REMARK                         _______ _______ _______ _____ _____    ______ ____
ROOT
ATOM      1  O   UNL     1       7.834   0.798  22.883  0.00  0.00    -0.447 OA
ENDROOT
BRANCH   1   4
ATOM      2  N   UNL     1       8.977   2.682  22.358  0.00  0.00    -0.272 N 
ATOM      3  H   UNL     1       9.220   3.306  21.602  0.00  0.00    +0.153 HD
ATOM      4  C   UNL     1       8.530   1.470  21.940  0.00  0.00    +0.401 C 
ATOM      5  O   UNL     1       8.716   1.108  20.790  0.00  0.00    -0.226 OA
BRANCH   2   6
ATOM      6  CA  UNL     1       9.579   2.955  23.658  0.00  0.00    +0.139 C 
BRANCH   6   7
ATOM      7  C   UNL     1       8.653   3.830  24.496  0.00  0.00    +0.245 C 
ATOM      8  O   UNL     1       8.160   3.493  25.567  0.00  0.00    -0.299 OA
ENDBRANCH   6   7
BRANCH   6   9
ATOM      9  C   UNL     1      10.926   3.663  23.424  0.00  0.00    +0.030 C 
BRANCH   9  10
ATOM     10  C   UNL     1      10.918   5.161  23.725  0.00  0.00    +0.002 C 
BRANCH  10  11
ATOM     11  C   UNL     1      12.346   5.716  23.789  0.00  0.00    -0.003 C 
ATOM     12  C   UNL     1      13.107   5.452  22.498  0.00  0.00    +0.004 C 
ENDBRANCH  10  11
ENDBRANCH   9  10
ENDBRANCH   6   9
ENDBRANCH   2   6
ENDBRANCH   1   4
BRANCH   1  13
ATOM     13  C   UNL     1       8.060  -0.635  23.067  0.00  0.00    +0.185 C 
BRANCH  13  14
ATOM     14  C   UNL     1       9.386  -0.790  23.880  0.00  0.00    +0.024 C 
ATOM     15  C   UNL     1      10.247  -1.960  23.390  0.00  0.00    +0.011 C 
ATOM     16  C   UNL     1       9.152  -0.947  25.387  0.00  0.00    +0.011 C 
ENDBRANCH  13  14
BRANCH  13  17
ATOM     17  C   UNL     1       6.871  -1.405  23.730  0.00  0.00    +0.080 C 
BRANCH  17  18
ATOM     18  C   UNL     1       6.728  -2.840  23.279  0.00  0.00    -0.044 A 
ATOM     19  C   UNL     1       6.080  -3.158  22.078  0.00  0.00    +0.004 A 
ATOM     20  C   UNL     1       6.096  -4.459  21.580  0.00  0.00    +0.000 A 
ATOM     21  C   UNL     1       6.724  -5.470  22.302  0.00  0.00    +0.000 A 
ATOM     22  C   UNL     1       7.305  -5.184  23.535  0.00  0.00    +0.000 A 
ATOM     23  C   UNL     1       7.298  -3.878  24.026  0.00  0.00    +0.004 A 
ENDBRANCH  17  18
ENDBRANCH  13  17
ENDBRANCH   1  13
TORSDOF 10
ENDMDL
MODEL 9
REMARK VINA RESULT:      -5.1      2.574      4.039
REMARK  Name = 
REMARK  13 active torsions:
REMARK  status: ('A' for Active; 'I' for Inactive)
REMARK    1  A    between atoms: CA_2  and  C_3
REMARK    2  A    between atoms: CA_2  and  N_7
REMARK    3  A    between atoms: CA_2  and  C_23
REMARK    4  A    between atoms: C_3  and  C_4
REMARK    5  A    between atoms: C_4  and  C_5
REMARK    6  A    between atoms: C_5  and  C_6
REMARK    7  A    between atoms: C_8  and  O_10
REMARK    8  A    between atoms: O_10  and  C_11
REMARK    9  A    between atoms: C_11  and  C_13
REMARK   10  A    between atoms: C_11  and  C_20
REMARK   11  A    between atoms: C_13  and  C_14
REMARK   12  A    between atoms: C_20  and  C_21
REMARK   13  A    between atoms: C_20  and  C_22
REMARK                            x       y       z     vdW  Elec       q    Type
REMARK                         _______ _______ _______ _____ _____    ______ ____
ROOT
ATOM      1  O   UNL     1       7.329  -1.014  22.599  0.00  0.00    -0.447 OA
ENDROOT
BRANCH   1   4
ATOM      2  N   UNL     1       6.124  -2.863  23.112  0.00  0.00    -0.272 N 
ATOM      3  H   UNL     1       5.274  -3.189  23.549  0.00  0.00    +0.153 HD
ATOM      4  C   UNL     1       6.462  -1.593  23.458  0.00  0.00    +0.401 C 
ATOM      5  O   UNL     1       5.947  -1.062  24.428  0.00  0.00    -0.226 OA
BRANCH   2   6
ATOM      6  CA  UNL     1       7.053  -3.881  22.635  0.00  0.00    +0.139 C 
BRANCH   6   7
ATOM      7  C   UNL     1       6.291  -5.119  22.178  0.00  0.00    +0.245 C 
ATOM      8  O   UNL     1       5.080  -5.157  21.984  0.00  0.00    -0.299 OA
ENDBRANCH   6   7
BRANCH   6   9
ATOM      9  C   UNL     1       8.013  -4.232  23.787  0.00  0.00    +0.030 C 
BRANCH   9  10
ATOM     10  C   UNL     1       7.397  -5.097  24.887  0.00  0.00    +0.002 C 
BRANCH  10  11
ATOM     11  C   UNL     1       7.297  -4.320  26.205  0.00  0.00    -0.003 C 
ATOM     12  C   UNL     1       8.400  -3.279  26.325  0.00  0.00    +0.004 C 
ENDBRANCH  10  11
ENDBRANCH   9  10
ENDBRANCH   6   9
ENDBRANCH   2   6
ENDBRANCH   1   4
BRANCH   1  13
ATOM     13  C   UNL     1       8.326  -0.070  23.102  0.00  0.00    +0.185 C 
BRANCH  13  14
ATOM     14  C   UNL     1       9.485  -0.914  23.722  0.00  0.00    +0.024 C 
ATOM     15  C   UNL     1      10.342  -0.111  24.708  0.00  0.00    +0.011 C 
ATOM     16  C   UNL     1      10.405  -1.538  22.665  0.00  0.00    +0.011 C 
ENDBRANCH  13  14
BRANCH  13  17
ATOM     17  C   UNL     1       8.847   0.958  22.045  0.00  0.00    +0.080 C 
BRANCH  17  18
ATOM     18  C   UNL     1       8.628   2.405  22.419  0.00  0.00    -0.044 A 
ATOM     19  C   UNL     1       7.499   3.104  21.970  0.00  0.00    +0.004 A 
ATOM     20  C   UNL     1       7.212   4.380  22.450  0.00  0.00    +0.000 A 
ATOM     21  C   UNL     1       8.075   4.991  23.355  0.00  0.00    +0.000 A 
ATOM     22  C   UNL     1       9.240   4.340  23.750  0.00  0.00    +0.000 A 
ATOM     23  C   UNL     1       9.521   3.058  23.277  0.00  0.00    +0.004 A 
ENDBRANCH  17  18
ENDBRANCH  13  17
ENDBRANCH   1  13
TORSDOF 10
ENDMDL
