MODEL 1
REMARK VINA RESULT:      -5.7      0.000      0.000
REMARK  Name = 
REMARK  23 active torsions:
REMARK  status: ('A' for Active; 'I' for Inactive)
REMARK    1  A    between atoms: C_1  and  N_2
REMARK    2  A    between atoms: N_2  and  C_3
REMARK    3  A    between atoms: N_2  and  C_14
REMARK    4  A    between atoms: C_3  and  C_4
REMARK    5  A    between atoms: C_4  and  O_5
REMARK    6  A    between atoms: O_5  and  P_6
REMARK    7  A    between atoms: P_6  and  O_7
REMARK    8  A    between atoms: P_6  and  O_9
REMARK    9  A    between atoms: O_9  and  P_10
REMARK   10  A    between atoms: P_10  and  O_11
REMARK   11  A    between atoms: P_10  and  O_12
REMARK   12  A    between atoms: C_14  and  C_15
REMARK   13  A    between atoms: C_15  and  C_16
REMARK   14  A    between atoms: C_17  and  C_18
REMARK   15  A    between atoms: C_17  and  C_19
REMARK   16  A    between atoms: C_19  and  C_20
REMARK   17  A    between atoms: C_20  and  C_21
REMARK   18  A    between atoms: C_22  and  C_23
REMARK   19  A    between atoms: C_22  and  C_24
REMARK   20  A    between atoms: C_24  and  C_25
REMARK   21  A    between atoms: C_25  and  C_26
REMARK   22  A    between atoms: C_27  and  C_28
REMARK   23  A    between atoms: C_27  and  C_29
REMARK                            x       y       z     vdW  Elec       q    Type
REMARK                         _______ _______ _______ _____ _____    ______ ____
ROOT
ATOM      1  C   UNL     1       6.171  -5.249  21.459  0.00  0.00    +0.105 C 
ATOM      2  N   UNL     1       5.090  -5.132  22.437  0.00  0.00    -0.303 NA
ENDROOT
BRANCH   2   3
ATOM      3  C   UNL     1       5.292  -6.104  23.526  0.00  0.00    +0.112 C 
BRANCH   3   4
ATOM      4  C   UNL     1       5.268  -5.514  24.940  0.00  0.00    +0.187 C 
BRANCH   4   5
ATOM      5  O   UNL     1       6.554  -5.559  25.561  0.00  0.00    -0.285 OA
BRANCH   5   6
ATOM      6  P   UNL     1       6.382  -5.433  27.277  0.00  0.00    +0.483 P 
ATOM      7  O   UNL     1       6.308  -3.913  27.129  0.00  0.00    -0.227 OA
BRANCH   6   8
ATOM      8  O   UNL     1       7.937  -5.876  27.403  0.00  0.00    -0.302 OA
ATOM      9  H   UNL     1       8.196  -6.545  26.740  0.00  0.00    +0.222 HD
ENDBRANCH   6   8
BRANCH   6  10
ATOM     10  O   UNL     1       6.209  -5.306  28.994  0.00  0.00    -0.186 OA
BRANCH  10  11
ATOM     11  P   UNL     1       4.964  -6.383  29.529  0.00  0.00    +0.481 P 
ATOM     12  O   UNL     1       3.852  -7.347  30.008  0.00  0.00    -0.227 OA
BRANCH  11  13
ATOM     13  O   UNL     1       4.059  -5.700  28.336  0.00  0.00    -0.302 OA
ATOM     14  H   UNL     1       3.191  -6.133  28.260  0.00  0.00    +0.222 HD
ENDBRANCH  11  13
BRANCH  11  15
ATOM     15  O   UNL     1       5.606  -7.500  28.516  0.00  0.00    -0.302 OA
ATOM     16  H   UNL     1       5.281  -7.265  27.626  0.00  0.00    +0.222 HD
ENDBRANCH  11  15
ENDBRANCH  10  11
ENDBRANCH   6  10
ENDBRANCH   5   6
ENDBRANCH   4   5
ENDBRANCH   3   4
ENDBRANCH   2   3
BRANCH   2  17
ATOM     17  C   UNL     1       4.930  -3.749  22.933  0.00  0.00    +0.088 C 
BRANCH  17  18
ATOM     18  C   UNL     1       5.966  -2.737  22.397  0.00  0.00    +0.042 C 
BRANCH  18  19
ATOM     19  C   UNL     1       6.679  -2.036  23.513  0.00  0.00    -0.027 C 
ATOM     20  C   UNL     1       7.825  -2.407  24.121  0.00  0.00    -0.076 C 
ATOM     21  C   UNL     1       8.556  -3.670  23.776  0.00  0.00    +0.039 C 
BRANCH  20  22
ATOM     22  C   UNL     1       8.476  -1.563  25.208  0.00  0.00    +0.034 C 
BRANCH  22  23
ATOM     23  C   UNL     1       9.836  -0.965  24.804  0.00  0.00    +0.031 C 
BRANCH  23  24
ATOM     24  C   UNL     1       9.757   0.328  24.064  0.00  0.00    -0.028 C 
ATOM     25  C   UNL     1       9.767   0.433  22.716  0.00  0.00    -0.076 C 
ATOM     26  C   UNL     1       9.859  -0.767  21.799  0.00  0.00    +0.039 C 
BRANCH  25  27
ATOM     27  C   UNL     1       9.693   1.772  21.988  0.00  0.00    +0.034 C 
BRANCH  27  28
ATOM     28  C   UNL     1       8.261   2.263  21.738  0.00  0.00    +0.031 C 
BRANCH  28  29
ATOM     29  C   UNL     1       7.174   1.572  22.502  0.00  0.00    -0.028 C 
ATOM     30  C   UNL     1       6.689   2.051  23.665  0.00  0.00    -0.080 C 
ATOM     31  C   UNL     1       5.600   1.338  24.414  0.00  0.00    +0.038 C 
ATOM     32  C   UNL     1       7.176   3.318  24.324  0.00  0.00    +0.038 C 
ENDBRANCH  28  29
ENDBRANCH  27  28
ENDBRANCH  25  27
ENDBRANCH  23  24
ENDBRANCH  22  23
ENDBRANCH  20  22
ENDBRANCH  18  19
ENDBRANCH  17  18
ENDBRANCH   2  17
TORSDOF 18
ENDMDL
MODEL 2
REMARK VINA RESULT:      -5.6      0.785      2.099
REMARK  Name = 
REMARK  23 active torsions:
REMARK  status: ('A' for Active; 'I' for Inactive)
REMARK    1  A    between atoms: C_1  and  N_2
REMARK    2  A    between atoms: N_2  and  C_3
REMARK    3  A    between atoms: N_2  and  C_14
REMARK    4  A    between atoms: C_3  and  C_4
REMARK    5  A    between atoms: C_4  and  O_5
REMARK    6  A    between atoms: O_5  and  P_6
REMARK    7  A    between atoms: P_6  and  O_7
REMARK    8  A    between atoms: P_6  and  O_9
REMARK    9  A    between atoms: O_9  and  P_10
REMARK   10  A    between atoms: P_10  and  O_11
REMARK   11  A    between atoms: P_10  and  O_12
REMARK   12  A    between atoms: C_14  and  C_15
REMARK   13  A    between atoms: C_15  and  C_16
REMARK   14  A    between atoms: C_17  and  C_18
REMARK   15  A    between atoms: C_17  and  C_19
REMARK   16  A    between atoms: C_19  and  C_20
REMARK   17  A    between atoms: C_20  and  C_21
REMARK   18  A    between atoms: C_22  and  C_23
REMARK   19  A    between atoms: C_22  and  C_24
REMARK   20  A    between atoms: C_24  and  C_25
REMARK   21  A    between atoms: C_25  and  C_26
REMARK   22  A    between atoms: C_27  and  C_28
REMARK   23  A    between atoms: C_27  and  C_29
REMARK                            x       y       z     vdW  Elec       q    Type
REMARK                         _______ _______ _______ _____ _____    ______ ____
ROOT
ATOM      1  C   UNL     1       6.881  -5.039  21.849  0.00  0.00    +0.105 C 
ATOM      2  N   UNL     1       5.561  -4.895  22.463  0.00  0.00    -0.303 NA
ENDROOT
BRANCH   2   3
ATOM      3  C   UNL     1       5.395  -5.892  23.535  0.00  0.00    +0.112 C 
BRANCH   3   4
ATOM      4  C   UNL     1       5.353  -5.321  24.956  0.00  0.00    +0.187 C 
BRANCH   4   5
ATOM      5  O   UNL     1       6.640  -5.334  25.577  0.00  0.00    -0.285 OA
BRANCH   5   6
ATOM      6  P   UNL     1       6.462  -5.339  27.297  0.00  0.00    +0.483 P 
ATOM      7  O   UNL     1       6.472  -3.810  27.273  0.00  0.00    -0.227 OA
BRANCH   6   8
ATOM      8  O   UNL     1       7.989  -5.876  27.392  0.00  0.00    -0.302 OA
ATOM      9  H   UNL     1       8.045  -6.849  27.464  0.00  0.00    +0.222 HD
ENDBRANCH   6   8
BRANCH   6  10
ATOM     10  O   UNL     1       6.283  -5.343  29.018  0.00  0.00    -0.186 OA
BRANCH  10  11
ATOM     11  P   UNL     1       4.981  -6.393  29.460  0.00  0.00    +0.481 P 
ATOM     12  O   UNL     1       3.816  -7.334  29.856  0.00  0.00    -0.227 OA
BRANCH  11  13
ATOM     13  O   UNL     1       4.142  -5.617  28.276  0.00  0.00    -0.302 OA
ATOM     14  H   UNL     1       4.291  -6.030  27.409  0.00  0.00    +0.222 HD
ENDBRANCH  11  13
BRANCH  11  15
ATOM     15  O   UNL     1       5.611  -7.485  28.412  0.00  0.00    -0.302 OA
ATOM     16  H   UNL     1       4.845  -7.878  27.951  0.00  0.00    +0.222 HD
ENDBRANCH  11  15
ENDBRANCH  10  11
ENDBRANCH   6  10
ENDBRANCH   5   6
ENDBRANCH   4   5
ENDBRANCH   3   4
ENDBRANCH   2   3
BRANCH   2  17
ATOM     17  C   UNL     1       5.308  -3.515  22.927  0.00  0.00    +0.088 C 
BRANCH  17  18
ATOM     18  C   UNL     1       6.441  -2.507  22.636  0.00  0.00    +0.042 C 
BRANCH  18  19
ATOM     19  C   UNL     1       6.921  -1.841  23.890  0.00  0.00    -0.027 C 
ATOM     20  C   UNL     1       8.110  -2.000  24.504  0.00  0.00    -0.076 C 
ATOM     21  C   UNL     1       9.156  -2.957  24.017  0.00  0.00    +0.039 C 
BRANCH  20  22
ATOM     22  C   UNL     1       8.493  -1.208  25.748  0.00  0.00    +0.034 C 
BRANCH  22  23
ATOM     23  C   UNL     1       7.573  -0.007  26.030  0.00  0.00    +0.031 C 
BRANCH  23  24
ATOM     24  C   UNL     1       7.893   1.224  25.249  0.00  0.00    -0.028 C 
ATOM     25  C   UNL     1       6.982   1.934  24.545  0.00  0.00    -0.076 C 
ATOM     26  C   UNL     1       5.520   1.553  24.475  0.00  0.00    +0.039 C 
BRANCH  25  27
ATOM     27  C   UNL     1       7.342   3.184  23.748  0.00  0.00    +0.034 C 
BRANCH  27  28
ATOM     28  C   UNL     1       7.484   2.939  22.241  0.00  0.00    +0.031 C 
BRANCH  28  29
ATOM     29  C   UNL     1       7.837   1.546  21.820  0.00  0.00    -0.028 C 
ATOM     30  C   UNL     1       9.108   1.097  21.795  0.00  0.00    -0.080 C 
ATOM     31  C   UNL     1       9.436  -0.304  21.367  0.00  0.00    +0.038 C 
ATOM     32  C   UNL     1      10.305   1.930  22.181  0.00  0.00    +0.038 C 
ENDBRANCH  28  29
ENDBRANCH  27  28
ENDBRANCH  25  27
ENDBRANCH  23  24
ENDBRANCH  22  23
ENDBRANCH  20  22
ENDBRANCH  18  19
ENDBRANCH  17  18
ENDBRANCH   2  17
TORSDOF 18
ENDMDL
MODEL 3
REMARK VINA RESULT:      -5.5      2.844      4.231
REMARK  Name = 
REMARK  23 active torsions:
REMARK  status: ('A' for Active; 'I' for Inactive)
REMARK    1  A    between atoms: C_1  and  N_2
REMARK    2  A    between atoms: N_2  and  C_3
REMARK    3  A    between atoms: N_2  and  C_14
REMARK    4  A    between atoms: C_3  and  C_4
REMARK    5  A    between atoms: C_4  and  O_5
REMARK    6  A    between atoms: O_5  and  P_6
REMARK    7  A    between atoms: P_6  and  O_7
REMARK    8  A    between atoms: P_6  and  O_9
REMARK    9  A    between atoms: O_9  and  P_10
REMARK   10  A    between atoms: P_10  and  O_11
REMARK   11  A    between atoms: P_10  and  O_12
REMARK   12  A    between atoms: C_14  and  C_15
REMARK   13  A    between atoms: C_15  and  C_16
REMARK   14  A    between atoms: C_17  and  C_18
REMARK   15  A    between atoms: C_17  and  C_19
REMARK   16  A    between atoms: C_19  and  C_20
REMARK   17  A    between atoms: C_20  and  C_21
REMARK   18  A    between atoms: C_22  and  C_23
REMARK   19  A    between atoms: C_22  and  C_24
REMARK   20  A    between atoms: C_24  and  C_25
REMARK   21  A    between atoms: C_25  and  C_26
REMARK   22  A    between atoms: C_27  and  C_28
REMARK   23  A    between atoms: C_27  and  C_29
REMARK                            x       y       z     vdW  Elec       q    Type
REMARK                         _______ _______ _______ _____ _____    ______ ____
ROOT
ATOM      1  C   UNL     1       7.723  -5.104  26.950  0.00  0.00    +0.105 C 
ATOM      2  N   UNL     1       6.467  -4.499  26.507  0.00  0.00    -0.303 NA
ENDROOT
BRANCH   2   3
ATOM      3  C   UNL     1       5.327  -5.245  27.066  0.00  0.00    +0.112 C 
BRANCH   3   4
ATOM      4  C   UNL     1       5.098  -6.635  26.463  0.00  0.00    +0.187 C 
BRANCH   4   5
ATOM      5  O   UNL     1       3.853  -6.718  25.766  0.00  0.00    -0.285 OA
BRANCH   5   6
ATOM      6  P   UNL     1       4.074  -6.258  24.114  0.00  0.00    +0.483 P 
ATOM      7  O   UNL     1       2.976  -5.209  24.289  0.00  0.00    -0.227 OA
BRANCH   6   8
ATOM      8  O   UNL     1       3.394  -7.670  23.695  0.00  0.00    -0.302 OA
ATOM      9  H   UNL     1       2.468  -7.750  23.999  0.00  0.00    +0.222 HD
ENDBRANCH   6   8
BRANCH   6  10
ATOM     10  O   UNL     1       4.295  -5.798  22.461  0.00  0.00    -0.186 OA
BRANCH  10  11
ATOM     11  P   UNL     1       5.959  -5.411  22.187  0.00  0.00    +0.481 P 
ATOM     12  O   UNL     1       7.448  -5.064  21.943  0.00  0.00    -0.227 OA
BRANCH  11  13
ATOM     13  O   UNL     1       5.375  -4.061  21.448  0.00  0.00    -0.302 OA
ATOM     14  H   UNL     1       4.512  -4.230  21.034  0.00  0.00    +0.222 HD
ENDBRANCH  11  13
BRANCH  11  15
ATOM     15  O   UNL     1       5.955  -4.704  23.665  0.00  0.00    -0.302 OA
ATOM     16  H   UNL     1       5.014  -4.584  23.897  0.00  0.00    +0.222 HD
ENDBRANCH  11  15
ENDBRANCH  10  11
ENDBRANCH   6  10
ENDBRANCH   5   6
ENDBRANCH   4   5
ENDBRANCH   3   4
ENDBRANCH   2   3
BRANCH   2  17
ATOM     17  C   UNL     1       6.404  -3.054  26.813  0.00  0.00    +0.088 C 
BRANCH  17  18
ATOM     18  C   UNL     1       7.671  -2.250  26.446  0.00  0.00    +0.042 C 
BRANCH  18  19
ATOM     19  C   UNL     1       7.632  -1.783  25.023  0.00  0.00    -0.027 C 
ATOM     20  C   UNL     1       8.445  -2.153  24.011  0.00  0.00    -0.076 C 
ATOM     21  C   UNL     1       9.594  -3.098  24.195  0.00  0.00    +0.039 C 
BRANCH  20  22
ATOM     22  C   UNL     1       8.253  -1.642  22.589  0.00  0.00    +0.034 C 
BRANCH  22  23
ATOM     23  C   UNL     1       9.526  -1.045  21.963  0.00  0.00    +0.031 C 
BRANCH  23  24
ATOM     24  C   UNL     1       9.621   0.442  22.036  0.00  0.00    -0.028 C 
ATOM     25  C   UNL     1      10.260   1.114  23.021  0.00  0.00    -0.076 C 
ATOM     26  C   UNL     1      10.958   0.421  24.169  0.00  0.00    +0.039 C 
BRANCH  25  27
ATOM     27  C   UNL     1      10.333   2.638  23.071  0.00  0.00    +0.034 C 
BRANCH  27  28
ATOM     28  C   UNL     1       9.032   3.305  23.536  0.00  0.00    +0.031 C 
BRANCH  28  29
ATOM     29  C   UNL     1       8.506   2.885  24.873  0.00  0.00    -0.028 C 
ATOM     30  C   UNL     1       7.416   2.103  25.010  0.00  0.00    -0.080 C 
ATOM     31  C   UNL     1       6.907   1.698  26.364  0.00  0.00    +0.038 C 
ATOM     32  C   UNL     1       6.611   1.568  23.852  0.00  0.00    +0.038 C 
ENDBRANCH  28  29
ENDBRANCH  27  28
ENDBRANCH  25  27
ENDBRANCH  23  24
ENDBRANCH  22  23
ENDBRANCH  20  22
ENDBRANCH  18  19
ENDBRANCH  17  18
ENDBRANCH   2  17
TORSDOF 18
ENDMDL
MODEL 4
REMARK VINA RESULT:      -5.5      1.522      2.842
REMARK  Name = 
REMARK  23 active torsions:
REMARK  status: ('A' for Active; 'I' for Inactive)
REMARK    1  A    between atoms: C_1  and  N_2
REMARK    2  A    between atoms: N_2  and  C_3
REMARK    3  A    between atoms: N_2  and  C_14
REMARK    4  A    between atoms: C_3  and  C_4
REMARK    5  A    between atoms: C_4  and  O_5
REMARK    6  A    between atoms: O_5  and  P_6
REMARK    7  A    between atoms: P_6  and  O_7
REMARK    8  A    between atoms: P_6  and  O_9
REMARK    9  A    between atoms: O_9  and  P_10
REMARK   10  A    between atoms: P_10  and  O_11
REMARK   11  A    between atoms: P_10  and  O_12
REMARK   12  A    between atoms: C_14  and  C_15
REMARK   13  A    between atoms: C_15  and  C_16
REMARK   14  A    between atoms: C_17  and  C_18
REMARK   15  A    between atoms: C_17  and  C_19
REMARK   16  A    between atoms: C_19  and  C_20
REMARK   17  A    between atoms: C_20  and  C_21
REMARK   18  A    between atoms: C_22  and  C_23
REMARK   19  A    between atoms: C_22  and  C_24
REMARK   20  A    between atoms: C_24  and  C_25
REMARK   21  A    between atoms: C_25  and  C_26
REMARK   22  A    between atoms: C_27  and  C_28
REMARK   23  A    between atoms: C_27  and  C_29
REMARK                            x       y       z     vdW  Elec       q    Type
REMARK                         _______ _______ _______ _____ _____    ______ ____
ROOT
ATOM      1  C   UNL     1       6.107  -5.292  22.594  0.00  0.00    +0.105 C 
ATOM      2  N   UNL     1       5.133  -4.218  22.401  0.00  0.00    -0.303 NA
ENDROOT
BRANCH   2   3
ATOM      3  C   UNL     1       4.054  -4.334  23.397  0.00  0.00    +0.112 C 
BRANCH   3   4
ATOM      4  C   UNL     1       4.289  -5.375  24.496  0.00  0.00    +0.187 C 
BRANCH   4   5
ATOM      5  O   UNL     1       4.582  -4.767  25.756  0.00  0.00    -0.285 OA
BRANCH   5   6
ATOM      6  P   UNL     1       6.171  -5.219  26.269  0.00  0.00    +0.483 P 
ATOM      7  O   UNL     1       5.676  -6.654  26.444  0.00  0.00    -0.227 OA
BRANCH   6   8
ATOM      8  O   UNL     1       5.895  -4.395  27.639  0.00  0.00    -0.302 OA
ATOM      9  H   UNL     1       5.648  -4.975  28.386  0.00  0.00    +0.222 HD
ENDBRANCH   6   8
BRANCH   6  10
ATOM     10  O   UNL     1       7.760  -5.670  26.783  0.00  0.00    -0.186 OA
BRANCH  10  11
ATOM     11  P   UNL     1       8.928  -5.026  25.680  0.00  0.00    +0.481 P 
ATOM     12  O   UNL     1       9.973  -4.451  24.694  0.00  0.00    -0.227 OA
BRANCH  11  13
ATOM     13  O   UNL     1       9.849  -4.782  27.023  0.00  0.00    -0.302 OA
ATOM     14  H   UNL     1       9.595  -3.962  27.481  0.00  0.00    +0.222 HD
ENDBRANCH  11  13
BRANCH  11  15
ATOM     15  O   UNL     1       9.473  -6.560  25.486  0.00  0.00    -0.302 OA
ATOM     16  H   UNL     1       8.966  -7.101  26.122  0.00  0.00    +0.222 HD
ENDBRANCH  11  15
ENDBRANCH  10  11
ENDBRANCH   6  10
ENDBRANCH   5   6
ENDBRANCH   4   5
ENDBRANCH   3   4
ENDBRANCH   2   3
BRANCH   2  17
ATOM     17  C   UNL     1       5.765  -2.882  22.402  0.00  0.00    +0.088 C 
BRANCH  17  18
ATOM     18  C   UNL     1       5.756  -2.153  23.764  0.00  0.00    +0.042 C 
BRANCH  18  19
ATOM     19  C   UNL     1       7.143  -1.810  24.213  0.00  0.00    -0.027 C 
ATOM     20  C   UNL     1       7.529  -1.360  25.425  0.00  0.00    -0.076 C 
ATOM     21  C   UNL     1       6.562  -1.080  26.535  0.00  0.00    +0.039 C 
BRANCH  20  22
ATOM     22  C   UNL     1       8.992  -1.108  25.767  0.00  0.00    +0.034 C 
BRANCH  22  23
ATOM     23  C   UNL     1       9.923  -1.075  24.542  0.00  0.00    +0.031 C 
BRANCH  23  24
ATOM     24  C   UNL     1      10.006   0.245  23.853  0.00  0.00    -0.028 C 
ATOM     25  C   UNL     1       9.756   0.431  22.536  0.00  0.00    -0.076 C 
ATOM     26  C   UNL     1       9.358  -0.695  21.609  0.00  0.00    +0.039 C 
BRANCH  25  27
ATOM     27  C   UNL     1       9.857   1.794  21.858  0.00  0.00    +0.034 C 
BRANCH  27  28
ATOM     28  C   UNL     1       8.840   2.820  22.376  0.00  0.00    +0.031 C 
BRANCH  28  29
ATOM     29  C   UNL     1       7.470   2.304  22.688  0.00  0.00    -0.028 C 
ATOM     30  C   UNL     1       6.990   2.239  23.946  0.00  0.00    -0.080 C 
ATOM     31  C   UNL     1       5.612   1.716  24.234  0.00  0.00    +0.038 C 
ATOM     32  C   UNL     1       7.763   2.671  25.168  0.00  0.00    +0.038 C 
ENDBRANCH  28  29
ENDBRANCH  27  28
ENDBRANCH  25  27
ENDBRANCH  23  24
ENDBRANCH  22  23
ENDBRANCH  20  22
ENDBRANCH  18  19
ENDBRANCH  17  18
ENDBRANCH   2  17
TORSDOF 18
ENDMDL
MODEL 5
REMARK VINA RESULT:      -5.4      1.664      2.470
REMARK  Name = 
REMARK  23 active torsions:
REMARK  status: ('A' for Active; 'I' for Inactive)
REMARK    1  A    between atoms: C_1  and  N_2
REMARK    2  A    between atoms: N_2  and  C_3
REMARK    3  A    between atoms: N_2  and  C_14
REMARK    4  A    between atoms: C_3  and  C_4
REMARK    5  A    between atoms: C_4  and  O_5
REMARK    6  A    between atoms: O_5  and  P_6
REMARK    7  A    between atoms: P_6  and  O_7
REMARK    8  A    between atoms: P_6  and  O_9
REMARK    9  A    between atoms: O_9  and  P_10
REMARK   10  A    between atoms: P_10  and  O_11
REMARK   11  A    between atoms: P_10  and  O_12
REMARK   12  A    between atoms: C_14  and  C_15
REMARK   13  A    between atoms: C_15  and  C_16
REMARK   14  A    between atoms: C_17  and  C_18
REMARK   15  A    between atoms: C_17  and  C_19
REMARK   16  A    between atoms: C_19  and  C_20
REMARK   17  A    between atoms: C_20  and  C_21
REMARK   18  A    between atoms: C_22  and  C_23
REMARK   19  A    between atoms: C_22  and  C_24
REMARK   20  A    between atoms: C_24  and  C_25
REMARK   21  A    between atoms: C_25  and  C_26
REMARK   22  A    between atoms: C_27  and  C_28
REMARK   23  A    between atoms: C_27  and  C_29
REMARK                            x       y       z     vdW  Elec       q    Type
REMARK                         _______ _______ _______ _____ _____    ______ ____
ROOT
ATOM      1  C   UNL     1       5.838  -5.732  22.678  0.00  0.00    +0.105 C 
ATOM      2  N   UNL     1       4.944  -4.579  22.572  0.00  0.00    -0.303 NA
ENDROOT
BRANCH   2   3
ATOM      3  C   UNL     1       3.890  -4.665  23.598  0.00  0.00    +0.112 C 
BRANCH   3   4
ATOM      4  C   UNL     1       4.358  -5.142  24.977  0.00  0.00    +0.187 C 
BRANCH   4   5
ATOM      5  O   UNL     1       5.128  -4.147  25.654  0.00  0.00    -0.285 OA
BRANCH   5   6
ATOM      6  P   UNL     1       6.005  -4.871  26.957  0.00  0.00    +0.483 P 
ATOM      7  O   UNL     1       7.162  -3.914  26.673  0.00  0.00    -0.227 OA
BRANCH   6   8
ATOM      8  O   UNL     1       6.172  -6.191  26.030  0.00  0.00    -0.302 OA
ATOM      9  H   UNL     1       6.421  -5.978  25.109  0.00  0.00    +0.222 HD
ENDBRANCH   6   8
BRANCH   6  10
ATOM     10  O   UNL     1       6.882  -5.596  28.261  0.00  0.00    -0.186 OA
BRANCH  10  11
ATOM     11  P   UNL     1       5.770  -6.211  29.434  0.00  0.00    +0.481 P 
ATOM     12  O   UNL     1       4.774  -6.763  30.484  0.00  0.00    -0.227 OA
BRANCH  11  13
ATOM     13  O   UNL     1       4.612  -5.534  28.480  0.00  0.00    -0.302 OA
ATOM     14  H   UNL     1       4.087  -6.215  28.025  0.00  0.00    +0.222 HD
ENDBRANCH  11  13
BRANCH  11  15
ATOM     15  O   UNL     1       5.770  -7.611  28.582  0.00  0.00    -0.302 OA
ATOM     16  H   UNL     1       5.534  -8.309  29.223  0.00  0.00    +0.222 HD
ENDBRANCH  11  15
ENDBRANCH  10  11
ENDBRANCH   6  10
ENDBRANCH   5   6
ENDBRANCH   4   5
ENDBRANCH   3   4
ENDBRANCH   2   3
BRANCH   2  17
ATOM     17  C   UNL     1       5.677  -3.296  22.619  0.00  0.00    +0.088 C 
BRANCH  17  18
ATOM     18  C   UNL     1       7.174  -3.410  22.980  0.00  0.00    +0.042 C 
BRANCH  18  19
ATOM     19  C   UNL     1       7.986  -2.351  22.299  0.00  0.00    -0.027 C 
ATOM     20  C   UNL     1       9.220  -1.917  22.631  0.00  0.00    -0.076 C 
ATOM     21  C   UNL     1       9.970  -2.431  23.823  0.00  0.00    +0.039 C 
BRANCH  20  22
ATOM     22  C   UNL     1       9.959  -0.870  21.809  0.00  0.00    +0.034 C 
BRANCH  22  23
ATOM     23  C   UNL     1       9.120   0.380  21.489  0.00  0.00    +0.031 C 
BRANCH  23  24
ATOM     24  C   UNL     1       9.721   1.670  21.937  0.00  0.00    -0.028 C 
ATOM     25  C   UNL     1       9.576   2.184  23.180  0.00  0.00    -0.076 C 
ATOM     26  C   UNL     1       8.779   1.497  24.265  0.00  0.00    +0.039 C 
BRANCH  25  27
ATOM     27  C   UNL     1      10.198   3.511  23.605  0.00  0.00    +0.034 C 
BRANCH  27  28
ATOM     28  C   UNL     1       9.203   4.482  24.254  0.00  0.00    +0.031 C 
BRANCH  28  29
ATOM     29  C   UNL     1       8.691   5.592  23.389  0.00  0.00    -0.028 C 
ATOM     30  C   UNL     1       7.568   5.477  22.652  0.00  0.00    -0.080 C 
ATOM     31  C   UNL     1       7.077   6.604  21.791  0.00  0.00    +0.038 C 
ATOM     32  C   UNL     1       6.709   4.237  22.612  0.00  0.00    +0.038 C 
ENDBRANCH  28  29
ENDBRANCH  27  28
ENDBRANCH  25  27
ENDBRANCH  23  24
ENDBRANCH  22  23
ENDBRANCH  20  22
ENDBRANCH  18  19
ENDBRANCH  17  18
ENDBRANCH   2  17
TORSDOF 18
ENDMDL
MODEL 6
REMARK VINA RESULT:      -5.4      6.563      9.357
REMARK  Name = 
REMARK  23 active torsions:
REMARK  status: ('A' for Active; 'I' for Inactive)
REMARK    1  A    between atoms: C_1  and  N_2
REMARK    2  A    between atoms: N_2  and  C_3
REMARK    3  A    between atoms: N_2  and  C_14
REMARK    4  A    between atoms: C_3  and  C_4
REMARK    5  A    between atoms: C_4  and  O_5
REMARK    6  A    between atoms: O_5  and  P_6
REMARK    7  A    between atoms: P_6  and  O_7
REMARK    8  A    between atoms: P_6  and  O_9
REMARK    9  A    between atoms: O_9  and  P_10
REMARK   10  A    between atoms: P_10  and  O_11
REMARK   11  A    between atoms: P_10  and  O_12
REMARK   12  A    between atoms: C_14  and  C_15
REMARK   13  A    between atoms: C_15  and  C_16
REMARK   14  A    between atoms: C_17  and  C_18
REMARK   15  A    between atoms: C_17  and  C_19
REMARK   16  A    between atoms: C_19  and  C_20
REMARK   17  A    between atoms: C_20  and  C_21
REMARK   18  A    between atoms: C_22  and  C_23
REMARK   19  A    between atoms: C_22  and  C_24
REMARK   20  A    between atoms: C_24  and  C_25
REMARK   21  A    between atoms: C_25  and  C_26
REMARK   22  A    between atoms: C_27  and  C_28
REMARK   23  A    between atoms: C_27  and  C_29
REMARK                            x       y       z     vdW  Elec       q    Type
REMARK                         _______ _______ _______ _____ _____    ______ ____
ROOT
ATOM      1  C   UNL     1       8.332   1.266  21.287  0.00  0.00    +0.105 C 
ATOM      2  N   UNL     1       9.685   1.053  21.800  0.00  0.00    -0.303 NA
ENDROOT
BRANCH   2   3
ATOM      3  C   UNL     1       9.895   1.862  23.013  0.00  0.00    +0.112 C 
BRANCH   3   4
ATOM      4  C   UNL     1       8.659   2.614  23.518  0.00  0.00    +0.187 C 
BRANCH   4   5
ATOM      5  O   UNL     1       8.989   3.566  24.531  0.00  0.00    -0.285 OA
BRANCH   5   6
ATOM      6  P   UNL     1       9.965   4.825  23.858  0.00  0.00    +0.483 P 
ATOM      7  O   UNL     1       9.767   5.626  25.145  0.00  0.00    -0.227 OA
BRANCH   6   8
ATOM      8  O   UNL     1       8.741   5.146  22.844  0.00  0.00    -0.302 OA
ATOM      9  H   UNL     1       9.016   5.686  22.077  0.00  0.00    +0.222 HD
ENDBRANCH   6   8
BRANCH   6  10
ATOM     10  O   UNL     1      10.941   6.084  23.185  0.00  0.00    -0.186 OA
BRANCH  10  11
ATOM     11  P   UNL     1      12.579   5.541  23.061  0.00  0.00    +0.481 P 
ATOM     12  O   UNL     1      14.045   5.054  22.949  0.00  0.00    -0.227 OA
BRANCH  11  13
ATOM     13  O   UNL     1      12.734   6.110  24.597  0.00  0.00    -0.302 OA
ATOM     14  H   UNL     1      11.870   6.344  24.976  0.00  0.00    +0.222 HD
ENDBRANCH  11  13
BRANCH  11  15
ATOM     15  O   UNL     1      12.048   4.076  23.569  0.00  0.00    -0.302 OA
ATOM     16  H   UNL     1      12.793   3.683  24.062  0.00  0.00    +0.222 HD
ENDBRANCH  11  15
ENDBRANCH  10  11
ENDBRANCH   6  10
ENDBRANCH   5   6
ENDBRANCH   4   5
ENDBRANCH   3   4
ENDBRANCH   2   3
BRANCH   2  17
ATOM     17  C   UNL     1       9.985  -0.378  22.014  0.00  0.00    +0.088 C 
BRANCH  17  18
ATOM     18  C   UNL     1       8.841  -1.199  22.650  0.00  0.00    +0.042 C 
BRANCH  18  19
ATOM     19  C   UNL     1       9.362  -2.416  23.351  0.00  0.00    -0.027 C 
ATOM     20  C   UNL     1       9.050  -2.851  24.590  0.00  0.00    -0.076 C 
ATOM     21  C   UNL     1       8.125  -2.105  25.505  0.00  0.00    +0.039 C 
BRANCH  20  22
ATOM     22  C   UNL     1       9.611  -4.147  25.159  0.00  0.00    +0.034 C 
BRANCH  22  23
ATOM     23  C   UNL     1       8.768  -4.745  26.300  0.00  0.00    +0.031 C 
BRANCH  23  24
ATOM     24  C   UNL     1       7.598  -5.556  25.855  0.00  0.00    -0.028 C 
ATOM     25  C   UNL     1       6.350  -5.429  26.361  0.00  0.00    -0.076 C 
ATOM     26  C   UNL     1       6.001  -4.435  27.446  0.00  0.00    +0.039 C 
BRANCH  25  27
ATOM     27  C   UNL     1       5.174  -6.281  25.891  0.00  0.00    +0.034 C 
BRANCH  27  28
ATOM     28  C   UNL     1       4.928  -6.214  24.378  0.00  0.00    +0.031 C 
BRANCH  28  29
ATOM     29  C   UNL     1       4.850  -4.847  23.773  0.00  0.00    -0.028 C 
ATOM     30  C   UNL     1       5.741  -4.407  22.861  0.00  0.00    -0.080 C 
ATOM     31  C   UNL     1       5.642  -3.030  22.271  0.00  0.00    +0.038 C 
ATOM     32  C   UNL     1       6.902  -5.225  22.352  0.00  0.00    +0.038 C 
ENDBRANCH  28  29
ENDBRANCH  27  28
ENDBRANCH  25  27
ENDBRANCH  23  24
ENDBRANCH  22  23
ENDBRANCH  20  22
ENDBRANCH  18  19
ENDBRANCH  17  18
ENDBRANCH   2  17
TORSDOF 18
ENDMDL
MODEL 7
REMARK VINA RESULT:      -5.4      2.501      4.405
REMARK  Name = 
REMARK  23 active torsions:
REMARK  status: ('A' for Active; 'I' for Inactive)
REMARK    1  A    between atoms: C_1  and  N_2
REMARK    2  A    between atoms: N_2  and  C_3
REMARK    3  A    between atoms: N_2  and  C_14
REMARK    4  A    between atoms: C_3  and  C_4
REMARK    5  A    between atoms: C_4  and  O_5
REMARK    6  A    between atoms: O_5  and  P_6
REMARK    7  A    between atoms: P_6  and  O_7
REMARK    8  A    between atoms: P_6  and  O_9
REMARK    9  A    between atoms: O_9  and  P_10
REMARK   10  A    between atoms: P_10  and  O_11
REMARK   11  A    between atoms: P_10  and  O_12
REMARK   12  A    between atoms: C_14  and  C_15
REMARK   13  A    between atoms: C_15  and  C_16
REMARK   14  A    between atoms: C_17  and  C_18
REMARK   15  A    between atoms: C_17  and  C_19
REMARK   16  A    between atoms: C_19  and  C_20
REMARK   17  A    between atoms: C_20  and  C_21
REMARK   18  A    between atoms: C_22  and  C_23
REMARK   19  A    between atoms: C_22  and  C_24
REMARK   20  A    between atoms: C_24  and  C_25
REMARK   21  A    between atoms: C_25  and  C_26
REMARK   22  A    between atoms: C_27  and  C_28
REMARK   23  A    between atoms: C_27  and  C_29
REMARK                            x       y       z     vdW  Elec       q    Type
REMARK                         _______ _______ _______ _____ _____    ______ ____
ROOT
ATOM      1  C   UNL     1       9.332  -3.719  25.069  0.00  0.00    +0.105 C 
ATOM      2  N   UNL     1       9.345  -3.186  23.707  0.00  0.00    -0.303 NA
ENDROOT
BRANCH   2   3
ATOM      3  C   UNL     1       8.031  -3.395  23.074  0.00  0.00    +0.112 C 
BRANCH   3   4
ATOM      4  C   UNL     1       7.326  -4.703  23.449  0.00  0.00    +0.187 C 
BRANCH   4   5
ATOM      5  O   UNL     1       6.033  -4.471  24.010  0.00  0.00    -0.285 OA
BRANCH   5   6
ATOM      6  P   UNL     1       5.719  -5.628  25.257  0.00  0.00    +0.483 P 
ATOM      7  O   UNL     1       4.221  -5.404  25.048  0.00  0.00    -0.227 OA
BRANCH   6   8
ATOM      8  O   UNL     1       6.272  -4.538  26.322  0.00  0.00    -0.302 OA
ATOM      9  H   UNL     1       7.088  -4.829  26.774  0.00  0.00    +0.222 HD
ENDBRANCH   6   8
BRANCH   6  10
ATOM     10  O   UNL     1       5.404  -6.785  26.504  0.00  0.00    -0.186 OA
BRANCH  10  11
ATOM     11  P   UNL     1       5.806  -6.101  28.041  0.00  0.00    +0.481 P 
ATOM     12  O   UNL     1       6.166  -5.489  29.417  0.00  0.00    -0.227 OA
BRANCH  11  13
ATOM     13  O   UNL     1       4.220  -5.665  28.102  0.00  0.00    -0.302 OA
ATOM     14  H   UNL     1       4.122  -4.700  28.182  0.00  0.00    +0.222 HD
ENDBRANCH  11  13
BRANCH  11  15
ATOM     15  O   UNL     1       5.509  -7.578  28.687  0.00  0.00    -0.302 OA
ATOM     16  H   UNL     1       5.572  -7.459  29.654  0.00  0.00    +0.222 HD
ENDBRANCH  11  15
ENDBRANCH  10  11
ENDBRANCH   6  10
ENDBRANCH   5   6
ENDBRANCH   4   5
ENDBRANCH   3   4
ENDBRANCH   2   3
BRANCH   2  17
ATOM     17  C   UNL     1       9.776  -1.773  23.663  0.00  0.00    +0.088 C 
BRANCH  17  18
ATOM     18  C   UNL     1       9.992  -1.197  22.247  0.00  0.00    +0.042 C 
BRANCH  18  19
ATOM     19  C   UNL     1       8.929  -0.203  21.889  0.00  0.00    -0.027 C 
ATOM     20  C   UNL     1       9.043   1.139  21.825  0.00  0.00    -0.076 C 
ATOM     21  C   UNL     1      10.308   1.866  22.172  0.00  0.00    +0.039 C 
BRANCH  20  22
ATOM     22  C   UNL     1       7.889   2.030  21.385  0.00  0.00    +0.034 C 
BRANCH  22  23
ATOM     23  C   UNL     1       7.029   2.559  22.546  0.00  0.00    +0.031 C 
BRANCH  23  24
ATOM     24  C   UNL     1       7.572   3.773  23.225  0.00  0.00    -0.028 C 
ATOM     25  C   UNL     1       8.147   3.765  24.449  0.00  0.00    -0.076 C 
ATOM     26  C   UNL     1       8.308   2.507  25.273  0.00  0.00    +0.039 C 
BRANCH  25  27
ATOM     27  C   UNL     1       8.685   5.026  25.119  0.00  0.00    +0.034 C 
BRANCH  27  28
ATOM     28  C   UNL     1       9.392   5.987  24.155  0.00  0.00    +0.031 C 
BRANCH  28  29
ATOM     29  C   UNL     1      10.610   5.461  23.461  0.00  0.00    -0.028 C 
ATOM     30  C   UNL     1      11.861   5.754  23.870  0.00  0.00    -0.080 C 
ATOM     31  C   UNL     1      13.066   5.216  23.154  0.00  0.00    +0.038 C 
ATOM     32  C   UNL     1      12.177   6.632  25.056  0.00  0.00    +0.038 C 
ENDBRANCH  28  29
ENDBRANCH  27  28
ENDBRANCH  25  27
ENDBRANCH  23  24
ENDBRANCH  22  23
ENDBRANCH  20  22
ENDBRANCH  18  19
ENDBRANCH  17  18
ENDBRANCH   2  17
TORSDOF 18
ENDMDL
MODEL 8
REMARK VINA RESULT:      -5.3      2.523      3.945
REMARK  Name = 
REMARK  23 active torsions:
REMARK  status: ('A' for Active; 'I' for Inactive)
REMARK    1  A    between atoms: C_1  and  N_2
REMARK    2  A    between atoms: N_2  and  C_3
REMARK    3  A    between atoms: N_2  and  C_14
REMARK    4  A    between atoms: C_3  and  C_4
REMARK    5  A    between atoms: C_4  and  O_5
REMARK    6  A    between atoms: O_5  and  P_6
REMARK    7  A    between atoms: P_6  and  O_7
REMARK    8  A    between atoms: P_6  and  O_9
REMARK    9  A    between atoms: O_9  and  P_10
REMARK   10  A    between atoms: P_10  and  O_11
REMARK   11  A    between atoms: P_10  and  O_12
REMARK   12  A    between atoms: C_14  and  C_15
REMARK   13  A    between atoms: C_15  and  C_16
REMARK   14  A    between atoms: C_17  and  C_18
REMARK   15  A    between atoms: C_17  and  C_19
REMARK   16  A    between atoms: C_19  and  C_20
REMARK   17  A    between atoms: C_20  and  C_21
REMARK   18  A    between atoms: C_22  and  C_23
REMARK   19  A    between atoms: C_22  and  C_24
REMARK   20  A    between atoms: C_24  and  C_25
REMARK   21  A    between atoms: C_25  and  C_26
REMARK   22  A    between atoms: C_27  and  C_28
REMARK   23  A    between atoms: C_27  and  C_29
REMARK                            x       y       z     vdW  Elec       q    Type
REMARK                         _______ _______ _______ _____ _____    ______ ____
ROOT
ATOM      1  C   UNL     1       7.197  -2.594  26.610  0.00  0.00    +0.105 C 
ATOM      2  N   UNL     1       8.346  -3.381  26.166  0.00  0.00    -0.303 NA
ENDROOT
BRANCH   2   3
ATOM      3  C   UNL     1       8.278  -4.736  26.740  0.00  0.00    +0.112 C 
BRANCH   3   4
ATOM      4  C   UNL     1       6.864  -5.285  26.953  0.00  0.00    +0.187 C 
BRANCH   4   5
ATOM      5  O   UNL     1       6.460  -6.153  25.892  0.00  0.00    -0.285 OA
BRANCH   5   6
ATOM      6  P   UNL     1       4.745  -6.366  25.930  0.00  0.00    +0.483 P 
ATOM      7  O   UNL     1       4.610  -4.956  26.505  0.00  0.00    -0.227 OA
BRANCH   6   8
ATOM      8  O   UNL     1       4.964  -7.414  27.149  0.00  0.00    -0.302 OA
ATOM      9  H   UNL     1       4.726  -7.039  28.019  0.00  0.00    +0.222 HD
ENDBRANCH   6   8
BRANCH   6  10
ATOM     10  O   UNL     1       3.028  -6.580  25.969  0.00  0.00    -0.186 OA
BRANCH  10  11
ATOM     11  P   UNL     1       2.530  -7.499  24.590  0.00  0.00    +0.481 P 
ATOM     12  O   UNL     1       2.084  -8.322  23.356  0.00  0.00    -0.227 OA
BRANCH  11  13
ATOM     13  O   UNL     1       4.118  -7.446  24.160  0.00  0.00    -0.302 OA
ATOM     14  H   UNL     1       4.492  -8.340  24.078  0.00  0.00    +0.222 HD
ENDBRANCH  11  13
BRANCH  11  15
ATOM     15  O   UNL     1       2.739  -8.841  25.508  0.00  0.00    -0.302 OA
ATOM     16  H   UNL     1       3.636  -8.763  25.886  0.00  0.00    +0.222 HD
ENDBRANCH  11  15
ENDBRANCH  10  11
ENDBRANCH   6  10
ENDBRANCH   5   6
ENDBRANCH   4   5
ENDBRANCH   3   4
ENDBRANCH   2   3
BRANCH   2  17
ATOM     17  C   UNL     1       8.480  -3.395  24.694  0.00  0.00    +0.088 C 
BRANCH  17  18
ATOM     18  C   UNL     1       9.836  -2.888  24.154  0.00  0.00    +0.042 C 
BRANCH  18  19
ATOM     19  C   UNL     1       9.653  -1.956  22.996  0.00  0.00    -0.027 C 
ATOM     20  C   UNL     1       9.959  -0.643  22.937  0.00  0.00    -0.076 C 
ATOM     21  C   UNL     1      10.509   0.116  24.107  0.00  0.00    +0.039 C 
BRANCH  20  22
ATOM     22  C   UNL     1       9.776   0.176  21.667  0.00  0.00    +0.034 C 
BRANCH  22  23
ATOM     23  C   UNL     1       9.785   1.697  21.898  0.00  0.00    +0.031 C 
BRANCH  23  24
ATOM     24  C   UNL     1       8.438   2.339  21.899  0.00  0.00    -0.028 C 
ATOM     25  C   UNL     1       7.963   3.106  22.907  0.00  0.00    -0.076 C 
ATOM     26  C   UNL     1       8.759   3.403  24.158  0.00  0.00    +0.039 C 
BRANCH  25  27
ATOM     27  C   UNL     1       6.576   3.742  22.882  0.00  0.00    +0.034 C 
BRANCH  27  28
ATOM     28  C   UNL     1       5.430   2.734  23.037  0.00  0.00    +0.031 C 
BRANCH  28  29
ATOM     29  C   UNL     1       5.148   2.250  24.425  0.00  0.00    -0.028 C 
ATOM     30  C   UNL     1       5.595   1.063  24.883  0.00  0.00    -0.080 C 
ATOM     31  C   UNL     1       5.297   0.600  26.280  0.00  0.00    +0.038 C 
ATOM     32  C   UNL     1       6.416   0.098  24.065  0.00  0.00    +0.038 C 
ENDBRANCH  28  29
ENDBRANCH  27  28
ENDBRANCH  25  27
ENDBRANCH  23  24
ENDBRANCH  22  23
ENDBRANCH  20  22
ENDBRANCH  18  19
ENDBRANCH  17  18
ENDBRANCH   2  17
TORSDOF 18
ENDMDL
MODEL 9
REMARK VINA RESULT:      -5.3      3.079      4.712
REMARK  Name = 
REMARK  23 active torsions:
REMARK  status: ('A' for Active; 'I' for Inactive)
REMARK    1  A    between atoms: C_1  and  N_2
REMARK    2  A    between atoms: N_2  and  C_3
REMARK    3  A    between atoms: N_2  and  C_14
REMARK    4  A    between atoms: C_3  and  C_4
REMARK    5  A    between atoms: C_4  and  O_5
REMARK    6  A    between atoms: O_5  and  P_6
REMARK    7  A    between atoms: P_6  and  O_7
REMARK    8  A    between atoms: P_6  and  O_9
REMARK    9  A    between atoms: O_9  and  P_10
REMARK   10  A    between atoms: P_10  and  O_11
REMARK   11  A    between atoms: P_10  and  O_12
REMARK   12  A    between atoms: C_14  and  C_15
REMARK   13  A    between atoms: C_15  and  C_16
REMARK   14  A    between atoms: C_17  and  C_18
REMARK   15  A    between atoms: C_17  and  C_19
REMARK   16  A    between atoms: C_19  and  C_20
REMARK   17  A    between atoms: C_20  and  C_21
REMARK   18  A    between atoms: C_22  and  C_23
REMARK   19  A    between atoms: C_22  and  C_24
REMARK   20  A    between atoms: C_24  and  C_25
REMARK   21  A    between atoms: C_25  and  C_26
REMARK   22  A    between atoms: C_27  and  C_28
REMARK   23  A    between atoms: C_27  and  C_29
REMARK                            x       y       z     vdW  Elec       q    Type
REMARK                         _______ _______ _______ _____ _____    ______ ____
ROOT
ATOM      1  C   UNL     1       7.635  -5.227  27.111  0.00  0.00    +0.105 C 
ATOM      2  N   UNL     1       6.351  -4.826  26.538  0.00  0.00    -0.303 NA
ENDROOT
BRANCH   2   3
ATOM      3  C   UNL     1       5.258  -5.570  27.189  0.00  0.00    +0.112 C 
BRANCH   3   4
ATOM      4  C   UNL     1       4.749  -6.791  26.417  0.00  0.00    +0.187 C 
BRANCH   4   5
ATOM      5  O   UNL     1       3.514  -6.527  25.750  0.00  0.00    -0.285 OA
BRANCH   5   6
ATOM      6  P   UNL     1       3.810  -6.176  24.083  0.00  0.00    +0.483 P 
ATOM      7  O   UNL     1       2.443  -5.495  24.012  0.00  0.00    -0.227 OA
BRANCH   6   8
ATOM      8  O   UNL     1       3.628  -7.759  23.781  0.00  0.00    -0.302 OA
ATOM      9  H   UNL     1       3.223  -7.934  22.908  0.00  0.00    +0.222 HD
ENDBRANCH   6   8
BRANCH   6  10
ATOM     10  O   UNL     1       4.106  -5.824  22.415  0.00  0.00    -0.186 OA
BRANCH  10  11
ATOM     11  P   UNL     1       5.797  -5.543  22.176  0.00  0.00    +0.481 P 
ATOM     12  O   UNL     1       7.310  -5.292  21.963  0.00  0.00    -0.227 OA
BRANCH  11  13
ATOM     13  O   UNL     1       5.367  -3.961  22.027  0.00  0.00    -0.302 OA
ATOM     14  H   UNL     1       5.034  -3.768  21.134  0.00  0.00    +0.222 HD
ENDBRANCH  11  13
BRANCH  11  15
ATOM     15  O   UNL     1       5.929  -5.439  23.806  0.00  0.00    -0.302 OA
ATOM     16  H   UNL     1       5.951  -4.484  24.008  0.00  0.00    +0.222 HD
ENDBRANCH  11  15
ENDBRANCH  10  11
ENDBRANCH   6  10
ENDBRANCH   5   6
ENDBRANCH   4   5
ENDBRANCH   3   4
ENDBRANCH   2   3
BRANCH   2  17
ATOM     17  C   UNL     1       6.148  -3.363  26.587  0.00  0.00    +0.088 C 
BRANCH  17  18
ATOM     18  C   UNL     1       7.428  -2.518  26.404  0.00  0.00    +0.042 C 
BRANCH  18  19
ATOM     19  C   UNL     1       7.577  -2.044  24.990  0.00  0.00    -0.027 C 
ATOM     20  C   UNL     1       8.450  -2.483  24.061  0.00  0.00    -0.076 C 
ATOM     21  C   UNL     1       9.484  -3.531  24.347  0.00  0.00    +0.039 C 
BRANCH  20  22
ATOM     22  C   UNL     1       8.451  -1.952  22.634  0.00  0.00    +0.034 C 
BRANCH  22  23
ATOM     23  C   UNL     1       9.519  -0.877  22.367  0.00  0.00    +0.031 C 
BRANCH  23  24
ATOM     24  C   UNL     1       9.176   0.485  22.869  0.00  0.00    -0.028 C 
ATOM     25  C   UNL     1       9.658   1.015  24.017  0.00  0.00    -0.076 C 
ATOM     26  C   UNL     1      10.613   0.275  24.926  0.00  0.00    +0.039 C 
BRANCH  25  27
ATOM     27  C   UNL     1       9.281   2.410  24.507  0.00  0.00    +0.034 C 
BRANCH  27  28
ATOM     28  C   UNL     1       9.609   3.528  23.509  0.00  0.00    +0.031 C 
BRANCH  28  29
ATOM     29  C   UNL     1      11.058   3.746  23.203  0.00  0.00    -0.028 C 
ATOM     30  C   UNL     1      11.691   4.905  23.477  0.00  0.00    -0.080 C 
ATOM     31  C   UNL     1      13.145   5.099  23.158  0.00  0.00    +0.038 C 
ATOM     32  C   UNL     1      11.024   6.099  24.115  0.00  0.00    +0.038 C 
ENDBRANCH  28  29
ENDBRANCH  27  28
ENDBRANCH  25  27
ENDBRANCH  23  24
ENDBRANCH  22  23
ENDBRANCH  20  22
ENDBRANCH  18  19
ENDBRANCH  17  18
ENDBRANCH   2  17
TORSDOF 18
ENDMDL
