MODEL 1
REMARK VINA RESULT:      -6.4      0.000      0.000
REMARK  Name = 
REMARK  10 active torsions:
REMARK  status: ('A' for Active; 'I' for Inactive)
REMARK    1  A    between atoms: C_1  and  C_2
REMARK    2  A    between atoms: C_2  and  C_3
REMARK    3  A    between atoms: C_3  and  C_4
REMARK    4  A    between atoms: C_4  and  C_5
REMARK    5  A    between atoms: C_5  and  O_6
REMARK    6  A    between atoms: O_6  and  C_7
REMARK    7  A    between atoms: N_14  and  C_18
REMARK    8  A    between atoms: C_21  and  C_23
REMARK    9  A    between atoms: C_24  and  O_26
REMARK   10  A    between atoms: C_27  and  O_29
REMARK                            x       y       z     vdW  Elec       q    Type
REMARK                         _______ _______ _______ _____ _____    ______ ____
ROOT
ATOM      1  C   UNL     1       6.873  -5.220  26.042  0.00  0.00    +0.406 C 
ATOM      2  N   UNL     1       7.844  -4.501  25.403  0.00  0.00    -0.233 N 
ATOM      3  H   UNL     1       8.765  -4.881  25.571  0.00  0.00    +0.160 HD
ATOM      4  C   UNL     1       7.781  -3.196  24.972  0.00  0.00    +0.170 A 
ATOM      5  C   UNL     1       9.095  -2.702  24.533  0.00  0.00    +0.180 A 
ATOM      6  F   UNL     1      10.135  -3.551  24.457  0.00  0.00    -0.200 F 
ATOM      7  C   UNL     1       9.168  -1.402  24.282  0.00  0.00    +0.135 A 
ATOM      8  N   UNL     1       8.044  -0.595  24.418  0.00  0.00    -0.267 N 
ATOM      9  C   UNL     1       6.769  -1.168  24.621  0.00  0.00    +0.352 A 
ATOM     10  O   UNL     1       5.752  -0.501  24.485  0.00  0.00    -0.244 OA
ATOM     11  N   UNL     1       6.713  -2.482  25.009  0.00  0.00    -0.175 NA
ATOM     12  O   UNL     1       7.167  -6.017  26.925  0.00  0.00    -0.226 OA
ENDROOT
BRANCH   8  13
ATOM     13  C   UNL     1       8.090   0.821  24.040  0.00  0.00    +0.255 C 
ATOM     14  C   UNL     1       9.417   1.577  24.287  0.00  0.00    +0.195 C 
ATOM     15  C   UNL     1      10.094   1.643  22.921  0.00  0.00    +0.176 C 
ATOM     16  C   UNL     1       9.025   1.228  21.919  0.00  0.00    +0.149 C 
ATOM     17  C   UNL     1       9.444  -0.014  21.138  0.00  0.00    +0.041 C 
ATOM     18  O   UNL     1       7.804   0.975  22.634  0.00  0.00    -0.348 OA
BRANCH  14  19
ATOM     19  O   UNL     1       9.193   2.926  24.754  0.00  0.00    -0.385 OA
ATOM     20  H   UNL     1       9.227   2.936  25.725  0.00  0.00    +0.210 HD
ENDBRANCH  14  19
BRANCH  15  21
ATOM     21  O   UNL     1      10.556   2.959  22.599  0.00  0.00    -0.387 OA
ATOM     22  H   UNL     1      10.981   2.895  21.721  0.00  0.00    +0.210 HD
ENDBRANCH  15  21
ENDBRANCH   8  13
BRANCH   1  23
ATOM     23  O   UNL     1       5.637  -5.062  25.512  0.00  0.00    -0.450 OA
BRANCH  23  24
ATOM     24  C   UNL     1       5.270  -6.137  24.648  0.00  0.00    +0.234 C 
BRANCH  24  25
ATOM     25  C   UNL     1       4.970  -5.679  23.230  0.00  0.00    +0.041 C 
BRANCH  25  26
ATOM     26  C   UNL     1       6.142  -6.076  22.330  0.00  0.00    +0.003 C 
BRANCH  26  28
ATOM     27  C   UNL     1       6.068  -3.653  21.702  0.00  0.00    +0.004 C 
ATOM     28  C   UNL     1       6.954  -4.879  21.854  0.00  0.00    -0.003 C 
ENDBRANCH  26  28
ENDBRANCH  25  26
ENDBRANCH  24  25
ENDBRANCH  23  24
ENDBRANCH   1  23
TORSDOF 8
ENDMDL
MODEL 2
REMARK VINA RESULT:      -6.4      2.648      7.691
REMARK  Name = 
REMARK  10 active torsions:
REMARK  status: ('A' for Active; 'I' for Inactive)
REMARK    1  A    between atoms: C_1  and  C_2
REMARK    2  A    between atoms: C_2  and  C_3
REMARK    3  A    between atoms: C_3  and  C_4
REMARK    4  A    between atoms: C_4  and  C_5
REMARK    5  A    between atoms: C_5  and  O_6
REMARK    6  A    between atoms: O_6  and  C_7
REMARK    7  A    between atoms: N_14  and  C_18
REMARK    8  A    between atoms: C_21  and  C_23
REMARK    9  A    between atoms: C_24  and  O_26
REMARK   10  A    between atoms: C_27  and  O_29
REMARK                            x       y       z     vdW  Elec       q    Type
REMARK                         _______ _______ _______ _____ _____    ______ ____
ROOT
ATOM      1  C   UNL     1       8.246   2.623  22.598  0.00  0.00    +0.406 C 
ATOM      2  N   UNL     1       8.712   1.398  22.207  0.00  0.00    -0.233 N 
ATOM      3  H   UNL     1       8.594   1.250  21.214  0.00  0.00    +0.160 HD
ATOM      4  C   UNL     1       8.894   0.278  22.984  0.00  0.00    +0.170 A 
ATOM      5  C   UNL     1       9.197  -0.909  22.169  0.00  0.00    +0.180 A 
ATOM      6  F   UNL     1       9.403  -0.774  20.848  0.00  0.00    -0.200 F 
ATOM      7  C   UNL     1       9.199  -2.067  22.815  0.00  0.00    +0.135 A 
ATOM      8  N   UNL     1       8.945  -2.111  24.181  0.00  0.00    -0.267 N 
ATOM      9  C   UNL     1       8.887  -0.921  24.940  0.00  0.00    +0.352 A 
ATOM     10  O   UNL     1       8.923  -0.953  26.162  0.00  0.00    -0.244 OA
ATOM     11  N   UNL     1       8.752   0.263  24.261  0.00  0.00    -0.175 NA
ATOM     12  O   UNL     1       7.519   3.277  21.859  0.00  0.00    -0.226 OA
ENDROOT
BRANCH   8  13
ATOM     13  C   UNL     1       9.050  -3.373  24.921  0.00  0.00    +0.255 C 
ATOM     14  C   UNL     1       7.896  -3.722  25.890  0.00  0.00    +0.195 C 
ATOM     15  C   UNL     1       7.046  -4.742  25.139  0.00  0.00    +0.176 C 
ATOM     16  C   UNL     1       7.887  -5.169  23.944  0.00  0.00    +0.149 C 
ATOM     17  C   UNL     1       7.185  -4.856  22.625  0.00  0.00    +0.041 C 
ATOM     18  O   UNL     1       9.149  -4.485  24.007  0.00  0.00    -0.348 OA
BRANCH  14  19
ATOM     19  O   UNL     1       8.377  -4.334  27.107  0.00  0.00    -0.385 OA
ATOM     20  H   UNL     1       8.381  -3.670  27.817  0.00  0.00    +0.210 HD
ENDBRANCH  14  19
BRANCH  15  21
ATOM     21  O   UNL     1       6.736  -5.893  25.932  0.00  0.00    -0.387 OA
ATOM     22  H   UNL     1       6.783  -5.606  26.865  0.00  0.00    +0.210 HD
ENDBRANCH  15  21
ENDBRANCH   8  13
BRANCH   1  23
ATOM     23  O   UNL     1       8.769   3.060  23.767  0.00  0.00    -0.450 OA
BRANCH  23  24
ATOM     24  C   UNL     1       9.984   3.787  23.585  0.00  0.00    +0.234 C 
BRANCH  24  25
ATOM     25  C   UNL     1       9.906   5.211  24.113  0.00  0.00    +0.041 C 
BRANCH  25  26
ATOM     26  C   UNL     1      11.200   5.939  23.748  0.00  0.00    +0.003 C 
BRANCH  26  28
ATOM     27  C   UNL     1      13.196   5.607  22.271  0.00  0.00    +0.004 C 
ATOM     28  C   UNL     1      12.323   4.989  23.353  0.00  0.00    -0.003 C 
ENDBRANCH  26  28
ENDBRANCH  25  26
ENDBRANCH  24  25
ENDBRANCH  23  24
ENDBRANCH   1  23
TORSDOF 8
ENDMDL
MODEL 3
REMARK VINA RESULT:      -6.3      2.313      7.341
REMARK  Name = 
REMARK  10 active torsions:
REMARK  status: ('A' for Active; 'I' for Inactive)
REMARK    1  A    between atoms: C_1  and  C_2
REMARK    2  A    between atoms: C_2  and  C_3
REMARK    3  A    between atoms: C_3  and  C_4
REMARK    4  A    between atoms: C_4  and  C_5
REMARK    5  A    between atoms: C_5  and  O_6
REMARK    6  A    between atoms: O_6  and  C_7
REMARK    7  A    between atoms: N_14  and  C_18
REMARK    8  A    between atoms: C_21  and  C_23
REMARK    9  A    between atoms: C_24  and  O_26
REMARK   10  A    between atoms: C_27  and  O_29
REMARK                            x       y       z     vdW  Elec       q    Type
REMARK                         _______ _______ _______ _____ _____    ______ ____
ROOT
ATOM      1  C   UNL     1       9.718  -1.839  22.709  0.00  0.00    +0.406 C 
ATOM      2  N   UNL     1       9.232  -2.646  23.700  0.00  0.00    -0.233 N 
ATOM      3  H   UNL     1       9.976  -3.078  24.231  0.00  0.00    +0.160 HD
ATOM      4  C   UNL     1       7.993  -3.237  23.774  0.00  0.00    +0.170 A 
ATOM      5  C   UNL     1       7.917  -4.211  24.873  0.00  0.00    +0.180 A 
ATOM      6  F   UNL     1       8.941  -4.321  25.737  0.00  0.00    -0.200 F 
ATOM      7  C   UNL     1       6.826  -4.965  24.901  0.00  0.00    +0.135 A 
ATOM      8  N   UNL     1       5.831  -4.800  23.945  0.00  0.00    -0.267 N 
ATOM      9  C   UNL     1       5.863  -3.700  23.059  0.00  0.00    +0.352 A 
ATOM     10  O   UNL     1       4.879  -3.399  22.396  0.00  0.00    -0.244 OA
ATOM     11  N   UNL     1       7.041  -3.007  22.942  0.00  0.00    -0.175 NA
ATOM     12  O   UNL     1      10.893  -1.911  22.367  0.00  0.00    -0.226 OA
ENDROOT
BRANCH   8  13
ATOM     13  C   UNL     1       4.577  -5.554  24.032  0.00  0.00    +0.255 C 
ATOM     14  C   UNL     1       4.621  -6.919  24.758  0.00  0.00    +0.195 C 
ATOM     15  C   UNL     1       4.043  -6.648  26.144  0.00  0.00    +0.176 C 
ATOM     16  C   UNL     1       3.411  -5.266  26.055  0.00  0.00    +0.149 C 
ATOM     17  C   UNL     1       4.048  -4.296  27.047  0.00  0.00    +0.041 C 
ATOM     18  O   UNL     1       3.570  -4.777  24.713  0.00  0.00    -0.348 OA
BRANCH  14  19
ATOM     19  O   UNL     1       3.797  -7.908  24.103  0.00  0.00    -0.385 OA
ATOM     20  H   UNL     1       2.970  -8.015  24.602  0.00  0.00    +0.210 HD
ENDBRANCH  14  19
BRANCH  15  21
ATOM     21  O   UNL     1       3.042  -7.600  26.519  0.00  0.00    -0.387 OA
ATOM     22  H   UNL     1       2.287  -7.085  26.865  0.00  0.00    +0.210 HD
ENDBRANCH  15  21
ENDBRANCH   8  13
BRANCH   1  23
ATOM     23  O   UNL     1       8.835  -0.908  22.279  0.00  0.00    -0.450 OA
BRANCH  23  24
ATOM     24  C   UNL     1       9.410  -0.002  21.338  0.00  0.00    +0.234 C 
BRANCH  24  25
ATOM     25  C   UNL     1       9.848   1.310  21.971  0.00  0.00    +0.041 C 
BRANCH  25  26
ATOM     26  C   UNL     1       8.868   1.663  23.091  0.00  0.00    +0.003 C 
BRANCH  26  28
ATOM     27  C   UNL     1      10.921   1.090  24.405  0.00  0.00    +0.004 C 
ATOM     28  C   UNL     1       9.524   1.687  24.465  0.00  0.00    -0.003 C 
ENDBRANCH  26  28
ENDBRANCH  25  26
ENDBRANCH  24  25
ENDBRANCH  23  24
ENDBRANCH   1  23
TORSDOF 8
ENDMDL
MODEL 4
REMARK VINA RESULT:      -6.2      2.207      7.374
REMARK  Name = 
REMARK  10 active torsions:
REMARK  status: ('A' for Active; 'I' for Inactive)
REMARK    1  A    between atoms: C_1  and  C_2
REMARK    2  A    between atoms: C_2  and  C_3
REMARK    3  A    between atoms: C_3  and  C_4
REMARK    4  A    between atoms: C_4  and  C_5
REMARK    5  A    between atoms: C_5  and  O_6
REMARK    6  A    between atoms: O_6  and  C_7
REMARK    7  A    between atoms: N_14  and  C_18
REMARK    8  A    between atoms: C_21  and  C_23
REMARK    9  A    between atoms: C_24  and  O_26
REMARK   10  A    between atoms: C_27  and  O_29
REMARK                            x       y       z     vdW  Elec       q    Type
REMARK                         _______ _______ _______ _____ _____    ______ ____
ROOT
ATOM      1  C   UNL     1       9.721  -1.662  23.790  0.00  0.00    +0.406 C 
ATOM      2  N   UNL     1       9.311  -2.939  24.054  0.00  0.00    -0.233 N 
ATOM      3  H   UNL     1       9.996  -3.622  23.762  0.00  0.00    +0.160 HD
ATOM      4  C   UNL     1       8.025  -3.391  24.238  0.00  0.00    +0.170 A 
ATOM      5  C   UNL     1       7.962  -4.860  24.279  0.00  0.00    +0.180 A 
ATOM      6  F   UNL     1       9.100  -5.575  24.282  0.00  0.00    -0.200 F 
ATOM      7  C   UNL     1       6.745  -5.386  24.262  0.00  0.00    +0.135 A 
ATOM      8  N   UNL     1       5.624  -4.565  24.228  0.00  0.00    -0.267 N 
ATOM      9  C   UNL     1       5.748  -3.171  24.419  0.00  0.00    +0.352 A 
ATOM     10  O   UNL     1       4.766  -2.478  24.648  0.00  0.00    -0.244 OA
ATOM     11  N   UNL     1       6.999  -2.619  24.304  0.00  0.00    -0.175 NA
ATOM     12  O   UNL     1      10.658  -1.454  23.027  0.00  0.00    -0.226 OA
ENDROOT
BRANCH   8  13
ATOM     13  C   UNL     1       4.276  -5.135  24.316  0.00  0.00    +0.255 C 
ATOM     14  C   UNL     1       4.095  -6.599  23.849  0.00  0.00    +0.195 C 
ATOM     15  C   UNL     1       4.052  -7.421  25.133  0.00  0.00    +0.176 C 
ATOM     16  C   UNL     1       3.888  -6.407  26.257  0.00  0.00    +0.149 C 
ATOM     17  C   UNL     1       5.052  -6.472  27.243  0.00  0.00    +0.041 C 
ATOM     18  O   UNL     1       3.802  -5.095  25.678  0.00  0.00    -0.348 OA
BRANCH  14  19
ATOM     19  O   UNL     1       2.851  -6.790  23.140  0.00  0.00    -0.385 OA
ATOM     20  H   UNL     1       2.134  -6.356  23.632  0.00  0.00    +0.210 HD
ENDBRANCH  14  19
BRANCH  15  21
ATOM     21  O   UNL     1       2.954  -8.339  25.163  0.00  0.00    -0.387 OA
ATOM     22  H   UNL     1       2.860  -8.626  26.093  0.00  0.00    +0.210 HD
ENDBRANCH  15  21
ENDBRANCH   8  13
BRANCH   1  23
ATOM     23  O   UNL     1       9.099  -0.721  24.538  0.00  0.00    -0.450 OA
BRANCH  23  24
ATOM     24  C   UNL     1       9.977   0.333  24.931  0.00  0.00    +0.234 C 
BRANCH  24  25
ATOM     25  C   UNL     1       9.489   1.704  24.487  0.00  0.00    +0.041 C 
BRANCH  25  26
ATOM     26  C   UNL     1      10.429   2.229  23.401  0.00  0.00    +0.003 C 
BRANCH  26  28
ATOM     27  C   UNL     1       8.526   1.853  21.816  0.00  0.00    +0.004 C 
ATOM     28  C   UNL     1      10.033   1.770  22.004  0.00  0.00    -0.003 C 
ENDBRANCH  26  28
ENDBRANCH  25  26
ENDBRANCH  24  25
ENDBRANCH  23  24
ENDBRANCH   1  23
TORSDOF 8
ENDMDL
MODEL 5
REMARK VINA RESULT:      -6.2      2.353      7.238
REMARK  Name = 
REMARK  10 active torsions:
REMARK  status: ('A' for Active; 'I' for Inactive)
REMARK    1  A    between atoms: C_1  and  C_2
REMARK    2  A    between atoms: C_2  and  C_3
REMARK    3  A    between atoms: C_3  and  C_4
REMARK    4  A    between atoms: C_4  and  C_5
REMARK    5  A    between atoms: C_5  and  O_6
REMARK    6  A    between atoms: O_6  and  C_7
REMARK    7  A    between atoms: N_14  and  C_18
REMARK    8  A    between atoms: C_21  and  C_23
REMARK    9  A    between atoms: C_24  and  O_26
REMARK   10  A    between atoms: C_27  and  O_29
REMARK                            x       y       z     vdW  Elec       q    Type
REMARK                         _______ _______ _______ _____ _____    ______ ____
ROOT
ATOM      1  C   UNL     1       6.465   1.415  23.607  0.00  0.00    +0.406 C 
ATOM      2  N   UNL     1       5.795   0.507  24.377  0.00  0.00    -0.233 N 
ATOM      3  H   UNL     1       5.249   0.957  25.099  0.00  0.00    +0.160 HD
ATOM      4  C   UNL     1       6.090  -0.824  24.562  0.00  0.00    +0.170 A 
ATOM      5  C   UNL     1       5.277  -1.420  25.634  0.00  0.00    +0.180 A 
ATOM      6  F   UNL     1       4.287  -0.705  26.195  0.00  0.00    -0.200 F 
ATOM      7  C   UNL     1       5.626  -2.643  26.009  0.00  0.00    +0.135 A 
ATOM      8  N   UNL     1       6.686  -3.294  25.390  0.00  0.00    -0.267 N 
ATOM      9  C   UNL     1       7.274  -2.759  24.222  0.00  0.00    +0.352 A 
ATOM     10  O   UNL     1       8.020  -3.435  23.527  0.00  0.00    -0.244 OA
ATOM     11  N   UNL     1       7.009  -1.448  23.916  0.00  0.00    -0.175 NA
ATOM     12  O   UNL     1       6.591   2.576  23.979  0.00  0.00    -0.226 OA
ENDROOT
BRANCH   8  13
ATOM     13  C   UNL     1       7.009  -4.685  25.724  0.00  0.00    +0.255 C 
ATOM     14  C   UNL     1       6.640  -5.174  27.145  0.00  0.00    +0.195 C 
ATOM     15  C   UNL     1       5.355  -5.977  26.964  0.00  0.00    +0.176 C 
ATOM     16  C   UNL     1       5.217  -6.186  25.463  0.00  0.00    +0.149 C 
ATOM     17  C   UNL     1       3.923  -5.576  24.931  0.00  0.00    +0.041 C 
ATOM     18  O   UNL     1       6.350  -5.588  24.813  0.00  0.00    -0.348 OA
BRANCH  14  19
ATOM     19  O   UNL     1       7.651  -6.045  27.697  0.00  0.00    -0.385 OA
ATOM     20  H   UNL     1       7.950  -6.663  27.009  0.00  0.00    +0.210 HD
ENDBRANCH  14  19
BRANCH  15  21
ATOM     21  O   UNL     1       5.406  -7.251  27.614  0.00  0.00    -0.387 OA
ATOM     22  H   UNL     1       6.344  -7.527  27.609  0.00  0.00    +0.210 HD
ENDBRANCH  15  21
ENDBRANCH   8  13
BRANCH   1  23
ATOM     23  O   UNL     1       6.826   0.941  22.391  0.00  0.00    -0.450 OA
BRANCH  23  24
ATOM     24  C   UNL     1       7.817   1.752  21.760  0.00  0.00    +0.234 C 
BRANCH  24  25
ATOM     25  C   UNL     1       9.176   1.075  21.686  0.00  0.00    +0.041 C 
BRANCH  25  26
ATOM     26  C   UNL     1      10.224   2.016  22.281  0.00  0.00    +0.003 C 
BRANCH  26  28
ATOM     27  C   UNL     1      10.451   0.693  24.395  0.00  0.00    +0.004 C 
ATOM     28  C   UNL     1      10.179   2.067  23.803  0.00  0.00    -0.003 C 
ENDBRANCH  26  28
ENDBRANCH  25  26
ENDBRANCH  24  25
ENDBRANCH  23  24
ENDBRANCH   1  23
TORSDOF 8
ENDMDL
MODEL 6
REMARK VINA RESULT:      -6.2      2.099      7.113
REMARK  Name = 
REMARK  10 active torsions:
REMARK  status: ('A' for Active; 'I' for Inactive)
REMARK    1  A    between atoms: C_1  and  C_2
REMARK    2  A    between atoms: C_2  and  C_3
REMARK    3  A    between atoms: C_3  and  C_4
REMARK    4  A    between atoms: C_4  and  C_5
REMARK    5  A    between atoms: C_5  and  O_6
REMARK    6  A    between atoms: O_6  and  C_7
REMARK    7  A    between atoms: N_14  and  C_18
REMARK    8  A    between atoms: C_21  and  C_23
REMARK    9  A    between atoms: C_24  and  O_26
REMARK   10  A    between atoms: C_27  and  O_29
REMARK                            x       y       z     vdW  Elec       q    Type
REMARK                         _______ _______ _______ _____ _____    ______ ____
ROOT
ATOM      1  C   UNL     1       6.790   1.636  22.783  0.00  0.00    +0.406 C 
ATOM      2  N   UNL     1       7.537   0.535  22.471  0.00  0.00    -0.233 N 
ATOM      3  H   UNL     1       7.941   0.604  21.547  0.00  0.00    +0.160 HD
ATOM      4  C   UNL     1       7.450  -0.725  23.017  0.00  0.00    +0.170 A 
ATOM      5  C   UNL     1       8.261  -1.700  22.272  0.00  0.00    +0.180 A 
ATOM      6  F   UNL     1       9.071  -1.278  21.286  0.00  0.00    -0.200 F 
ATOM      7  C   UNL     1       8.088  -2.971  22.610  0.00  0.00    +0.135 A 
ATOM      8  N   UNL     1       7.203  -3.316  23.624  0.00  0.00    -0.267 N 
ATOM      9  C   UNL     1       6.632  -2.320  24.448  0.00  0.00    +0.352 A 
ATOM     10  O   UNL     1       6.066  -2.617  25.491  0.00  0.00    -0.244 OA
ATOM     11  N   UNL     1       6.702  -1.019  24.020  0.00  0.00    -0.175 NA
ATOM     12  O   UNL     1       6.446   2.424  21.908  0.00  0.00    -0.226 OA
ENDROOT
BRANCH   8  13
ATOM     13  C   UNL     1       7.087  -4.706  24.076  0.00  0.00    +0.255 C 
ATOM     14  C   UNL     1       5.675  -5.209  24.458  0.00  0.00    +0.195 C 
ATOM     15  C   UNL     1       5.207  -6.022  23.255  0.00  0.00    +0.176 C 
ATOM     16  C   UNL     1       6.446  -6.221  22.394  0.00  0.00    +0.149 C 
ATOM     17  C   UNL     1       6.263  -5.618  21.003  0.00  0.00    +0.041 C 
ATOM     18  O   UNL     1       7.565  -5.607  23.056  0.00  0.00    -0.348 OA
BRANCH  14  19
ATOM     19  O   UNL     1       5.704  -6.076  25.614  0.00  0.00    -0.385 OA
ATOM     20  H   UNL     1       6.012  -5.569  26.384  0.00  0.00    +0.210 HD
ENDBRANCH  14  19
BRANCH  15  21
ATOM     21  O   UNL     1       4.681  -7.301  23.625  0.00  0.00    -0.387 OA
ATOM     22  H   UNL     1       4.070  -7.566  22.909  0.00  0.00    +0.210 HD
ENDBRANCH  15  21
ENDBRANCH   8  13
BRANCH   1  23
ATOM     23  O   UNL     1       6.612   1.818  24.112  0.00  0.00    -0.450 OA
BRANCH  23  24
ATOM     24  C   UNL     1       7.134   3.065  24.569  0.00  0.00    +0.234 C 
BRANCH  24  25
ATOM     25  C   UNL     1       8.582   2.968  25.025  0.00  0.00    +0.041 C 
BRANCH  25  26
ATOM     26  C   UNL     1       9.472   3.621  23.967  0.00  0.00    +0.003 C 
BRANCH  26  28
ATOM     27  C   UNL     1      10.568   1.383  24.214  0.00  0.00    +0.004 C 
ATOM     28  C   UNL     1      10.517   2.668  23.403  0.00  0.00    -0.003 C 
ENDBRANCH  26  28
ENDBRANCH  25  26
ENDBRANCH  24  25
ENDBRANCH  23  24
ENDBRANCH   1  23
TORSDOF 8
ENDMDL
MODEL 7
REMARK VINA RESULT:      -6.0      2.277      7.083
REMARK  Name = 
REMARK  10 active torsions:
REMARK  status: ('A' for Active; 'I' for Inactive)
REMARK    1  A    between atoms: C_1  and  C_2
REMARK    2  A    between atoms: C_2  and  C_3
REMARK    3  A    between atoms: C_3  and  C_4
REMARK    4  A    between atoms: C_4  and  C_5
REMARK    5  A    between atoms: C_5  and  O_6
REMARK    6  A    between atoms: O_6  and  C_7
REMARK    7  A    between atoms: N_14  and  C_18
REMARK    8  A    between atoms: C_21  and  C_23
REMARK    9  A    between atoms: C_24  and  O_26
REMARK   10  A    between atoms: C_27  and  O_29
REMARK                            x       y       z     vdW  Elec       q    Type
REMARK                         _______ _______ _______ _____ _____    ______ ____
ROOT
ATOM      1  C   UNL     1      10.236   1.400  23.825  0.00  0.00    +0.406 C 
ATOM      2  N   UNL     1       9.448   0.786  24.757  0.00  0.00    -0.233 N 
ATOM      3  H   UNL     1       9.366   1.336  25.601  0.00  0.00    +0.160 HD
ATOM      4  C   UNL     1       9.147  -0.552  24.858  0.00  0.00    +0.170 A 
ATOM      5  C   UNL     1       8.454  -0.864  26.118  0.00  0.00    +0.180 A 
ATOM      6  F   UNL     1       8.071   0.135  26.931  0.00  0.00    -0.200 F 
ATOM      7  C   UNL     1       8.297  -2.153  26.385  0.00  0.00    +0.135 A 
ATOM      8  N   UNL     1       8.754  -3.118  25.496  0.00  0.00    -0.267 N 
ATOM      9  C   UNL     1       9.203  -2.752  24.207  0.00  0.00    +0.352 A 
ATOM     10  O   UNL     1       9.361  -3.594  23.334  0.00  0.00    -0.244 OA
ATOM     11  N   UNL     1       9.489  -1.429  23.982  0.00  0.00    -0.175 NA
ATOM     12  O   UNL     1      10.961   2.337  24.141  0.00  0.00    -0.226 OA
ENDROOT
BRANCH   8  13
ATOM     13  C   UNL     1       8.488  -4.540  25.733  0.00  0.00    +0.255 C 
ATOM     14  C   UNL     1       7.556  -4.898  26.915  0.00  0.00    +0.195 C 
ATOM     15  C   UNL     1       6.206  -5.204  26.274  0.00  0.00    +0.176 C 
ATOM     16  C   UNL     1       6.483  -5.323  24.782  0.00  0.00    +0.149 C 
ATOM     17  C   UNL     1       5.691  -4.293  23.982  0.00  0.00    +0.041 C 
ATOM     18  O   UNL     1       7.892  -5.142  24.565  0.00  0.00    -0.348 OA
BRANCH  14  19
ATOM     19  O   UNL     1       8.006  -6.076  27.621  0.00  0.00    -0.385 OA
ATOM     20  H   UNL     1       8.971  -6.032  27.731  0.00  0.00    +0.210 HD
ENDBRANCH  14  19
BRANCH  15  21
ATOM     21  O   UNL     1       5.636  -6.429  26.747  0.00  0.00    -0.387 OA
ATOM     22  H   UNL     1       6.162  -6.695  27.527  0.00  0.00    +0.210 HD
ENDBRANCH  15  21
ENDBRANCH   8  13
BRANCH   1  23
ATOM     23  O   UNL     1      10.024   0.970  22.559  0.00  0.00    -0.450 OA
BRANCH  23  24
ATOM     24  C   UNL     1       9.233   1.881  21.797  0.00  0.00    +0.234 C 
BRANCH  24  25
ATOM     25  C   UNL     1       7.744   1.581  21.874  0.00  0.00    +0.041 C 
BRANCH  25  26
ATOM     26  C   UNL     1       6.981   2.905  21.936  0.00  0.00    +0.003 C 
BRANCH  26  28
ATOM     27  C   UNL     1       7.326   5.368  22.230  0.00  0.00    +0.004 C 
ATOM     28  C   UNL     1       7.727   3.982  22.712  0.00  0.00    -0.003 C 
ENDBRANCH  26  28
ENDBRANCH  25  26
ENDBRANCH  24  25
ENDBRANCH  23  24
ENDBRANCH   1  23
TORSDOF 8
ENDMDL
MODEL 8
REMARK VINA RESULT:      -6.0      2.408      7.068
REMARK  Name = 
REMARK  10 active torsions:
REMARK  status: ('A' for Active; 'I' for Inactive)
REMARK    1  A    between atoms: C_1  and  C_2
REMARK    2  A    between atoms: C_2  and  C_3
REMARK    3  A    between atoms: C_3  and  C_4
REMARK    4  A    between atoms: C_4  and  C_5
REMARK    5  A    between atoms: C_5  and  O_6
REMARK    6  A    between atoms: O_6  and  C_7
REMARK    7  A    between atoms: N_14  and  C_18
REMARK    8  A    between atoms: C_21  and  C_23
REMARK    9  A    between atoms: C_24  and  O_26
REMARK   10  A    between atoms: C_27  and  O_29
REMARK                            x       y       z     vdW  Elec       q    Type
REMARK                         _______ _______ _______ _____ _____    ______ ____
ROOT
ATOM      1  C   UNL     1      10.133   2.064  23.553  0.00  0.00    +0.406 C 
ATOM      2  N   UNL     1      10.257   0.734  23.262  0.00  0.00    -0.233 N 
ATOM      3  H   UNL     1      11.081   0.546  22.707  0.00  0.00    +0.160 HD
ATOM      4  C   UNL     1       9.268  -0.222  23.246  0.00  0.00    +0.170 A 
ATOM      5  C   UNL     1       9.743  -1.489  22.669  0.00  0.00    +0.180 A 
ATOM      6  F   UNL     1      11.044  -1.637  22.368  0.00  0.00    -0.200 F 
ATOM      7  C   UNL     1       8.809  -2.403  22.440  0.00  0.00    +0.135 A 
ATOM      8  N   UNL     1       7.481  -2.148  22.758  0.00  0.00    -0.267 N 
ATOM      9  C   UNL     1       7.130  -1.007  23.514  0.00  0.00    +0.352 A 
ATOM     10  O   UNL     1       6.019  -0.904  24.017  0.00  0.00    -0.244 OA
ATOM     11  N   UNL     1       8.062  -0.008  23.634  0.00  0.00    -0.175 NA
ATOM     12  O   UNL     1      10.790   2.900  22.943  0.00  0.00    -0.226 OA
ENDROOT
BRANCH   8  13
ATOM     13  C   UNL     1       6.461  -3.190  22.606  0.00  0.00    +0.255 C 
ATOM     14  C   UNL     1       6.772  -4.346  21.626  0.00  0.00    +0.195 C 
ATOM     15  C   UNL     1       7.203  -5.511  22.512  0.00  0.00    +0.176 C 
ATOM     16  C   UNL     1       6.827  -5.101  23.929  0.00  0.00    +0.149 C 
ATOM     17  C   UNL     1       8.051  -5.045  24.839  0.00  0.00    +0.041 C 
ATOM     18  O   UNL     1       6.189  -3.815  23.878  0.00  0.00    -0.348 OA
BRANCH  14  19
ATOM     19  O   UNL     1       5.604  -4.748  20.876  0.00  0.00    -0.385 OA
ATOM     20  H   UNL     1       4.812  -4.377  21.298  0.00  0.00    +0.210 HD
ENDBRANCH  14  19
BRANCH  15  21
ATOM     21  O   UNL     1       6.534  -6.732  22.182  0.00  0.00    -0.387 OA
ATOM     22  H   UNL     1       7.137  -7.227  21.592  0.00  0.00    +0.210 HD
ENDBRANCH  15  21
ENDBRANCH   8  13
BRANCH   1  23
ATOM     23  O   UNL     1       9.353   2.318  24.630  0.00  0.00    -0.450 OA
BRANCH  23  24
ATOM     24  C   UNL     1       8.904   3.672  24.673  0.00  0.00    +0.234 C 
BRANCH  24  25
ATOM     25  C   UNL     1       7.394   3.791  24.804  0.00  0.00    +0.041 C 
BRANCH  25  26
ATOM     26  C   UNL     1       6.758   3.436  23.460  0.00  0.00    +0.003 C 
BRANCH  26  28
ATOM     27  C   UNL     1       6.941   5.649  22.302  0.00  0.00    +0.004 C 
ATOM     28  C   UNL     1       7.378   4.192  22.293  0.00  0.00    -0.003 C 
ENDBRANCH  26  28
ENDBRANCH  25  26
ENDBRANCH  24  25
ENDBRANCH  23  24
ENDBRANCH   1  23
TORSDOF 8
ENDMDL
MODEL 9
REMARK VINA RESULT:      -5.9      3.084      7.784
REMARK  Name = 
REMARK  10 active torsions:
REMARK  status: ('A' for Active; 'I' for Inactive)
REMARK    1  A    between atoms: C_1  and  C_2
REMARK    2  A    between atoms: C_2  and  C_3
REMARK    3  A    between atoms: C_3  and  C_4
REMARK    4  A    between atoms: C_4  and  C_5
REMARK    5  A    between atoms: C_5  and  O_6
REMARK    6  A    between atoms: O_6  and  C_7
REMARK    7  A    between atoms: N_14  and  C_18
REMARK    8  A    between atoms: C_21  and  C_23
REMARK    9  A    between atoms: C_24  and  O_26
REMARK   10  A    between atoms: C_27  and  O_29
REMARK                            x       y       z     vdW  Elec       q    Type
REMARK                         _______ _______ _______ _____ _____    ______ ____
ROOT
ATOM      1  C   UNL     1       8.205   3.960  25.611  0.00  0.00    +0.406 C 
ATOM      2  N   UNL     1       7.568   2.753  25.537  0.00  0.00    -0.233 N 
ATOM      3  H   UNL     1       6.869   2.652  26.260  0.00  0.00    +0.160 HD
ATOM      4  C   UNL     1       8.020   1.597  24.945  0.00  0.00    +0.170 A 
ATOM      5  C   UNL     1       7.158   0.447  25.263  0.00  0.00    +0.180 A 
ATOM      6  F   UNL     1       6.009   0.642  25.932  0.00  0.00    -0.200 F 
ATOM      7  C   UNL     1       7.621  -0.739  24.894  0.00  0.00    +0.135 A 
ATOM      8  N   UNL     1       8.838  -0.846  24.232  0.00  0.00    -0.267 N 
ATOM      9  C   UNL     1       9.501   0.308  23.758  0.00  0.00    +0.352 A 
ATOM     10  O   UNL     1      10.425   0.219  22.961  0.00  0.00    -0.244 OA
ATOM     11  N   UNL     1       9.098   1.524  24.250  0.00  0.00    -0.175 NA
ATOM     12  O   UNL     1       8.112   4.653  26.619  0.00  0.00    -0.226 OA
ENDROOT
BRANCH   8  13
ATOM     13  C   UNL     1       9.304  -2.141  23.726  0.00  0.00    +0.255 C 
ATOM     14  C   UNL     1       8.982  -3.391  24.579  0.00  0.00    +0.195 C 
ATOM     15  C   UNL     1       7.790  -4.044  23.887  0.00  0.00    +0.176 C 
ATOM     16  C   UNL     1       7.681  -3.356  22.533  0.00  0.00    +0.149 C 
ATOM     17  C   UNL     1       6.332  -2.661  22.366  0.00  0.00    +0.041 C 
ATOM     18  O   UNL     1       8.748  -2.400  22.420  0.00  0.00    -0.348 OA
BRANCH  14  19
ATOM     19  O   UNL     1      10.077  -4.333  24.594  0.00  0.00    -0.385 OA
ATOM     20  H   UNL     1       9.874  -5.047  25.221  0.00  0.00    +0.210 HD
ENDBRANCH  14  19
BRANCH  15  21
ATOM     21  O   UNL     1       7.972  -5.450  23.687  0.00  0.00    -0.387 OA
ATOM     22  H   UNL     1       8.586  -5.751  24.386  0.00  0.00    +0.210 HD
ENDBRANCH  15  21
ENDBRANCH   8  13
BRANCH   1  23
ATOM     23  O   UNL     1       8.794   4.340  24.454  0.00  0.00    -0.450 OA
BRANCH  23  24
ATOM     24  C   UNL     1       9.136   5.726  24.443  0.00  0.00    +0.234 C 
BRANCH  24  25
ATOM     25  C   UNL     1      10.197   6.065  23.408  0.00  0.00    +0.041 C 
BRANCH  25  26
ATOM     26  C   UNL     1      11.573   5.967  24.068  0.00  0.00    +0.003 C 
BRANCH  26  28
ATOM     27  C   UNL     1      13.175   5.657  22.169  0.00  0.00    +0.004 C 
ATOM     28  C   UNL     1      12.502   4.991  23.359  0.00  0.00    -0.003 C 
ENDBRANCH  26  28
ENDBRANCH  25  26
ENDBRANCH  24  25
ENDBRANCH  23  24
ENDBRANCH   1  23
TORSDOF 8
ENDMDL
