MODEL 1
REMARK VINA RESULT:      -6.0      0.000      0.000
REMARK  Name = 
REMARK  9 active torsions:
REMARK  status: ('A' for Active; 'I' for Inactive)
REMARK    1  A    between atoms: C_1  and  C_2
REMARK    2  A    between atoms: C_2  and  N_3
REMARK    3  A    between atoms: N_3  and  C_4
REMARK    4  A    between atoms: N_3  and  C_6
REMARK    5  A    between atoms: C_4  and  C_5
REMARK    6  A    between atoms: C_6  and  C_7
REMARK    7  A    between atoms: C_7  and  N_8
REMARK    8  A    between atoms: N_8  and  C_9
REMARK    9  A    between atoms: C_21  and  C_22
REMARK                            x       y       z     vdW  Elec       q    Type
REMARK                         _______ _______ _______ _____ _____    ______ ____
ROOT
ATOM      1  C   UNL     1       7.648  -4.717  24.876  0.00  0.00    +0.039 A 
ATOM      2  C   UNL     1       6.588  -5.319  25.566  0.00  0.00    +0.024 A 
ATOM      3  C   UNL     1       5.831  -4.626  26.500  0.00  0.00    +0.006 A 
ATOM      4  C   UNL     1       6.088  -3.283  26.773  0.00  0.00    -0.036 A 
ATOM      5  C   UNL     1       5.171  -2.642  27.784  0.00  0.00    +0.045 C 
ATOM      6  C   UNL     1       7.183  -2.646  26.138  0.00  0.00    +0.028 A 
ATOM      7  S   UNL     1       7.525  -0.952  26.593  0.00  0.00    -0.088 S 
ATOM      8  C   UNL     1       8.598  -0.382  25.317  0.00  0.00    +0.024 A 
ATOM      9  C   UNL     1       9.306  -1.243  24.482  0.00  0.00    +0.036 A 
ATOM     10  C   UNL     1      10.216  -0.699  23.553  0.00  0.00    +0.013 A 
ATOM     11  C   UNL     1      10.411   0.677  23.460  0.00  0.00    +0.001 A 
ATOM     12  C   UNL     1       9.696   1.536  24.292  0.00  0.00    +0.001 A 
ATOM     13  C   UNL     1       9.174  -2.718  24.580  0.00  0.00    +0.197 A 
ATOM     14  O   UNL     1      10.104  -3.399  24.151  0.00  0.00    -0.287 OA
ATOM     15  C   UNL     1       8.796   1.008  25.214  0.00  0.00    +0.016 A 
ATOM     16  C   UNL     1       7.977  -3.367  25.211  0.00  0.00    +0.057 A 
ENDROOT
BRANCH   1  17
ATOM     17  N   UNL     1       8.309  -5.431  23.865  0.00  0.00    -0.342 N 
ATOM     18  H   UNL     1       9.078  -6.015  24.210  0.00  0.00    +0.146 HD
BRANCH  17  19
ATOM     19  C   UNL     1       7.603  -5.917  22.682  0.00  0.00    +0.117 C 
BRANCH  19  20
ATOM     20  C   UNL     1       6.953  -4.795  21.841  0.00  0.00    +0.103 C 
BRANCH  20  21
ATOM     21  N   UNL     1       5.488  -4.623  21.980  0.00  0.00    -0.301 NA
BRANCH  21  23
ATOM     22  C   UNL     1       3.516  -5.515  23.274  0.00  0.00    +0.020 C 
ATOM     23  C   UNL     1       4.832  -5.808  22.559  0.00  0.00    +0.081 C 
ENDBRANCH  21  23
BRANCH  21  24
ATOM     24  C   UNL     1       5.170  -3.363  22.679  0.00  0.00    +0.081 C 
ATOM     25  C   UNL     1       6.173  -2.220  22.523  0.00  0.00    +0.020 C 
ENDBRANCH  21  24
ENDBRANCH  20  21
ENDBRANCH  19  20
ENDBRANCH  17  19
ENDBRANCH   1  17
TORSDOF 6
ENDMDL
MODEL 2
REMARK VINA RESULT:      -5.7      2.974      4.863
REMARK  Name = 
REMARK  9 active torsions:
REMARK  status: ('A' for Active; 'I' for Inactive)
REMARK    1  A    between atoms: C_1  and  C_2
REMARK    2  A    between atoms: C_2  and  N_3
REMARK    3  A    between atoms: N_3  and  C_4
REMARK    4  A    between atoms: N_3  and  C_6
REMARK    5  A    between atoms: C_4  and  C_5
REMARK    6  A    between atoms: C_6  and  C_7
REMARK    7  A    between atoms: C_7  and  N_8
REMARK    8  A    between atoms: N_8  and  C_9
REMARK    9  A    between atoms: C_21  and  C_22
REMARK                            x       y       z     vdW  Elec       q    Type
REMARK                         _______ _______ _______ _____ _____    ______ ____
ROOT
ATOM      1  C   UNL     1       8.394   0.005  23.521  0.00  0.00    +0.039 A 
ATOM      2  C   UNL     1       7.097  -0.507  23.652  0.00  0.00    +0.024 A 
ATOM      3  C   UNL     1       6.039   0.275  24.096  0.00  0.00    +0.006 A 
ATOM      4  C   UNL     1       6.229   1.620  24.411  0.00  0.00    -0.036 A 
ATOM      5  C   UNL     1       4.991   2.361  24.849  0.00  0.00    +0.045 C 
ATOM      6  C   UNL     1       7.534   2.169  24.343  0.00  0.00    +0.028 A 
ATOM      7  S   UNL     1       7.736   3.872  24.847  0.00  0.00    -0.088 S 
ATOM      8  C   UNL     1       9.316   4.314  24.205  0.00  0.00    +0.024 A 
ATOM      9  C   UNL     1      10.273   3.373  23.831  0.00  0.00    +0.036 A 
ATOM     10  C   UNL     1      11.546   3.819  23.421  0.00  0.00    +0.013 A 
ATOM     11  C   UNL     1      11.853   5.177  23.383  0.00  0.00    +0.001 A 
ATOM     12  C   UNL     1      10.892   6.117  23.751  0.00  0.00    +0.001 A 
ATOM     13  C   UNL     1      10.011   1.914  23.907  0.00  0.00    +0.197 A 
ATOM     14  O   UNL     1      10.986   1.169  23.990  0.00  0.00    -0.287 OA
ATOM     15  C   UNL     1       9.632   5.686  24.159  0.00  0.00    +0.016 A 
ATOM     16  C   UNL     1       8.619   1.358  23.924  0.00  0.00    +0.057 A 
ENDROOT
BRANCH   1  17
ATOM     17  N   UNL     1       9.401  -0.798  22.965  0.00  0.00    -0.342 N 
ATOM     18  H   UNL     1      10.348  -0.441  23.127  0.00  0.00    +0.146 HD
BRANCH  17  19
ATOM     19  C   UNL     1       9.259  -2.249  22.869  0.00  0.00    +0.117 C 
BRANCH  19  20
ATOM     20  C   UNL     1       9.719  -3.004  24.137  0.00  0.00    +0.103 C 
BRANCH  20  21
ATOM     21  N   UNL     1       9.200  -4.380  24.316  0.00  0.00    -0.301 NA
BRANCH  21  23
ATOM     22  C   UNL     1       8.312  -4.887  26.622  0.00  0.00    +0.020 C 
ATOM     23  C   UNL     1       9.491  -4.925  25.654  0.00  0.00    +0.081 C 
ENDBRANCH  21  23
BRANCH  21  24
ATOM     24  C   UNL     1       7.776  -4.459  23.937  0.00  0.00    +0.081 C 
ATOM     25  C   UNL     1       7.410  -5.474  22.853  0.00  0.00    +0.020 C 
ENDBRANCH  21  24
ENDBRANCH  20  21
ENDBRANCH  19  20
ENDBRANCH  17  19
ENDBRANCH   1  17
TORSDOF 6
ENDMDL
MODEL 3
REMARK VINA RESULT:      -5.6      1.562      2.124
REMARK  Name = 
REMARK  9 active torsions:
REMARK  status: ('A' for Active; 'I' for Inactive)
REMARK    1  A    between atoms: C_1  and  C_2
REMARK    2  A    between atoms: C_2  and  N_3
REMARK    3  A    between atoms: N_3  and  C_4
REMARK    4  A    between atoms: N_3  and  C_6
REMARK    5  A    between atoms: C_4  and  C_5
REMARK    6  A    between atoms: C_6  and  C_7
REMARK    7  A    between atoms: C_7  and  N_8
REMARK    8  A    between atoms: N_8  and  C_9
REMARK    9  A    between atoms: C_21  and  C_22
REMARK                            x       y       z     vdW  Elec       q    Type
REMARK                         _______ _______ _______ _____ _____    ______ ____
ROOT
ATOM      1  C   UNL     1       8.046  -3.493  25.635  0.00  0.00    +0.039 A 
ATOM      2  C   UNL     1       7.187  -3.877  26.673  0.00  0.00    +0.024 A 
ATOM      3  C   UNL     1       6.268  -2.999  27.230  0.00  0.00    +0.006 A 
ATOM      4  C   UNL     1       6.152  -1.693  26.757  0.00  0.00    -0.036 A 
ATOM      5  C   UNL     1       5.093  -0.855  27.428  0.00  0.00    +0.045 C 
ATOM      6  C   UNL     1       7.035  -1.242  25.744  0.00  0.00    +0.028 A 
ATOM      7  S   UNL     1       6.905   0.467  25.241  0.00  0.00    -0.088 S 
ATOM      8  C   UNL     1       7.787   0.525  23.717  0.00  0.00    +0.024 A 
ATOM      9  C   UNL     1       8.704  -0.452  23.335  0.00  0.00    +0.036 A 
ATOM     10  C   UNL     1       9.436  -0.273  22.143  0.00  0.00    +0.013 A 
ATOM     11  C   UNL     1       9.251   0.856  21.350  0.00  0.00    +0.001 A 
ATOM     12  C   UNL     1       8.328   1.829  21.731  0.00  0.00    +0.001 A 
ATOM     13  C   UNL     1       8.975  -1.646  24.174  0.00  0.00    +0.197 A 
ATOM     14  O   UNL     1      10.056  -2.211  24.019  0.00  0.00    -0.287 OA
ATOM     15  C   UNL     1       7.602   1.662  22.907  0.00  0.00    +0.016 A 
ATOM     16  C   UNL     1       7.997  -2.131  25.202  0.00  0.00    +0.057 A 
ENDROOT
BRANCH   1  17
ATOM     17  N   UNL     1       8.878  -4.450  25.036  0.00  0.00    -0.342 N 
ATOM     18  H   UNL     1       9.647  -4.762  25.639  0.00  0.00    +0.146 HD
BRANCH  17  19
ATOM     19  C   UNL     1       8.359  -5.430  24.085  0.00  0.00    +0.117 C 
BRANCH  19  20
ATOM     20  C   UNL     1       7.448  -4.819  22.997  0.00  0.00    +0.103 C 
BRANCH  20  21
ATOM     21  N   UNL     1       5.989  -5.029  23.156  0.00  0.00    -0.301 NA
BRANCH  21  23
ATOM     22  C   UNL     1       5.815  -2.615  22.448  0.00  0.00    +0.020 C 
ATOM     23  C   UNL     1       5.245  -3.764  23.275  0.00  0.00    +0.081 C 
ENDBRANCH  21  23
BRANCH  21  24
ATOM     24  C   UNL     1       5.471  -5.930  22.108  0.00  0.00    +0.081 C 
ATOM     25  C   UNL     1       6.199  -5.909  20.763  0.00  0.00    +0.020 C 
ENDBRANCH  21  24
ENDBRANCH  20  21
ENDBRANCH  19  20
ENDBRANCH  17  19
ENDBRANCH   1  17
TORSDOF 6
ENDMDL
MODEL 4
REMARK VINA RESULT:      -5.5      2.512      5.649
REMARK  Name = 
REMARK  9 active torsions:
REMARK  status: ('A' for Active; 'I' for Inactive)
REMARK    1  A    between atoms: C_1  and  C_2
REMARK    2  A    between atoms: C_2  and  N_3
REMARK    3  A    between atoms: N_3  and  C_4
REMARK    4  A    between atoms: N_3  and  C_6
REMARK    5  A    between atoms: C_4  and  C_5
REMARK    6  A    between atoms: C_6  and  C_7
REMARK    7  A    between atoms: C_7  and  N_8
REMARK    8  A    between atoms: N_8  and  C_9
REMARK    9  A    between atoms: C_21  and  C_22
REMARK                            x       y       z     vdW  Elec       q    Type
REMARK                         _______ _______ _______ _____ _____    ______ ____
ROOT
ATOM      1  C   UNL     1       8.768  -1.026  24.833  0.00  0.00    +0.039 A 
ATOM      2  C   UNL     1       8.649  -0.265  26.003  0.00  0.00    +0.024 A 
ATOM      3  C   UNL     1       7.524  -0.330  26.811  0.00  0.00    +0.006 A 
ATOM      4  C   UNL     1       6.466  -1.182  26.495  0.00  0.00    -0.036 A 
ATOM      5  C   UNL     1       5.319  -1.179  27.474  0.00  0.00    +0.045 C 
ATOM      6  C   UNL     1       6.517  -1.932  25.294  0.00  0.00    +0.028 A 
ATOM      7  S   UNL     1       5.095  -2.935  24.889  0.00  0.00    -0.088 S 
ATOM      8  C   UNL     1       5.692  -4.027  23.642  0.00  0.00    +0.024 A 
ATOM      9  C   UNL     1       6.847  -3.777  22.905  0.00  0.00    +0.036 A 
ATOM     10  C   UNL     1       7.195  -4.656  21.860  0.00  0.00    +0.013 A 
ATOM     11  C   UNL     1       6.406  -5.765  21.562  0.00  0.00    +0.001 A 
ATOM     12  C   UNL     1       5.255  -6.017  22.305  0.00  0.00    +0.001 A 
ATOM     13  C   UNL     1       7.690  -2.580  23.149  0.00  0.00    +0.197 A 
ATOM     14  O   UNL     1       8.405  -2.194  22.225  0.00  0.00    -0.287 OA
ATOM     15  C   UNL     1       4.902  -5.153  23.338  0.00  0.00    +0.016 A 
ATOM     16  C   UNL     1       7.654  -1.836  24.451  0.00  0.00    +0.057 A 
ENDROOT
BRANCH   1  17
ATOM     17  N   UNL     1       9.972  -1.003  24.112  0.00  0.00    -0.342 N 
ATOM     18  H   UNL     1      10.070  -1.780  23.451  0.00  0.00    +0.146 HD
BRANCH  17  19
ATOM     19  C   UNL     1      10.620   0.252  23.743  0.00  0.00    +0.117 C 
BRANCH  19  20
ATOM     20  C   UNL     1      10.193   0.790  22.358  0.00  0.00    +0.103 C 
BRANCH  20  21
ATOM     21  N   UNL     1       9.215   1.904  22.350  0.00  0.00    -0.301 NA
BRANCH  21  23
ATOM     22  C   UNL     1       6.804   1.447  22.932  0.00  0.00    +0.020 C 
ATOM     23  C   UNL     1       7.890   1.489  21.860  0.00  0.00    +0.081 C 
ENDBRANCH  21  23
BRANCH  21  24
ATOM     24  C   UNL     1       9.181   2.583  23.660  0.00  0.00    +0.081 C 
ATOM     25  C   UNL     1       9.838   3.961  23.735  0.00  0.00    +0.020 C 
ENDBRANCH  21  24
ENDBRANCH  20  21
ENDBRANCH  19  20
ENDBRANCH  17  19
ENDBRANCH   1  17
TORSDOF 6
ENDMDL
MODEL 5
REMARK VINA RESULT:      -5.5      2.311      4.387
REMARK  Name = 
REMARK  9 active torsions:
REMARK  status: ('A' for Active; 'I' for Inactive)
REMARK    1  A    between atoms: C_1  and  C_2
REMARK    2  A    between atoms: C_2  and  N_3
REMARK    3  A    between atoms: N_3  and  C_4
REMARK    4  A    between atoms: N_3  and  C_6
REMARK    5  A    between atoms: C_4  and  C_5
REMARK    6  A    between atoms: C_6  and  C_7
REMARK    7  A    between atoms: C_7  and  N_8
REMARK    8  A    between atoms: N_8  and  C_9
REMARK    9  A    between atoms: C_21  and  C_22
REMARK                            x       y       z     vdW  Elec       q    Type
REMARK                         _______ _______ _______ _____ _____    ______ ____
ROOT
ATOM      1  C   UNL     1       9.159  -1.751  24.410  0.00  0.00    +0.039 A 
ATOM      2  C   UNL     1       9.931  -1.817  23.243  0.00  0.00    +0.024 A 
ATOM      3  C   UNL     1      10.166  -0.701  22.453  0.00  0.00    +0.006 A 
ATOM      4  C   UNL     1       9.653   0.546  22.808  0.00  0.00    -0.036 A 
ATOM      5  C   UNL     1      10.009   1.680  21.880  0.00  0.00    +0.045 C 
ATOM      6  C   UNL     1       8.823   0.652  23.952  0.00  0.00    +0.028 A 
ATOM      7  S   UNL     1       8.115   2.254  24.309  0.00  0.00    -0.088 S 
ATOM      8  C   UNL     1       7.566   2.108  25.976  0.00  0.00    +0.024 A 
ATOM      9  C   UNL     1       7.359   0.881  26.601  0.00  0.00    +0.036 A 
ATOM     10  C   UNL     1       6.823   0.860  27.905  0.00  0.00    +0.013 A 
ATOM     11  C   UNL     1       6.506   2.041  28.571  0.00  0.00    +0.001 A 
ATOM     12  C   UNL     1       6.721   3.268  27.946  0.00  0.00    +0.001 A 
ATOM     13  C   UNL     1       7.629  -0.407  25.914  0.00  0.00    +0.197 A 
ATOM     14  O   UNL     1       7.037  -1.403  26.326  0.00  0.00    -0.287 OA
ATOM     15  C   UNL     1       7.247   3.299  26.657  0.00  0.00    +0.016 A 
ATOM     16  C   UNL     1       8.555  -0.498  24.737  0.00  0.00    +0.057 A 
ENDROOT
BRANCH   1  17
ATOM     17  N   UNL     1       9.045  -2.885  25.228  0.00  0.00    -0.342 N 
ATOM     18  H   UNL     1       8.491  -2.727  26.076  0.00  0.00    +0.146 HD
BRANCH  17  19
ATOM     19  C   UNL     1       9.006  -4.234  24.668  0.00  0.00    +0.117 C 
BRANCH  19  20
ATOM     20  C   UNL     1       7.624  -4.633  24.102  0.00  0.00    +0.103 C 
BRANCH  20  21
ATOM     21  N   UNL     1       7.487  -4.642  22.627  0.00  0.00    -0.301 NA
BRANCH  21  23
ATOM     22  C   UNL     1       6.156  -5.832  20.846  0.00  0.00    +0.020 C 
ATOM     23  C   UNL     1       7.003  -5.934  22.111  0.00  0.00    +0.081 C 
ENDBRANCH  21  23
BRANCH  21  24
ATOM     24  C   UNL     1       6.700  -3.482  22.165  0.00  0.00    +0.081 C 
ATOM     25  C   UNL     1       5.828  -2.786  23.210  0.00  0.00    +0.020 C 
ENDBRANCH  21  24
ENDBRANCH  20  21
ENDBRANCH  19  20
ENDBRANCH  17  19
ENDBRANCH   1  17
TORSDOF 6
ENDMDL
MODEL 6
REMARK VINA RESULT:      -5.5      2.356      4.287
REMARK  Name = 
REMARK  9 active torsions:
REMARK  status: ('A' for Active; 'I' for Inactive)
REMARK    1  A    between atoms: C_1  and  C_2
REMARK    2  A    between atoms: C_2  and  N_3
REMARK    3  A    between atoms: N_3  and  C_4
REMARK    4  A    between atoms: N_3  and  C_6
REMARK    5  A    between atoms: C_4  and  C_5
REMARK    6  A    between atoms: C_6  and  C_7
REMARK    7  A    between atoms: C_7  and  N_8
REMARK    8  A    between atoms: N_8  and  C_9
REMARK    9  A    between atoms: C_21  and  C_22
REMARK                            x       y       z     vdW  Elec       q    Type
REMARK                         _______ _______ _______ _____ _____    ______ ____
ROOT
ATOM      1  C   UNL     1       4.539  -3.271  24.535  0.00  0.00    +0.039 A 
ATOM      2  C   UNL     1       4.108  -4.491  23.996  0.00  0.00    +0.024 A 
ATOM      3  C   UNL     1       4.844  -5.172  23.037  0.00  0.00    +0.006 A 
ATOM      4  C   UNL     1       6.064  -4.671  22.585  0.00  0.00    -0.036 A 
ATOM      5  C   UNL     1       6.775  -5.526  21.566  0.00  0.00    +0.045 C 
ATOM      6  C   UNL     1       6.516  -3.416  23.062  0.00  0.00    +0.028 A 
ATOM      7  S   UNL     1       8.039  -2.777  22.379  0.00  0.00    -0.088 S 
ATOM      8  C   UNL     1       8.498  -1.499  23.501  0.00  0.00    +0.024 A 
ATOM      9  C   UNL     1       7.600  -0.908  24.387  0.00  0.00    +0.036 A 
ATOM     10  C   UNL     1       8.032   0.175  25.178  0.00  0.00    +0.013 A 
ATOM     11  C   UNL     1       9.336   0.655  25.088  0.00  0.00    +0.001 A 
ATOM     12  C   UNL     1      10.235   0.059  24.206  0.00  0.00    +0.001 A 
ATOM     13  C   UNL     1       6.185  -1.348  24.479  0.00  0.00    +0.197 A 
ATOM     14  O   UNL     1       5.371  -0.541  24.925  0.00  0.00    -0.287 OA
ATOM     15  C   UNL     1       9.817  -1.011  23.419  0.00  0.00    +0.016 A 
ATOM     16  C   UNL     1       5.744  -2.705  24.015  0.00  0.00    +0.057 A 
ENDROOT
BRANCH   1  17
ATOM     17  N   UNL     1       3.812  -2.681  25.579  0.00  0.00    -0.342 N 
ATOM     18  H   UNL     1       2.901  -2.310  25.287  0.00  0.00    +0.146 HD
BRANCH  17  19
ATOM     19  C   UNL     1       3.905  -3.172  26.952  0.00  0.00    +0.117 C 
BRANCH  19  20
ATOM     20  C   UNL     1       5.356  -3.321  27.462  0.00  0.00    +0.103 C 
BRANCH  20  21
ATOM     21  N   UNL     1       5.838  -4.702  27.703  0.00  0.00    -0.301 NA
BRANCH  21  23
ATOM     22  C   UNL     1       4.859  -6.792  26.685  0.00  0.00    +0.020 C 
ATOM     23  C   UNL     1       4.742  -5.686  27.731  0.00  0.00    +0.081 C 
ENDBRANCH  21  23
BRANCH  21  24
ATOM     24  C   UNL     1       6.928  -5.049  26.771  0.00  0.00    +0.081 C 
ATOM     25  C   UNL     1       8.005  -3.987  26.550  0.00  0.00    +0.020 C 
ENDBRANCH  21  24
ENDBRANCH  20  21
ENDBRANCH  19  20
ENDBRANCH  17  19
ENDBRANCH   1  17
TORSDOF 6
ENDMDL
MODEL 7
REMARK VINA RESULT:      -5.4      2.878      5.983
REMARK  Name = 
REMARK  9 active torsions:
REMARK  status: ('A' for Active; 'I' for Inactive)
REMARK    1  A    between atoms: C_1  and  C_2
REMARK    2  A    between atoms: C_2  and  N_3
REMARK    3  A    between atoms: N_3  and  C_4
REMARK    4  A    between atoms: N_3  and  C_6
REMARK    5  A    between atoms: C_4  and  C_5
REMARK    6  A    between atoms: C_6  and  C_7
REMARK    7  A    between atoms: C_7  and  N_8
REMARK    8  A    between atoms: N_8  and  C_9
REMARK    9  A    between atoms: C_21  and  C_22
REMARK                            x       y       z     vdW  Elec       q    Type
REMARK                         _______ _______ _______ _____ _____    ______ ____
ROOT
ATOM      1  C   UNL     1       7.418   0.259  22.654  0.00  0.00    +0.039 A 
ATOM      2  C   UNL     1       6.755   1.482  22.818  0.00  0.00    +0.024 A 
ATOM      3  C   UNL     1       5.914   1.723  23.895  0.00  0.00    +0.006 A 
ATOM      4  C   UNL     1       5.712   0.752  24.875  0.00  0.00    -0.036 A 
ATOM      5  C   UNL     1       4.799   1.154  26.006  0.00  0.00    +0.045 C 
ATOM      6  C   UNL     1       6.319  -0.520  24.724  0.00  0.00    +0.028 A 
ATOM      7  S   UNL     1       5.952  -1.758  25.959  0.00  0.00    -0.088 S 
ATOM      8  C   UNL     1       7.195  -2.981  25.710  0.00  0.00    +0.024 A 
ATOM      9  C   UNL     1       7.931  -3.085  24.531  0.00  0.00    +0.036 A 
ATOM     10  C   UNL     1       8.836  -4.156  24.383  0.00  0.00    +0.013 A 
ATOM     11  C   UNL     1       9.003  -5.100  25.393  0.00  0.00    +0.001 A 
ATOM     12  C   UNL     1       8.272  -4.990  26.574  0.00  0.00    +0.001 A 
ATOM     13  C   UNL     1       7.747  -2.137  23.405  0.00  0.00    +0.197 A 
ATOM     14  O   UNL     1       8.076  -2.521  22.283  0.00  0.00    -0.287 OA
ATOM     15  C   UNL     1       7.374  -3.937  26.729  0.00  0.00    +0.016 A 
ATOM     16  C   UNL     1       7.150  -0.775  23.603  0.00  0.00    +0.057 A 
ENDROOT
BRANCH   1  17
ATOM     17  N   UNL     1       8.340   0.108  21.607  0.00  0.00    -0.342 N 
ATOM     18  H   UNL     1       7.958   0.344  20.686  0.00  0.00    +0.146 HD
BRANCH  17  19
ATOM     19  C   UNL     1       9.767   0.350  21.803  0.00  0.00    +0.117 C 
BRANCH  19  20
ATOM     20  C   UNL     1      10.101   1.797  22.231  0.00  0.00    +0.103 C 
BRANCH  20  21
ATOM     21  N   UNL     1      10.527   1.993  23.637  0.00  0.00    -0.301 NA
BRANCH  21  23
ATOM     22  C   UNL     1       9.208   4.134  23.838  0.00  0.00    +0.020 C 
ATOM     23  C   UNL     1       9.548   2.765  24.422  0.00  0.00    +0.081 C 
ENDBRANCH  21  23
BRANCH  21  24
ATOM     24  C   UNL     1      10.908   0.709  24.254  0.00  0.00    +0.081 C 
ATOM     25  C   UNL     1      10.000   0.187  25.369  0.00  0.00    +0.020 C 
ENDBRANCH  21  24
ENDBRANCH  20  21
ENDBRANCH  19  20
ENDBRANCH  17  19
ENDBRANCH   1  17
TORSDOF 6
ENDMDL
MODEL 8
REMARK VINA RESULT:      -5.2      2.598      5.694
REMARK  Name = 
REMARK  9 active torsions:
REMARK  status: ('A' for Active; 'I' for Inactive)
REMARK    1  A    between atoms: C_1  and  C_2
REMARK    2  A    between atoms: C_2  and  N_3
REMARK    3  A    between atoms: N_3  and  C_4
REMARK    4  A    between atoms: N_3  and  C_6
REMARK    5  A    between atoms: C_4  and  C_5
REMARK    6  A    between atoms: C_6  and  C_7
REMARK    7  A    between atoms: C_7  and  N_8
REMARK    8  A    between atoms: N_8  and  C_9
REMARK    9  A    between atoms: C_21  and  C_22
REMARK                            x       y       z     vdW  Elec       q    Type
REMARK                         _______ _______ _______ _____ _____    ______ ____
ROOT
ATOM      1  C   UNL     1       6.028  -0.629  25.283  0.00  0.00    +0.039 A 
ATOM      2  C   UNL     1       5.352  -0.156  26.415  0.00  0.00    +0.024 A 
ATOM      3  C   UNL     1       4.314  -0.867  27.002  0.00  0.00    +0.006 A 
ATOM      4  C   UNL     1       3.916  -2.101  26.490  0.00  0.00    -0.036 A 
ATOM      5  C   UNL     1       2.798  -2.781  27.240  0.00  0.00    +0.045 C 
ATOM      6  C   UNL     1       4.535  -2.596  25.315  0.00  0.00    +0.028 A 
ATOM      7  S   UNL     1       3.923  -4.137  24.649  0.00  0.00    -0.088 S 
ATOM      8  C   UNL     1       5.186  -4.641  23.529  0.00  0.00    +0.024 A 
ATOM      9  C   UNL     1       6.141  -3.764  23.019  0.00  0.00    +0.036 A 
ATOM     10  C   UNL     1       7.052  -4.234  22.051  0.00  0.00    +0.013 A 
ATOM     11  C   UNL     1       7.011  -5.553  21.606  0.00  0.00    +0.001 A 
ATOM     12  C   UNL     1       6.059  -6.430  22.123  0.00  0.00    +0.001 A 
ATOM     13  C   UNL     1       6.190  -2.336  23.421  0.00  0.00    +0.197 A 
ATOM     14  O   UNL     1       6.734  -1.550  22.647  0.00  0.00    -0.287 OA
ATOM     15  C   UNL     1       5.153  -5.975  23.078  0.00  0.00    +0.016 A 
ATOM     16  C   UNL     1       5.571  -1.850  24.698  0.00  0.00    +0.057 A 
ENDROOT
BRANCH   1  17
ATOM     17  N   UNL     1       7.140   0.076  24.798  0.00  0.00    -0.342 N 
ATOM     18  H   UNL     1       6.898   0.814  24.129  0.00  0.00    +0.146 HD
BRANCH  17  19
ATOM     19  C   UNL     1       8.321   0.309  25.625  0.00  0.00    +0.117 C 
BRANCH  19  20
ATOM     20  C   UNL     1       9.657   0.074  24.884  0.00  0.00    +0.103 C 
BRANCH  20  21
ATOM     21  N   UNL     1       9.567  -0.280  23.448  0.00  0.00    -0.301 NA
BRANCH  21  23
ATOM     22  C   UNL     1       8.982   1.238  21.521  0.00  0.00    +0.020 C 
ATOM     23  C   UNL     1      10.009   0.814  22.567  0.00  0.00    +0.081 C 
ENDBRANCH  21  23
BRANCH  21  24
ATOM     24  C   UNL     1      10.235  -1.569  23.182  0.00  0.00    +0.081 C 
ATOM     25  C   UNL     1       9.800  -2.757  24.041  0.00  0.00    +0.020 C 
ENDBRANCH  21  24
ENDBRANCH  20  21
ENDBRANCH  19  20
ENDBRANCH  17  19
ENDBRANCH   1  17
TORSDOF 6
ENDMDL
MODEL 9
REMARK VINA RESULT:      -5.2      2.641      6.455
REMARK  Name = 
REMARK  9 active torsions:
REMARK  status: ('A' for Active; 'I' for Inactive)
REMARK    1  A    between atoms: C_1  and  C_2
REMARK    2  A    between atoms: C_2  and  N_3
REMARK    3  A    between atoms: N_3  and  C_4
REMARK    4  A    between atoms: N_3  and  C_6
REMARK    5  A    between atoms: C_4  and  C_5
REMARK    6  A    between atoms: C_6  and  C_7
REMARK    7  A    between atoms: C_7  and  N_8
REMARK    8  A    between atoms: N_8  and  C_9
REMARK    9  A    between atoms: C_21  and  C_22
REMARK                            x       y       z     vdW  Elec       q    Type
REMARK                         _______ _______ _______ _____ _____    ______ ____
ROOT
ATOM      1  C   UNL     1       7.901  -3.035  24.082  0.00  0.00    +0.039 A 
ATOM      2  C   UNL     1       7.970  -2.948  22.686  0.00  0.00    +0.024 A 
ATOM      3  C   UNL     1       7.310  -3.847  21.860  0.00  0.00    +0.006 A 
ATOM      4  C   UNL     1       6.529  -4.869  22.398  0.00  0.00    -0.036 A 
ATOM      5  C   UNL     1       5.841  -5.756  21.390  0.00  0.00    +0.045 C 
ATOM      6  C   UNL     1       6.471  -5.029  23.805  0.00  0.00    +0.028 A 
ATOM      7  S   UNL     1       5.532  -6.412  24.437  0.00  0.00    -0.088 S 
ATOM      8  C   UNL     1       5.309  -6.023  26.141  0.00  0.00    +0.024 A 
ATOM      9  C   UNL     1       6.099  -5.096  26.817  0.00  0.00    +0.036 A 
ATOM     10  C   UNL     1       5.914  -4.921  28.203  0.00  0.00    +0.013 A 
ATOM     11  C   UNL     1       4.956  -5.656  28.898  0.00  0.00    +0.001 A 
ATOM     12  C   UNL     1       4.162  -6.578  28.218  0.00  0.00    +0.001 A 
ATOM     13  C   UNL     1       7.170  -4.329  26.132  0.00  0.00    +0.197 A 
ATOM     14  O   UNL     1       8.080  -3.884  26.829  0.00  0.00    -0.287 OA
ATOM     15  C   UNL     1       4.339  -6.759  26.849  0.00  0.00    +0.016 A 
ATOM     16  C   UNL     1       7.176  -4.131  24.645  0.00  0.00    +0.057 A 
ENDROOT
BRANCH   1  17
ATOM     17  N   UNL     1       8.498  -2.037  24.867  0.00  0.00    -0.342 N 
ATOM     18  H   UNL     1       8.299  -2.128  25.869  0.00  0.00    +0.146 HD
BRANCH  17  19
ATOM     19  C   UNL     1       9.786  -1.448  24.510  0.00  0.00    +0.117 C 
BRANCH  19  20
ATOM     20  C   UNL     1       9.843   0.086  24.696  0.00  0.00    +0.103 C 
BRANCH  20  21
ATOM     21  N   UNL     1      10.315   0.879  23.538  0.00  0.00    -0.301 NA
BRANCH  21  23
ATOM     22  C   UNL     1       8.883   1.021  21.467  0.00  0.00    +0.020 C 
ATOM     23  C   UNL     1       9.956   0.266  22.248  0.00  0.00    +0.081 C 
ENDBRANCH  21  23
BRANCH  21  24
ATOM     24  C   UNL     1       9.902   2.291  23.664  0.00  0.00    +0.081 C 
ATOM     25  C   UNL     1      10.985   3.345  23.433  0.00  0.00    +0.020 C 
ENDBRANCH  21  24
ENDBRANCH  20  21
ENDBRANCH  19  20
ENDBRANCH  17  19
ENDBRANCH   1  17
TORSDOF 6
ENDMDL
