MODEL 1
REMARK VINA RESULT:      -5.9      0.000      0.000
REMARK  Name = 
REMARK  7 active torsions:
REMARK  status: ('A' for Active; 'I' for Inactive)
REMARK    1  A    between atoms: C_2  and  C_4
REMARK    2  A    between atoms: C_5  and  N_6
REMARK    3  A    between atoms: N_7  and  C1*_10
REMARK    4  A    between atoms: C4*_13  and  C5*_15
REMARK    5  A    between atoms: C5*_15  and  O5*_16
REMARK    6  A    between atoms: C3*_17  and  O3*_19
REMARK    7  A    between atoms: C2*_20  and  O2*_22
REMARK                            x       y       z     vdW  Elec       q    Type
REMARK                         _______ _______ _______ _____ _____    ______ ____
ROOT
ATOM      1  C   UNL     1       7.260  -4.143  22.787  0.00  0.00    +0.164 A 
ATOM      2  N   UNL     1       8.379  -4.570  23.487  0.00  0.00    -0.229 NA
ATOM      3  C   UNL     1       8.774  -3.528  24.182  0.00  0.00    +0.203 A 
ATOM      4  N   UNL     1       8.015  -2.416  23.918  0.00  0.00    -0.289 N 
ATOM      5  C   UNL     1       6.996  -2.816  23.077  0.00  0.00    +0.131 A 
ENDROOT
BRANCH   1   9
ATOM      6  N   UNL     1       6.792  -6.328  21.996  0.00  0.00    -0.324 N 
ATOM      7  H   UNL     1       7.483  -6.616  22.676  0.00  0.00    +0.145 HD
ATOM      8  H   UNL     1       6.381  -6.981  21.353  0.00  0.00    +0.145 HD
ATOM      9  C   UNL     1       6.516  -4.994  21.861  0.00  0.00    +0.263 C 
ATOM     10  O   UNL     1       5.729  -4.584  21.016  0.00  0.00    -0.269 OA
ENDBRANCH   1   9
BRANCH   4  11
ATOM     11  C1* UNL     1       8.236  -1.075  24.451  0.00  0.00    +0.253 C 
ATOM     12  C2* UNL     1       9.648  -0.737  24.947  0.00  0.00    +0.195 C 
ATOM     13  C3* UNL     1      10.285   0.094  23.823  0.00  0.00    +0.178 C 
ATOM     14  C4* UNL     1       9.207   0.207  22.746  0.00  0.00    +0.177 C 
ATOM     15  O4* UNL     1       7.967  -0.089  23.423  0.00  0.00    -0.346 OA
BRANCH  12  16
ATOM     16  O2* UNL     1       9.558  -0.016  26.187  0.00  0.00    -0.385 OA
ATOM     17  H2* UNL     1       9.740  -0.641  26.911  0.00  0.00    +0.210 HD
ENDBRANCH  12  16
BRANCH  13  18
ATOM     18  O3* UNL     1      10.677   1.385  24.303  0.00  0.00    -0.386 OA
ATOM     19  H3* UNL     1      10.864   1.335  25.257  0.00  0.00    +0.210 HD
ENDBRANCH  13  18
BRANCH  14  20
ATOM     20  C5* UNL     1       9.461  -0.737  21.559  0.00  0.00    +0.190 C 
BRANCH  20  21
ATOM     21  O5* UNL     1      10.576  -1.581  21.826  0.00  0.00    -0.392 OA
ATOM     22  H5* UNL     1      10.365  -2.060  22.657  0.00  0.00    +0.210 HD
ENDBRANCH  20  21
ENDBRANCH  14  20
ENDBRANCH   4  11
BRANCH   5  23
ATOM     23  N   UNL     1       6.039  -1.972  22.637  0.00  0.00    -0.343 N 
ATOM     24  H   UNL     1       5.071  -2.024  22.961  0.00  0.00    +0.144 HD
ATOM     25  H   UNL     1       6.159  -1.497  21.737  0.00  0.00    +0.144 HD
ENDBRANCH   5  23
TORSDOF 7
ENDMDL
MODEL 2
REMARK VINA RESULT:      -5.8      2.804      4.890
REMARK  Name = 
REMARK  7 active torsions:
REMARK  status: ('A' for Active; 'I' for Inactive)
REMARK    1  A    between atoms: C_2  and  C_4
REMARK    2  A    between atoms: C_5  and  N_6
REMARK    3  A    between atoms: N_7  and  C1*_10
REMARK    4  A    between atoms: C4*_13  and  C5*_15
REMARK    5  A    between atoms: C5*_15  and  O5*_16
REMARK    6  A    between atoms: C3*_17  and  O3*_19
REMARK    7  A    between atoms: C2*_20  and  O2*_22
REMARK                            x       y       z     vdW  Elec       q    Type
REMARK                         _______ _______ _______ _____ _____    ______ ____
ROOT
ATOM      1  C   UNL     1       8.805  -0.255  22.509  0.00  0.00    +0.164 A 
ATOM      2  N   UNL     1      10.128  -0.607  22.734  0.00  0.00    -0.229 NA
ATOM      3  C   UNL     1      10.089  -1.830  23.210  0.00  0.00    +0.203 A 
ATOM      4  N   UNL     1       8.802  -2.275  23.379  0.00  0.00    -0.289 N 
ATOM      5  C   UNL     1       7.970  -1.300  22.866  0.00  0.00    +0.131 A 
ENDROOT
BRANCH   1   9
ATOM      6  N   UNL     1       9.415   1.773  21.446  0.00  0.00    -0.324 N 
ATOM      7  H   UNL     1      10.348   1.382  21.454  0.00  0.00    +0.145 HD
ATOM      8  H   UNL     1       9.239   2.712  21.134  0.00  0.00    +0.145 HD
ATOM      9  C   UNL     1       8.393   1.051  22.000  0.00  0.00    +0.263 C 
ATOM     10  O   UNL     1       7.255   1.498  22.067  0.00  0.00    -0.269 OA
ENDBRANCH   1   9
BRANCH   4  11
ATOM     11  C1* UNL     1       8.401  -3.549  23.965  0.00  0.00    +0.253 C 
ATOM     12  C2* UNL     1       9.406  -4.249  24.889  0.00  0.00    +0.195 C 
ATOM     13  C3* UNL     1       8.921  -3.954  26.316  0.00  0.00    +0.178 C 
ATOM     14  C4* UNL     1       7.654  -3.116  26.144  0.00  0.00    +0.177 C 
ATOM     15  O4* UNL     1       7.223  -3.361  24.789  0.00  0.00    -0.346 OA
BRANCH  12  16
ATOM     16  O2* UNL     1       9.431  -5.654  24.591  0.00  0.00    -0.385 OA
ATOM     17  H2* UNL     1       9.988  -6.093  25.259  0.00  0.00    +0.210 HD
ENDBRANCH  12  16
BRANCH  13  18
ATOM     18  O3* UNL     1       8.647  -5.169  27.023  0.00  0.00    -0.386 OA
ATOM     19  H3* UNL     1       9.220  -5.224  27.808  0.00  0.00    +0.210 HD
ENDBRANCH  13  18
BRANCH  14  20
ATOM     20  C5* UNL     1       7.896  -1.622  26.417  0.00  0.00    +0.190 C 
BRANCH  20  21
ATOM     21  O5* UNL     1       6.765  -0.856  26.016  0.00  0.00    -0.392 OA
ATOM     22  H5* UNL     1       6.659  -0.151  26.691  0.00  0.00    +0.210 HD
ENDBRANCH  20  21
ENDBRANCH  14  20
ENDBRANCH   4  11
BRANCH   5  23
ATOM     23  N   UNL     1       6.626  -1.425  22.845  0.00  0.00    -0.343 N 
ATOM     24  H   UNL     1       6.030  -1.066  23.594  0.00  0.00    +0.144 HD
ATOM     25  H   UNL     1       6.196  -2.162  22.279  0.00  0.00    +0.144 HD
ENDBRANCH   5  23
TORSDOF 7
ENDMDL
MODEL 3
REMARK VINA RESULT:      -5.7      2.736      5.367
REMARK  Name = 
REMARK  7 active torsions:
REMARK  status: ('A' for Active; 'I' for Inactive)
REMARK    1  A    between atoms: C_2  and  C_4
REMARK    2  A    between atoms: C_5  and  N_6
REMARK    3  A    between atoms: N_7  and  C1*_10
REMARK    4  A    between atoms: C4*_13  and  C5*_15
REMARK    5  A    between atoms: C5*_15  and  O5*_16
REMARK    6  A    between atoms: C3*_17  and  O3*_19
REMARK    7  A    between atoms: C2*_20  and  O2*_22
REMARK                            x       y       z     vdW  Elec       q    Type
REMARK                         _______ _______ _______ _____ _____    ______ ____
ROOT
ATOM      1  C   UNL     1       9.985   0.853  23.345  0.00  0.00    +0.164 A 
ATOM      2  N   UNL     1       9.920   0.693  24.721  0.00  0.00    -0.229 NA
ATOM      3  C   UNL     1       9.785  -0.598  24.918  0.00  0.00    +0.203 A 
ATOM      4  N   UNL     1       9.683  -1.289  23.736  0.00  0.00    -0.289 N 
ATOM      5  C   UNL     1       9.880  -0.377  22.719  0.00  0.00    +0.131 A 
ENDROOT
BRANCH   1   9
ATOM      6  N   UNL     1       9.279   2.309  21.612  0.00  0.00    -0.324 N 
ATOM      7  H   UNL     1       8.686   1.537  21.340  0.00  0.00    +0.145 HD
ATOM      8  H   UNL     1       9.348   3.143  21.058  0.00  0.00    +0.145 HD
ATOM      9  C   UNL     1      10.110   2.153  22.690  0.00  0.00    +0.263 C 
ATOM     10  O   UNL     1      10.889   3.035  23.031  0.00  0.00    -0.269 OA
ENDBRANCH   1   9
BRANCH   4  11
ATOM     11  C1* UNL     1       9.439  -2.721  23.594  0.00  0.00    +0.253 C 
ATOM     12  C2* UNL     1       9.197  -3.526  24.877  0.00  0.00    +0.195 C 
ATOM     13  C3* UNL     1       7.676  -3.732  24.948  0.00  0.00    +0.178 C 
ATOM     14  C4* UNL     1       7.121  -3.052  23.697  0.00  0.00    +0.177 C 
ATOM     15  O4* UNL     1       8.245  -2.938  22.800  0.00  0.00    -0.346 OA
BRANCH  12  16
ATOM     16  O2* UNL     1       9.921  -4.765  24.807  0.00  0.00    -0.385 OA
ATOM     17  H2* UNL     1       9.752  -5.259  25.629  0.00  0.00    +0.210 HD
ENDBRANCH  12  16
BRANCH  13  18
ATOM     18  O3* UNL     1       7.351  -5.126  24.968  0.00  0.00    -0.386 OA
ATOM     19  H3* UNL     1       6.773  -5.336  24.213  0.00  0.00    +0.210 HD
ENDBRANCH  13  18
BRANCH  14  20
ATOM     20  C5* UNL     1       6.482  -1.687  24.005  0.00  0.00    +0.190 C 
BRANCH  20  21
ATOM     21  O5* UNL     1       6.365  -0.915  22.815  0.00  0.00    -0.392 OA
ATOM     22  H5* UNL     1       6.623   0.002  23.056  0.00  0.00    +0.210 HD
ENDBRANCH  20  21
ENDBRANCH  14  20
ENDBRANCH   4  11
BRANCH   5  23
ATOM     23  N   UNL     1       9.875  -0.725  21.415  0.00  0.00    -0.343 N 
ATOM     24  H   UNL     1      10.435  -0.234  20.715  0.00  0.00    +0.144 HD
ATOM     25  H   UNL     1       9.077  -1.241  21.033  0.00  0.00    +0.144 HD
ENDBRANCH   5  23
TORSDOF 7
ENDMDL
MODEL 4
REMARK VINA RESULT:      -5.7      2.461      3.638
REMARK  Name = 
REMARK  7 active torsions:
REMARK  status: ('A' for Active; 'I' for Inactive)
REMARK    1  A    between atoms: C_2  and  C_4
REMARK    2  A    between atoms: C_5  and  N_6
REMARK    3  A    between atoms: N_7  and  C1*_10
REMARK    4  A    between atoms: C4*_13  and  C5*_15
REMARK    5  A    between atoms: C5*_15  and  O5*_16
REMARK    6  A    between atoms: C3*_17  and  O3*_19
REMARK    7  A    between atoms: C2*_20  and  O2*_22
REMARK                            x       y       z     vdW  Elec       q    Type
REMARK                         _______ _______ _______ _____ _____    ______ ____
ROOT
ATOM      1  C   UNL     1       7.913  -1.850  22.901  0.00  0.00    +0.164 A 
ATOM      2  N   UNL     1       6.916  -1.173  23.589  0.00  0.00    -0.229 NA
ATOM      3  C   UNL     1       7.059   0.090  23.259  0.00  0.00    +0.203 A 
ATOM      4  N   UNL     1       8.147   0.289  22.446  0.00  0.00    -0.289 N 
ATOM      5  C   UNL     1       8.661  -0.958  22.152  0.00  0.00    +0.131 A 
ENDROOT
BRANCH   1   9
ATOM      6  N   UNL     1       7.302  -4.032  22.205  0.00  0.00    -0.324 N 
ATOM      7  H   UNL     1       6.610  -3.553  21.644  0.00  0.00    +0.145 HD
ATOM      8  H   UNL     1       7.332  -5.034  22.265  0.00  0.00    +0.145 HD
ATOM      9  C   UNL     1       8.129  -3.290  23.006  0.00  0.00    +0.263 C 
ATOM     10  O   UNL     1       8.948  -3.821  23.747  0.00  0.00    -0.269 OA
ENDBRANCH   1   9
BRANCH   4  11
ATOM     11  C1* UNL     1       8.641   1.576  21.967  0.00  0.00    +0.253 C 
ATOM     12  C2* UNL     1       8.255   2.824  22.772  0.00  0.00    +0.195 C 
ATOM     13  C3* UNL     1       9.496   3.168  23.608  0.00  0.00    +0.178 C 
ATOM     14  C4* UNL     1      10.538   2.115  23.233  0.00  0.00    +0.177 C 
ATOM     15  O4* UNL     1      10.091   1.576  21.971  0.00  0.00    -0.346 OA
BRANCH  12  16
ATOM     16  O2* UNL     1       7.885   3.878  21.869  0.00  0.00    -0.385 OA
ATOM     17  H2* UNL     1       8.561   4.577  21.930  0.00  0.00    +0.210 HD
ENDBRANCH  12  16
BRANCH  13  18
ATOM     18  O3* UNL     1       9.962   4.488  23.310  0.00  0.00    -0.386 OA
ATOM     19  H3* UNL     1       9.426   5.140  23.795  0.00  0.00    +0.210 HD
ENDBRANCH  13  18
BRANCH  14  20
ATOM     20  C5* UNL     1      10.688   1.026  24.309  0.00  0.00    +0.190 C 
BRANCH  20  21
ATOM     21  O5* UNL     1       9.719   1.207  25.336  0.00  0.00    -0.392 OA
ATOM     22  H5* UNL     1       9.176   1.980  25.068  0.00  0.00    +0.210 HD
ENDBRANCH  20  21
ENDBRANCH  14  20
ENDBRANCH   4  11
BRANCH   5  23
ATOM     23  N   UNL     1       9.728  -1.135  21.344  0.00  0.00    -0.343 N 
ATOM     24  H   UNL     1      10.389  -0.384  21.137  0.00  0.00    +0.144 HD
ATOM     25  H   UNL     1       9.720  -1.894  20.655  0.00  0.00    +0.144 HD
ENDBRANCH   5  23
TORSDOF 7
ENDMDL
MODEL 5
REMARK VINA RESULT:      -5.6      2.236      3.265
REMARK  Name = 
REMARK  7 active torsions:
REMARK  status: ('A' for Active; 'I' for Inactive)
REMARK    1  A    between atoms: C_2  and  C_4
REMARK    2  A    between atoms: C_5  and  N_6
REMARK    3  A    between atoms: N_7  and  C1*_10
REMARK    4  A    between atoms: C4*_13  and  C5*_15
REMARK    5  A    between atoms: C5*_15  and  O5*_16
REMARK    6  A    between atoms: C3*_17  and  O3*_19
REMARK    7  A    between atoms: C2*_20  and  O2*_22
REMARK                            x       y       z     vdW  Elec       q    Type
REMARK                         _______ _______ _______ _____ _____    ______ ____
ROOT
ATOM      1  C   UNL     1       8.253  -3.746  25.504  0.00  0.00    +0.164 A 
ATOM      2  N   UNL     1       8.347  -2.560  26.217  0.00  0.00    -0.229 NA
ATOM      3  C   UNL     1       7.960  -1.620  25.387  0.00  0.00    +0.203 A 
ATOM      4  N   UNL     1       7.687  -2.118  24.138  0.00  0.00    -0.289 N 
ATOM      5  C   UNL     1       7.802  -3.492  24.219  0.00  0.00    +0.131 A 
ENDROOT
BRANCH   1   9
ATOM      6  N   UNL     1       9.864  -5.476  25.676  0.00  0.00    -0.324 N 
ATOM      7  H   UNL     1      10.406  -4.899  25.046  0.00  0.00    +0.145 HD
ATOM      8  H   UNL     1      10.171  -6.392  25.948  0.00  0.00    +0.145 HD
ATOM      9  C   UNL     1       8.619  -5.049  26.053  0.00  0.00    +0.263 C 
ATOM     10  O   UNL     1       7.897  -5.732  26.769  0.00  0.00    -0.269 OA
ENDBRANCH   1   9
BRANCH   4  11
ATOM     11  C1* UNL     1       7.316  -1.340  22.961  0.00  0.00    +0.253 C 
ATOM     12  C2* UNL     1       7.516   0.180  23.030  0.00  0.00    +0.195 C 
ATOM     13  C3* UNL     1       8.810   0.457  22.249  0.00  0.00    +0.178 C 
ATOM     14  C4* UNL     1       9.281  -0.911  21.757  0.00  0.00    +0.177 C 
ATOM     15  O4* UNL     1       8.115  -1.758  21.825  0.00  0.00    -0.346 OA
BRANCH  12  16
ATOM     16  O2* UNL     1       6.373   0.838  22.458  0.00  0.00    -0.385 OA
ATOM     17  H2* UNL     1       5.577   0.352  22.738  0.00  0.00    +0.210 HD
ENDBRANCH  12  16
BRANCH  13  18
ATOM     18  O3* UNL     1       8.565   1.346  21.154  0.00  0.00    -0.386 OA
ATOM     19  H3* UNL     1       9.131   2.133  21.242  0.00  0.00    +0.210 HD
ENDBRANCH  13  18
BRANCH  14  20
ATOM     20  C5* UNL     1      10.451  -1.464  22.588  0.00  0.00    +0.190 C 
BRANCH  20  21
ATOM     21  O5* UNL     1      10.849  -0.518  23.575  0.00  0.00    -0.392 OA
ATOM     22  H5* UNL     1      11.370   0.168  23.103  0.00  0.00    +0.210 HD
ENDBRANCH  20  21
ENDBRANCH  14  20
ENDBRANCH   4  11
BRANCH   5  23
ATOM     23  N   UNL     1       7.571  -4.308  23.170  0.00  0.00    -0.343 N 
ATOM     24  H   UNL     1       6.662  -4.357  22.705  0.00  0.00    +0.144 HD
ATOM     25  H   UNL     1       8.163  -5.132  23.030  0.00  0.00    +0.144 HD
ENDBRANCH   5  23
TORSDOF 7
ENDMDL
MODEL 6
REMARK VINA RESULT:      -5.5      2.709      3.739
REMARK  Name = 
REMARK  7 active torsions:
REMARK  status: ('A' for Active; 'I' for Inactive)
REMARK    1  A    between atoms: C_2  and  C_4
REMARK    2  A    between atoms: C_5  and  N_6
REMARK    3  A    between atoms: N_7  and  C1*_10
REMARK    4  A    between atoms: C4*_13  and  C5*_15
REMARK    5  A    between atoms: C5*_15  and  O5*_16
REMARK    6  A    between atoms: C3*_17  and  O3*_19
REMARK    7  A    between atoms: C2*_20  and  O2*_22
REMARK                            x       y       z     vdW  Elec       q    Type
REMARK                         _______ _______ _______ _____ _____    ______ ____
ROOT
ATOM      1  C   UNL     1       9.669  -2.504  23.917  0.00  0.00    +0.164 A 
ATOM      2  N   UNL     1      10.174  -2.352  22.634  0.00  0.00    -0.229 NA
ATOM      3  C   UNL     1      10.340  -1.059  22.474  0.00  0.00    +0.203 A 
ATOM      4  N   UNL     1       9.898  -0.347  23.560  0.00  0.00    -0.289 N 
ATOM      5  C   UNL     1       9.530  -1.267  24.522  0.00  0.00    +0.131 A 
ENDROOT
BRANCH   1   9
ATOM      6  N   UNL     1       7.964  -3.997  24.612  0.00  0.00    -0.324 N 
ATOM      7  H   UNL     1       7.336  -3.256  24.330  0.00  0.00    +0.145 HD
ATOM      8  H   UNL     1       7.629  -4.829  25.064  0.00  0.00    +0.145 HD
ATOM      9  C   UNL     1       9.313  -3.798  24.495  0.00  0.00    +0.263 C 
ATOM     10  O   UNL     1      10.120  -4.640  24.870  0.00  0.00    -0.269 OA
ENDBRANCH   1   9
BRANCH   4  11
ATOM     11  C1* UNL     1       9.855   1.107  23.678  0.00  0.00    +0.253 C 
ATOM     12  C2* UNL     1       9.859   1.921  22.377  0.00  0.00    +0.195 C 
ATOM     13  C3* UNL     1       8.399   2.347  22.159  0.00  0.00    +0.178 C 
ATOM     14  C4* UNL     1       7.632   1.773  23.350  0.00  0.00    +0.177 C 
ATOM     15  O4* UNL     1       8.636   1.509  24.353  0.00  0.00    -0.346 OA
BRANCH  12  16
ATOM     16  O2* UNL     1      10.748   3.041  22.517  0.00  0.00    -0.385 OA
ATOM     17  H2* UNL     1      11.587   2.815  22.079  0.00  0.00    +0.210 HD
ENDBRANCH  12  16
BRANCH  13  18
ATOM     18  O3* UNL     1       8.286   3.773  22.107  0.00  0.00    -0.386 OA
ATOM     19  H3* UNL     1       8.511   4.084  21.213  0.00  0.00    +0.210 HD
ENDBRANCH  13  18
BRANCH  14  20
ATOM     20  C5* UNL     1       6.832   0.512  22.983  0.00  0.00    +0.190 C 
BRANCH  20  21
ATOM     21  O5* UNL     1       6.337  -0.122  24.157  0.00  0.00    -0.392 OA
ATOM     22  H5* UNL     1       7.115  -0.532  24.596  0.00  0.00    +0.210 HD
ENDBRANCH  20  21
ENDBRANCH  14  20
ENDBRANCH   4  11
BRANCH   5  23
ATOM     23  N   UNL     1       9.073  -0.907  25.739  0.00  0.00    -0.343 N 
ATOM     24  H   UNL     1       8.279  -0.274  25.861  0.00  0.00    +0.144 HD
ATOM     25  H   UNL     1       9.694  -0.968  26.551  0.00  0.00    +0.144 HD
ENDBRANCH   5  23
TORSDOF 7
ENDMDL
MODEL 7
REMARK VINA RESULT:      -5.5      2.332      5.444
REMARK  Name = 
REMARK  7 active torsions:
REMARK  status: ('A' for Active; 'I' for Inactive)
REMARK    1  A    between atoms: C_2  and  C_4
REMARK    2  A    between atoms: C_5  and  N_6
REMARK    3  A    between atoms: N_7  and  C1*_10
REMARK    4  A    between atoms: C4*_13  and  C5*_15
REMARK    5  A    between atoms: C5*_15  and  O5*_16
REMARK    6  A    between atoms: C3*_17  and  O3*_19
REMARK    7  A    between atoms: C2*_20  and  O2*_22
REMARK                            x       y       z     vdW  Elec       q    Type
REMARK                         _______ _______ _______ _____ _____    ______ ____
ROOT
ATOM      1  C   UNL     1       9.183   0.477  22.538  0.00  0.00    +0.164 A 
ATOM      2  N   UNL     1       9.846  -0.510  21.824  0.00  0.00    -0.229 NA
ATOM      3  C   UNL     1       9.021  -1.531  21.787  0.00  0.00    +0.203 A 
ATOM      4  N   UNL     1       7.876  -1.292  22.506  0.00  0.00    -0.289 N 
ATOM      5  C   UNL     1       7.937   0.019  22.934  0.00  0.00    +0.131 A 
ENDROOT
BRANCH   1   9
ATOM      6  N   UNL     1      10.360   2.381  21.761  0.00  0.00    -0.324 N 
ATOM      7  H   UNL     1      10.382   1.885  20.879  0.00  0.00    +0.145 HD
ATOM      8  H   UNL     1      10.847   3.249  21.890  0.00  0.00    +0.145 HD
ATOM      9  C   UNL     1       9.763   1.783  22.838  0.00  0.00    +0.263 C 
ATOM     10  O   UNL     1       9.755   2.313  23.942  0.00  0.00    -0.269 OA
ENDBRANCH   1   9
BRANCH   4  11
ATOM     11  C1* UNL     1       6.794  -2.241  22.744  0.00  0.00    +0.253 C 
ATOM     12  C2* UNL     1       6.973  -3.665  22.201  0.00  0.00    +0.195 C 
ATOM     13  C3* UNL     1       7.378  -4.516  23.414  0.00  0.00    +0.178 C 
ATOM     14  C4* UNL     1       7.398  -3.546  24.595  0.00  0.00    +0.177 C 
ATOM     15  O4* UNL     1       6.602  -2.419  24.170  0.00  0.00    -0.346 OA
BRANCH  12  16
ATOM     16  O2* UNL     1       5.743  -4.106  21.602  0.00  0.00    -0.385 OA
ATOM     17  H2* UNL     1       5.034  -4.004  22.262  0.00  0.00    +0.210 HD
ENDBRANCH  12  16
BRANCH  13  18
ATOM     18  O3* UNL     1       6.443  -5.577  23.629  0.00  0.00    -0.386 OA
ATOM     19  H3* UNL     1       6.204  -5.614  24.572  0.00  0.00    +0.210 HD
ENDBRANCH  13  18
BRANCH  14  20
ATOM     20  C5* UNL     1       8.824  -3.133  24.994  0.00  0.00    +0.190 C 
BRANCH  20  21
ATOM     21  O5* UNL     1       9.779  -3.990  24.378  0.00  0.00    -0.392 OA
ATOM     22  H5* UNL     1      10.613  -3.473  24.317  0.00  0.00    +0.210 HD
ENDBRANCH  20  21
ENDBRANCH  14  20
ENDBRANCH   4  11
BRANCH   5  23
ATOM     23  N   UNL     1       6.952   0.600  23.651  0.00  0.00    -0.343 N 
ATOM     24  H   UNL     1       6.081   0.115  23.878  0.00  0.00    +0.144 HD
ATOM     25  H   UNL     1       6.890   1.621  23.690  0.00  0.00    +0.144 HD
ENDBRANCH   5  23
TORSDOF 7
ENDMDL
MODEL 8
REMARK VINA RESULT:      -5.5      3.014      5.875
REMARK  Name = 
REMARK  7 active torsions:
REMARK  status: ('A' for Active; 'I' for Inactive)
REMARK    1  A    between atoms: C_2  and  C_4
REMARK    2  A    between atoms: C_5  and  N_6
REMARK    3  A    between atoms: N_7  and  C1*_10
REMARK    4  A    between atoms: C4*_13  and  C5*_15
REMARK    5  A    between atoms: C5*_15  and  O5*_16
REMARK    6  A    between atoms: C3*_17  and  O3*_19
REMARK    7  A    between atoms: C2*_20  and  O2*_22
REMARK                            x       y       z     vdW  Elec       q    Type
REMARK                         _______ _______ _______ _____ _____    ______ ____
ROOT
ATOM      1  C   UNL     1       9.250   2.460  23.188  0.00  0.00    +0.164 A 
ATOM      2  N   UNL     1       8.552   2.297  22.000  0.00  0.00    -0.229 NA
ATOM      3  C   UNL     1       7.839   1.206  22.160  0.00  0.00    +0.203 A 
ATOM      4  N   UNL     1       8.089   0.601  23.366  0.00  0.00    -0.289 N 
ATOM      5  C   UNL     1       8.940   1.434  24.065  0.00  0.00    +0.131 A 
ENDROOT
BRANCH   1   9
ATOM      6  N   UNL     1       9.599   4.782  23.513  0.00  0.00    -0.324 N 
ATOM      7  H   UNL     1       8.598   4.850  23.382  0.00  0.00    +0.145 HD
ATOM      8  H   UNL     1      10.177   5.598  23.605  0.00  0.00    +0.145 HD
ATOM      9  C   UNL     1      10.192   3.550  23.427  0.00  0.00    +0.263 C 
ATOM     10  O   UNL     1      11.406   3.416  23.523  0.00  0.00    -0.269 OA
ENDBRANCH   1   9
BRANCH   4  11
ATOM     11  C1* UNL     1       7.534  -0.669  23.825  0.00  0.00    +0.253 C 
ATOM     12  C2* UNL     1       6.938  -1.602  22.763  0.00  0.00    +0.195 C 
ATOM     13  C3* UNL     1       8.008  -2.676  22.517  0.00  0.00    +0.178 C 
ATOM     14  C4* UNL     1       9.159  -2.318  23.457  0.00  0.00    +0.177 C 
ATOM     15  O4* UNL     1       8.574  -1.458  24.457  0.00  0.00    -0.346 OA
BRANCH  12  16
ATOM     16  O2* UNL     1       5.703  -2.153  23.252  0.00  0.00    -0.385 OA
ATOM     17  H2* UNL     1       5.427  -1.630  24.025  0.00  0.00    +0.210 HD
ENDBRANCH  12  16
BRANCH  13  18
ATOM     18  O3* UNL     1       7.495  -3.982  22.798  0.00  0.00    -0.386 OA
ATOM     19  H3* UNL     1       7.301  -4.058  23.749  0.00  0.00    +0.210 HD
ENDBRANCH  13  18
BRANCH  14  20
ATOM     20  C5* UNL     1      10.330  -1.644  22.724  0.00  0.00    +0.190 C 
BRANCH  20  21
ATOM     21  O5* UNL     1      10.050  -1.542  21.331  0.00  0.00    -0.392 OA
ATOM     22  H5* UNL     1       9.716  -2.422  21.054  0.00  0.00    +0.210 HD
ENDBRANCH  20  21
ENDBRANCH  14  20
ENDBRANCH   4  11
BRANCH   5  23
ATOM     23  N   UNL     1       9.370   1.157  25.313  0.00  0.00    -0.343 N 
ATOM     24  H   UNL     1       8.728   1.025  26.097  0.00  0.00    +0.144 HD
ATOM     25  H   UNL     1      10.325   1.408  25.586  0.00  0.00    +0.144 HD
ENDBRANCH   5  23
TORSDOF 7
ENDMDL
MODEL 9
REMARK VINA RESULT:      -5.4      2.960      4.542
REMARK  Name = 
REMARK  7 active torsions:
REMARK  status: ('A' for Active; 'I' for Inactive)
REMARK    1  A    between atoms: C_2  and  C_4
REMARK    2  A    between atoms: C_5  and  N_6
REMARK    3  A    between atoms: N_7  and  C1*_10
REMARK    4  A    between atoms: C4*_13  and  C5*_15
REMARK    5  A    between atoms: C5*_15  and  O5*_16
REMARK    6  A    between atoms: C3*_17  and  O3*_19
REMARK    7  A    between atoms: C2*_20  and  O2*_22
REMARK                            x       y       z     vdW  Elec       q    Type
REMARK                         _______ _______ _______ _____ _____    ______ ____
ROOT
ATOM      1  C   UNL     1       3.874  -5.277  23.149  0.00  0.00    +0.164 A 
ATOM      2  N   UNL     1       3.904  -4.105  23.891  0.00  0.00    -0.229 NA
ATOM      3  C   UNL     1       5.096  -3.593  23.689  0.00  0.00    +0.203 A 
ATOM      4  N   UNL     1       5.879  -4.407  22.910  0.00  0.00    -0.289 N 
ATOM      5  C   UNL     1       5.083  -5.457  22.499  0.00  0.00    +0.131 A 
ENDROOT
BRANCH   1   9
ATOM      6  N   UNL     1       2.942  -7.370  23.756  0.00  0.00    -0.324 N 
ATOM      7  H   UNL     1       3.850  -7.545  24.165  0.00  0.00    +0.145 HD
ATOM      8  H   UNL     1       2.232  -8.080  23.721  0.00  0.00    +0.145 HD
ATOM      9  C   UNL     1       2.726  -6.179  23.114  0.00  0.00    +0.263 C 
ATOM     10  O   UNL     1       1.664  -5.936  22.554  0.00  0.00    -0.269 OA
ENDBRANCH   1   9
BRANCH   4  11
ATOM     11  C1* UNL     1       7.279  -4.183  22.565  0.00  0.00    +0.253 C 
ATOM     12  C2* UNL     1       7.954  -2.928  23.136  0.00  0.00    +0.195 C 
ATOM     13  C3* UNL     1       8.795  -3.422  24.323  0.00  0.00    +0.178 C 
ATOM     14  C4* UNL     1       8.576  -4.934  24.367  0.00  0.00    +0.177 C 
ATOM     15  O4* UNL     1       8.087  -5.283  23.055  0.00  0.00    -0.346 OA
BRANCH  12  16
ATOM     16  O2* UNL     1       8.751  -2.308  22.113  0.00  0.00    -0.385 OA
ATOM     17  H2* UNL     1       8.926  -1.390  22.386  0.00  0.00    +0.210 HD
ENDBRANCH  12  16
BRANCH  13  18
ATOM     18  O3* UNL     1      10.178  -3.103  24.137  0.00  0.00    -0.386 OA
ATOM     19  H3* UNL     1      10.510  -2.628  24.919  0.00  0.00    +0.210 HD
ENDBRANCH  13  18
BRANCH  14  20
ATOM     20  C5* UNL     1       7.602  -5.356  25.480  0.00  0.00    +0.190 C 
BRANCH  20  21
ATOM     21  O5* UNL     1       8.321  -5.823  26.617  0.00  0.00    -0.392 OA
ATOM     22  H5* UNL     1       9.145  -5.291  26.658  0.00  0.00    +0.210 HD
ENDBRANCH  20  21
ENDBRANCH  14  20
ENDBRANCH   4  11
BRANCH   5  23
ATOM     23  N   UNL     1       5.530  -6.439  21.689  0.00  0.00    -0.343 N 
ATOM     24  H   UNL     1       6.505  -6.747  21.687  0.00  0.00    +0.144 HD
ATOM     25  H   UNL     1       5.016  -6.661  20.831  0.00  0.00    +0.144 HD
ENDBRANCH   5  23
TORSDOF 7
ENDMDL
