MODEL 1
REMARK VINA RESULT:      -5.6      0.000      0.000
REMARK  Name = 
REMARK  5 active torsions:
REMARK  status: ('A' for Active; 'I' for Inactive)
REMARK    1  A    between atoms: O_1  and  C_2
REMARK    2  A    between atoms: C_2  and  C_4
REMARK    3  A    between atoms: N_6  and  C_7
REMARK    4  A    between atoms: C_8  and  C_14
REMARK    5  A    between atoms: C_14  and  O_15
REMARK                            x       y       z     vdW  Elec       q    Type
REMARK                         _______ _______ _______ _____ _____    ______ ____
ROOT
ATOM      1  C   UNL     1       7.265  -4.519  23.699  0.00  0.00    +0.048 A 
ATOM      2  C   UNL     1       6.912  -3.569  22.730  0.00  0.00    +0.025 A 
ATOM      3  C   UNL     1       7.730  -2.464  22.482  0.00  0.00    +0.016 A 
ATOM      4  C   UNL     1       8.900  -2.292  23.217  0.00  0.00    +0.014 A 
ATOM      5  I   UNL     1      10.065  -0.599  22.913  0.00  0.00    -0.044 I 
ATOM      6  C   UNL     1       9.280  -3.238  24.166  0.00  0.00    +0.031 A 
ATOM      7  C   UNL     1       8.474  -4.362  24.400  0.00  0.00    +0.081 A 
ENDROOT
BRANCH   1   9
ATOM      8  C   UNL     1       5.296  -5.527  24.761  0.00  0.00    +0.325 C 
ATOM      9  N   UNL     1       6.405  -5.615  23.933  0.00  0.00    -0.275 N 
ATOM     10  H   UNL     1       6.716  -6.561  23.698  0.00  0.00    +0.155 HD
ATOM     11  O   UNL     1       4.936  -4.562  25.429  0.00  0.00    -0.263 OA
BRANCH   8  12
ATOM     12  C   UNL     1       4.564  -6.850  24.982  0.00  0.00    +0.393 C 
ATOM     13  O   UNL     1       4.119  -7.173  26.064  0.00  0.00    -0.240 OA
BRANCH  12  14
ATOM     14  O   UNL     1       4.428  -7.524  23.826  0.00  0.00    -0.474 OA
ATOM     15  H   UNL     1       4.653  -8.475  23.969  0.00  0.00    +0.296 HD
ENDBRANCH  12  14
ENDBRANCH   8  12
ENDBRANCH   1   9
BRANCH   7  16
ATOM     16  C   UNL     1       8.936  -5.295  25.457  0.00  0.00    +0.339 C 
ATOM     17  O   UNL     1       8.208  -5.699  26.346  0.00  0.00    -0.245 OA
BRANCH  16  18
ATOM     18  O   UNL     1      10.219  -5.684  25.314  0.00  0.00    -0.477 OA
ATOM     19  H   UNL     1      10.368  -6.634  25.480  0.00  0.00    +0.295 HD
ENDBRANCH  16  18
ENDBRANCH   7  16
TORSDOF 5
ENDMDL
MODEL 2
REMARK VINA RESULT:      -5.5      3.537      5.237
REMARK  Name = 
REMARK  5 active torsions:
REMARK  status: ('A' for Active; 'I' for Inactive)
REMARK    1  A    between atoms: O_1  and  C_2
REMARK    2  A    between atoms: C_2  and  C_4
REMARK    3  A    between atoms: N_6  and  C_7
REMARK    4  A    between atoms: C_8  and  C_14
REMARK    5  A    between atoms: C_14  and  O_15
REMARK                            x       y       z     vdW  Elec       q    Type
REMARK                         _______ _______ _______ _____ _____    ______ ____
ROOT
ATOM      1  C   UNL     1       7.728  -3.914  23.747  0.00  0.00    +0.048 A 
ATOM      2  C   UNL     1       6.501  -3.932  23.069  0.00  0.00    +0.025 A 
ATOM      3  C   UNL     1       5.442  -4.718  23.530  0.00  0.00    +0.016 A 
ATOM      4  C   UNL     1       5.611  -5.508  24.664  0.00  0.00    +0.014 A 
ATOM      5  I   UNL     1       4.067  -6.748  25.291  0.00  0.00    -0.044 I 
ATOM      6  C   UNL     1       6.814  -5.484  25.366  0.00  0.00    +0.031 A 
ATOM      7  C   UNL     1       7.872  -4.677  24.920  0.00  0.00    +0.081 A 
ENDROOT
BRANCH   1   9
ATOM      8  C   UNL     1       8.944  -1.788  23.593  0.00  0.00    +0.325 C 
ATOM      9  N   UNL     1       8.782  -3.119  23.242  0.00  0.00    -0.275 N 
ATOM     10  H   UNL     1       9.302  -3.434  22.419  0.00  0.00    +0.155 HD
ATOM     11  O   UNL     1       8.212  -1.108  24.307  0.00  0.00    -0.263 OA
BRANCH   8  12
ATOM     12  C   UNL     1      10.068  -1.068  22.848  0.00  0.00    +0.393 C 
ATOM     13  O   UNL     1      10.694  -0.155  23.343  0.00  0.00    -0.240 OA
BRANCH  12  14
ATOM     14  O   UNL     1      10.291  -1.637  21.649  0.00  0.00    -0.474 OA
ATOM     15  H   UNL     1      10.678  -2.536  21.777  0.00  0.00    +0.296 HD
ENDBRANCH  12  14
ENDBRANCH   8  12
ENDBRANCH   1   9
BRANCH   7  16
ATOM     16  C   UNL     1       9.128  -4.746  25.706  0.00  0.00    +0.339 C 
ATOM     17  O   UNL     1       9.191  -4.427  26.880  0.00  0.00    -0.245 OA
BRANCH  16  18
ATOM     18  O   UNL     1      10.176  -5.233  25.011  0.00  0.00    -0.477 OA
ATOM     19  H   UNL     1      10.450  -4.674  24.260  0.00  0.00    +0.295 HD
ENDBRANCH  16  18
ENDBRANCH   7  16
TORSDOF 5
ENDMDL
MODEL 3
REMARK VINA RESULT:      -5.3      5.924      7.475
REMARK  Name = 
REMARK  5 active torsions:
REMARK  status: ('A' for Active; 'I' for Inactive)
REMARK    1  A    between atoms: O_1  and  C_2
REMARK    2  A    between atoms: C_2  and  C_4
REMARK    3  A    between atoms: N_6  and  C_7
REMARK    4  A    between atoms: C_8  and  C_14
REMARK    5  A    between atoms: C_14  and  O_15
REMARK                            x       y       z     vdW  Elec       q    Type
REMARK                         _______ _______ _______ _____ _____    ______ ____
ROOT
ATOM      1  C   UNL     1       9.138   1.464  24.557  0.00  0.00    +0.048 A 
ATOM      2  C   UNL     1       8.122   1.317  25.512  0.00  0.00    +0.025 A 
ATOM      3  C   UNL     1       7.463   2.434  26.031  0.00  0.00    +0.016 A 
ATOM      4  C   UNL     1       7.830   3.709  25.613  0.00  0.00    +0.014 A 
ATOM      5  I   UNL     1       6.916   5.372  26.457  0.00  0.00    -0.044 I 
ATOM      6  C   UNL     1       8.821   3.875  24.646  0.00  0.00    +0.031 A 
ATOM      7  C   UNL     1       9.467   2.754  24.103  0.00  0.00    +0.081 A 
ENDROOT
BRANCH   1   9
ATOM      8  C   UNL     1       9.185  -0.572  23.188  0.00  0.00    +0.325 C 
ATOM      9  N   UNL     1       9.793   0.312  24.066  0.00  0.00    -0.275 N 
ATOM     10  H   UNL     1      10.636  -0.028  24.536  0.00  0.00    +0.155 HD
ATOM     11  O   UNL     1       8.033  -0.535  22.767  0.00  0.00    -0.263 OA
BRANCH   8  12
ATOM     12  C   UNL     1      10.012  -1.818  22.871  0.00  0.00    +0.393 C 
ATOM     13  O   UNL     1      10.139  -2.732  23.659  0.00  0.00    -0.240 OA
BRANCH  12  14
ATOM     14  O   UNL     1      10.483  -1.775  21.612  0.00  0.00    -0.474 OA
ATOM     15  H   UNL     1       9.916  -2.333  21.027  0.00  0.00    +0.296 HD
ENDBRANCH  12  14
ENDBRANCH   8  12
ENDBRANCH   1   9
BRANCH   7  16
ATOM     16  C   UNL     1      10.535   3.027  23.112  0.00  0.00    +0.339 C 
ATOM     17  O   UNL     1      11.544   3.654  23.383  0.00  0.00    -0.245 OA
BRANCH  16  18
ATOM     18  O   UNL     1      10.305   2.480  21.901  0.00  0.00    -0.477 OA
ATOM     19  H   UNL     1      10.442   3.093  21.154  0.00  0.00    +0.295 HD
ENDBRANCH  16  18
ENDBRANCH   7  16
TORSDOF 5
ENDMDL
MODEL 4
REMARK VINA RESULT:      -5.2      7.165      9.112
REMARK  Name = 
REMARK  5 active torsions:
REMARK  status: ('A' for Active; 'I' for Inactive)
REMARK    1  A    between atoms: O_1  and  C_2
REMARK    2  A    between atoms: C_2  and  C_4
REMARK    3  A    between atoms: N_6  and  C_7
REMARK    4  A    between atoms: C_8  and  C_14
REMARK    5  A    between atoms: C_14  and  O_15
REMARK                            x       y       z     vdW  Elec       q    Type
REMARK                         _______ _______ _______ _____ _____    ______ ____
ROOT
ATOM      1  C   UNL     1       9.876   1.988  23.444  0.00  0.00    +0.048 A 
ATOM      2  C   UNL     1      10.622   1.309  24.418  0.00  0.00    +0.025 A 
ATOM      3  C   UNL     1      10.444  -0.061  24.627  0.00  0.00    +0.016 A 
ATOM      4  C   UNL     1       9.501  -0.757  23.876  0.00  0.00    +0.014 A 
ATOM      5  I   UNL     1       9.169  -2.773  24.256  0.00  0.00    -0.044 I 
ATOM      6  C   UNL     1       8.767  -0.105  22.887  0.00  0.00    +0.031 A 
ATOM      7  C   UNL     1       8.962   1.265  22.657  0.00  0.00    +0.081 A 
ENDROOT
BRANCH   1   9
ATOM      8  C   UNL     1       9.500   4.319  24.112  0.00  0.00    +0.325 C 
ATOM      9  N   UNL     1      10.072   3.377  23.272  0.00  0.00    -0.275 N 
ATOM     10  H   UNL     1      10.435   3.729  22.382  0.00  0.00    +0.155 HD
ATOM     11  O   UNL     1       8.732   4.119  25.048  0.00  0.00    -0.263 OA
BRANCH   8  12
ATOM     12  C   UNL     1       9.731   5.770  23.688  0.00  0.00    +0.393 C 
ATOM     13  O   UNL     1      10.540   6.486  24.238  0.00  0.00    -0.240 OA
BRANCH  12  14
ATOM     14  O   UNL     1       8.989   6.079  22.610  0.00  0.00    -0.474 OA
ATOM     15  H   UNL     1       9.483   6.717  22.040  0.00  0.00    +0.296 HD
ENDBRANCH  12  14
ENDBRANCH   8  12
ENDBRANCH   1   9
BRANCH   7  16
ATOM     16  C   UNL     1       8.109   1.884  21.613  0.00  0.00    +0.339 C 
ATOM     17  O   UNL     1       7.355   2.813  21.842  0.00  0.00    -0.245 OA
BRANCH  16  18
ATOM     18  O   UNL     1       8.280   1.352  20.386  0.00  0.00    -0.477 OA
ATOM     19  H   UNL     1       8.130   1.980  19.655  0.00  0.00    +0.295 HD
ENDBRANCH  16  18
ENDBRANCH   7  16
TORSDOF 5
ENDMDL
MODEL 5
REMARK VINA RESULT:      -5.2      1.989      3.008
REMARK  Name = 
REMARK  5 active torsions:
REMARK  status: ('A' for Active; 'I' for Inactive)
REMARK    1  A    between atoms: O_1  and  C_2
REMARK    2  A    between atoms: C_2  and  C_4
REMARK    3  A    between atoms: N_6  and  C_7
REMARK    4  A    between atoms: C_8  and  C_14
REMARK    5  A    between atoms: C_14  and  O_15
REMARK                            x       y       z     vdW  Elec       q    Type
REMARK                         _______ _______ _______ _____ _____    ______ ____
ROOT
ATOM      1  C   UNL     1       8.055  -3.404  24.408  0.00  0.00    +0.048 A 
ATOM      2  C   UNL     1       8.825  -2.382  24.981  0.00  0.00    +0.025 A 
ATOM      3  C   UNL     1       9.169  -1.247  24.242  0.00  0.00    +0.016 A 
ATOM      4  C   UNL     1       8.762  -1.137  22.915  0.00  0.00    +0.014 A 
ATOM      5  I   UNL     1       9.357   0.504  21.790  0.00  0.00    -0.044 I 
ATOM      6  C   UNL     1       7.976  -2.131  22.335  0.00  0.00    +0.031 A 
ATOM      7  C   UNL     1       7.606  -3.259  23.082  0.00  0.00    +0.081 A 
ENDROOT
BRANCH   1   9
ATOM      8  C   UNL     1       6.641  -4.589  26.026  0.00  0.00    +0.325 C 
ATOM      9  N   UNL     1       7.739  -4.543  25.181  0.00  0.00    -0.275 N 
ATOM     10  H   UNL     1       8.448  -5.268  25.325  0.00  0.00    +0.155 HD
ATOM     11  O   UNL     1       5.847  -3.685  26.269  0.00  0.00    -0.263 OA
BRANCH   8  12
ATOM     12  C   UNL     1       6.540  -5.862  26.867  0.00  0.00    +0.393 C 
ATOM     13  O   UNL     1       5.632  -6.655  26.737  0.00  0.00    -0.240 OA
BRANCH  12  14
ATOM     14  O   UNL     1       7.610  -5.992  27.672  0.00  0.00    -0.474 OA
ATOM     15  H   UNL     1       8.342  -5.417  27.344  0.00  0.00    +0.296 HD
ENDBRANCH  12  14
ENDBRANCH   8  12
ENDBRANCH   1   9
BRANCH   7  16
ATOM     16  C   UNL     1       6.804  -4.285  22.372  0.00  0.00    +0.339 C 
ATOM     17  O   UNL     1       5.778  -4.020  21.771  0.00  0.00    -0.245 OA
BRANCH  16  18
ATOM     18  O   UNL     1       7.340  -5.521  22.418  0.00  0.00    -0.477 OA
ATOM     19  H   UNL     1       8.218  -5.559  22.841  0.00  0.00    +0.295 HD
ENDBRANCH  16  18
ENDBRANCH   7  16
TORSDOF 5
ENDMDL
MODEL 6
REMARK VINA RESULT:      -5.2      3.103      4.078
REMARK  Name = 
REMARK  5 active torsions:
REMARK  status: ('A' for Active; 'I' for Inactive)
REMARK    1  A    between atoms: O_1  and  C_2
REMARK    2  A    between atoms: C_2  and  C_4
REMARK    3  A    between atoms: N_6  and  C_7
REMARK    4  A    between atoms: C_8  and  C_14
REMARK    5  A    between atoms: C_14  and  O_15
REMARK                            x       y       z     vdW  Elec       q    Type
REMARK                         _______ _______ _______ _____ _____    ______ ____
ROOT
ATOM      1  C   UNL     1       9.474  -1.575  23.896  0.00  0.00    +0.048 A 
ATOM      2  C   UNL     1       9.938  -1.019  22.696  0.00  0.00    +0.025 A 
ATOM      3  C   UNL     1      10.195   0.351  22.597  0.00  0.00    +0.016 A 
ATOM      4  C   UNL     1       9.969   1.178  23.694  0.00  0.00    +0.014 A 
ATOM      5  I   UNL     1      10.259   3.227  23.515  0.00  0.00    -0.044 I 
ATOM      6  C   UNL     1       9.530   0.640  24.902  0.00  0.00    +0.031 A 
ATOM      7  C   UNL     1       9.296  -0.739  25.014  0.00  0.00    +0.081 A 
ENDROOT
BRANCH   1   9
ATOM      8  C   UNL     1       8.085  -3.531  23.378  0.00  0.00    +0.325 C 
ATOM      9  N   UNL     1       9.210  -2.962  23.955  0.00  0.00    -0.275 N 
ATOM     10  H   UNL     1       9.710  -3.543  24.633  0.00  0.00    +0.155 HD
ATOM     11  O   UNL     1       7.163  -2.953  22.809  0.00  0.00    -0.263 OA
BRANCH   8  12
ATOM     12  C   UNL     1       7.917  -5.025  23.654  0.00  0.00    +0.393 C 
ATOM     13  O   UNL     1       6.938  -5.645  23.296  0.00  0.00    -0.240 OA
BRANCH  12  14
ATOM     14  O   UNL     1       9.010  -5.528  24.255  0.00  0.00    -0.474 OA
ATOM     15  H   UNL     1       9.816  -5.077  23.907  0.00  0.00    +0.296 HD
ENDBRANCH  12  14
ENDBRANCH   8  12
ENDBRANCH   1   9
BRANCH   7  16
ATOM     16  C   UNL     1       8.793  -1.217  26.324  0.00  0.00    +0.339 C 
ATOM     17  O   UNL     1       8.125  -2.228  26.446  0.00  0.00    -0.245 OA
BRANCH  16  18
ATOM     18  O   UNL     1       9.180  -0.454  27.366  0.00  0.00    -0.477 OA
ATOM     19  H   UNL     1      10.091  -0.627  27.669  0.00  0.00    +0.295 HD
ENDBRANCH  16  18
ENDBRANCH   7  16
TORSDOF 5
ENDMDL
MODEL 7
REMARK VINA RESULT:      -5.2      3.323      4.007
REMARK  Name = 
REMARK  5 active torsions:
REMARK  status: ('A' for Active; 'I' for Inactive)
REMARK    1  A    between atoms: O_1  and  C_2
REMARK    2  A    between atoms: C_2  and  C_4
REMARK    3  A    between atoms: N_6  and  C_7
REMARK    4  A    between atoms: C_8  and  C_14
REMARK    5  A    between atoms: C_14  and  O_15
REMARK                            x       y       z     vdW  Elec       q    Type
REMARK                         _______ _______ _______ _____ _____    ______ ____
ROOT
ATOM      1  C   UNL     1       7.232  -2.161  23.423  0.00  0.00    +0.048 A 
ATOM      2  C   UNL     1       6.117  -1.673  24.119  0.00  0.00    +0.025 A 
ATOM      3  C   UNL     1       6.063  -0.342  24.538  0.00  0.00    +0.016 A 
ATOM      4  C   UNL     1       7.136   0.507  24.282  0.00  0.00    +0.014 A 
ATOM      5  I   UNL     1       7.096   2.459  24.991  0.00  0.00    -0.044 I 
ATOM      6  C   UNL     1       8.243   0.047  23.571  0.00  0.00    +0.031 A 
ATOM      7  C   UNL     1       8.289  -1.282  23.125  0.00  0.00    +0.081 A 
ENDROOT
BRANCH   1   9
ATOM      8  C   UNL     1       6.445  -4.015  22.021  0.00  0.00    +0.325 C 
ATOM      9  N   UNL     1       7.257  -3.518  23.028  0.00  0.00    -0.275 N 
ATOM     10  H   UNL     1       7.693  -4.214  23.640  0.00  0.00    +0.155 HD
ATOM     11  O   UNL     1       5.585  -3.411  21.387  0.00  0.00    -0.263 OA
BRANCH   8  12
ATOM     12  C   UNL     1       6.532  -5.529  21.826  0.00  0.00    +0.393 C 
ATOM     13  O   UNL     1       7.552  -6.152  22.032  0.00  0.00    -0.240 OA
BRANCH  12  14
ATOM     14  O   UNL     1       5.335  -6.039  21.486  0.00  0.00    -0.474 OA
ATOM     15  H   UNL     1       4.628  -5.612  22.026  0.00  0.00    +0.296 HD
ENDBRANCH  12  14
ENDBRANCH   8  12
ENDBRANCH   1   9
BRANCH   7  16
ATOM     16  C   UNL     1       9.523  -1.695  22.412  0.00  0.00    +0.339 C 
ATOM     17  O   UNL     1      10.318  -2.492  22.877  0.00  0.00    -0.245 OA
BRANCH  16  18
ATOM     18  O   UNL     1       9.655  -1.141  21.190  0.00  0.00    -0.477 OA
ATOM     19  H   UNL     1      10.426  -0.550  21.102  0.00  0.00    +0.295 HD
ENDBRANCH  16  18
ENDBRANCH   7  16
TORSDOF 5
ENDMDL
MODEL 8
REMARK VINA RESULT:      -5.1      5.135      6.772
REMARK  Name = 
REMARK  5 active torsions:
REMARK  status: ('A' for Active; 'I' for Inactive)
REMARK    1  A    between atoms: O_1  and  C_2
REMARK    2  A    between atoms: C_2  and  C_4
REMARK    3  A    between atoms: N_6  and  C_7
REMARK    4  A    between atoms: C_8  and  C_14
REMARK    5  A    between atoms: C_14  and  O_15
REMARK                            x       y       z     vdW  Elec       q    Type
REMARK                         _______ _______ _______ _____ _____    ______ ____
ROOT
ATOM      1  C   UNL     1       7.669  -0.897  23.485  0.00  0.00    +0.048 A 
ATOM      2  C   UNL     1       6.424  -1.278  24.007  0.00  0.00    +0.025 A 
ATOM      3  C   UNL     1       5.895  -2.542  23.738  0.00  0.00    +0.016 A 
ATOM      4  C   UNL     1       6.598  -3.428  22.927  0.00  0.00    +0.014 A 
ATOM      5  I   UNL     1       5.765  -5.270  22.451  0.00  0.00    -0.044 I 
ATOM      6  C   UNL     1       7.848  -3.077  22.420  0.00  0.00    +0.031 A 
ATOM      7  C   UNL     1       8.395  -1.818  22.709  0.00  0.00    +0.081 A 
ENDROOT
BRANCH   1   9
ATOM      8  C   UNL     1       7.969   1.470  22.911  0.00  0.00    +0.325 C 
ATOM      9  N   UNL     1       8.166   0.396  23.765  0.00  0.00    -0.275 N 
ATOM     10  H   UNL     1       8.890   0.515  24.478  0.00  0.00    +0.155 HD
ATOM     11  O   UNL     1       7.417   1.462  21.815  0.00  0.00    -0.263 OA
BRANCH   8  12
ATOM     12  C   UNL     1       8.687   2.753  23.331  0.00  0.00    +0.393 C 
ATOM     13  O   UNL     1       9.348   2.825  24.345  0.00  0.00    -0.240 OA
BRANCH  12  14
ATOM     14  O   UNL     1       8.539   3.713  22.400  0.00  0.00    -0.474 OA
ATOM     15  H   UNL     1       9.415   3.912  21.989  0.00  0.00    +0.296 HD
ENDBRANCH  12  14
ENDBRANCH   8  12
ENDBRANCH   1   9
BRANCH   7  16
ATOM     16  C   UNL     1       9.710  -1.515  22.093  0.00  0.00    +0.339 C 
ATOM     17  O   UNL     1      10.753  -2.001  22.491  0.00  0.00    -0.245 OA
BRANCH  16  18
ATOM     18  O   UNL     1       9.633  -0.690  21.029  0.00  0.00    -0.477 OA
ATOM     19  H   UNL     1       9.683   0.258  21.256  0.00  0.00    +0.295 HD
ENDBRANCH  16  18
ENDBRANCH   7  16
TORSDOF 5
ENDMDL
MODEL 9
REMARK VINA RESULT:      -5.1      5.728      7.579
REMARK  Name = 
REMARK  5 active torsions:
REMARK  status: ('A' for Active; 'I' for Inactive)
REMARK    1  A    between atoms: O_1  and  C_2
REMARK    2  A    between atoms: C_2  and  C_4
REMARK    3  A    between atoms: N_6  and  C_7
REMARK    4  A    between atoms: C_8  and  C_14
REMARK    5  A    between atoms: C_14  and  O_15
REMARK                            x       y       z     vdW  Elec       q    Type
REMARK                         _______ _______ _______ _____ _____    ______ ____
ROOT
ATOM      1  C   UNL     1       9.582   0.024  24.610  0.00  0.00    +0.048 A 
ATOM      2  C   UNL     1       9.195  -0.293  25.920  0.00  0.00    +0.025 A 
ATOM      3  C   UNL     1       8.691  -1.558  26.229  0.00  0.00    +0.016 A 
ATOM      4  C   UNL     1       8.551  -2.511  25.224  0.00  0.00    +0.014 A 
ATOM      5  I   UNL     1       7.712  -4.359  25.668  0.00  0.00    -0.044 I 
ATOM      6  C   UNL     1       8.953  -2.224  23.921  0.00  0.00    +0.031 A 
ATOM      7  C   UNL     1       9.484  -0.962  23.612  0.00  0.00    +0.081 A 
ENDROOT
BRANCH   1   9
ATOM      8  C   UNL     1       9.236   2.412  24.163  0.00  0.00    +0.325 C 
ATOM      9  N   UNL     1      10.073   1.319  24.332  0.00  0.00    -0.275 N 
ATOM     10  H   UNL     1      11.035   1.435  24.004  0.00  0.00    +0.155 HD
ATOM     11  O   UNL     1       8.008   2.421  24.169  0.00  0.00    -0.263 OA
BRANCH   8  12
ATOM     12  C   UNL     1       9.950   3.698  23.748  0.00  0.00    +0.393 C 
ATOM     13  O   UNL     1       9.677   4.777  24.232  0.00  0.00    -0.240 OA
BRANCH  12  14
ATOM     14  O   UNL     1      10.932   3.441  22.866  0.00  0.00    -0.474 OA
ATOM     15  H   UNL     1      10.980   4.170  22.203  0.00  0.00    +0.296 HD
ENDBRANCH  12  14
ENDBRANCH   8  12
ENDBRANCH   1   9
BRANCH   7  16
ATOM     16  C   UNL     1       9.847  -0.731  22.193  0.00  0.00    +0.339 C 
ATOM     17  O   UNL     1       9.527   0.274  21.584  0.00  0.00    -0.245 OA
BRANCH  16  18
ATOM     18  O   UNL     1      10.598  -1.715  21.657  0.00  0.00    -0.477 OA
ATOM     19  H   UNL     1      11.180  -2.165  22.298  0.00  0.00    +0.295 HD
ENDBRANCH  16  18
ENDBRANCH   7  16
TORSDOF 5
ENDMDL
