MODEL 1
REMARK VINA RESULT:      -8.0      0.000      0.000
REMARK  Name = 
REMARK  18 active torsions:
REMARK  status: ('A' for Active; 'I' for Inactive)
REMARK    1  A    between atoms: C_1  and  C_2
REMARK    2  A    between atoms: C_6  and  O_8
REMARK    3  A    between atoms: C_9  and  N_11
REMARK    4  A    between atoms: C_12  and  C_14
REMARK    5  A    between atoms: C_14  and  C_16
REMARK    6  A    between atoms: C_14  and  C_51
REMARK    7  A    between atoms: C_16  and  C_17
REMARK    8  A    between atoms: C_17  and  O_19
REMARK    9  A    between atoms: C_17  and  C_20
REMARK   10  A    between atoms: C_20  and  N_21
REMARK   11  A    between atoms: C_26  and  C_28
REMARK   12  A    between atoms: N_30  and  C_31
REMARK   13  A    between atoms: C_31  and  C_32
REMARK   14  A    between atoms: C_31  and  C_33
REMARK   15  A    between atoms: C_31  and  C_34
REMARK   16  A    between atoms: C_35  and  C_37
REMARK   17  A    between atoms: N_44  and  C_45
REMARK   18  A    between atoms: C_51  and  C_52
REMARK                            x       y       z     vdW  Elec       q    Type
REMARK                         _______ _______ _______ _____ _____    ______ ____
ROOT
ATOM      1  N   UNL     1       8.558  -1.452  22.512  0.00  0.00    -0.286 NA
ATOM      2  C   UNL     1       7.300  -1.917  23.200  0.00  0.00    +0.161 C 
ATOM      3  C   UNL     1       7.399  -1.903  24.746  0.00  0.00    +0.136 C 
ATOM      4  N   UNL     1       8.569  -2.669  25.215  0.00  0.00    -0.293 N 
ATOM      5  C   UNL     1       8.515  -3.782  26.058  0.00  0.00    +0.267 C 
ATOM      6  O   UNL     1       9.464  -4.558  26.190  0.00  0.00    -0.268 OA
ATOM      7  C   UNL     1       9.833  -2.322  24.571  0.00  0.00    +0.123 C 
ATOM      8  C   UNL     1       9.703  -2.237  23.040  0.00  0.00    +0.104 C 
ENDROOT
BRANCH   5   9
ATOM      9  C   UNL     1       7.284  -4.060  26.847  0.00  0.00    +0.145 A 
ATOM     10  N   UNL     1       7.207  -5.228  27.525  0.00  0.00    -0.226 NA
ATOM     11  C   UNL     1       6.083  -5.381  28.261  0.00  0.00    +0.170 A 
ATOM     12 CL   UNL     1       6.177  -6.784  29.265  0.00  0.00    -0.058 Cl
ATOM     13  C   UNL     1       5.013  -4.453  28.304  0.00  0.00    +0.159 A 
ATOM     14  N   UNL     1       3.893  -4.620  29.108  0.00  0.00    -0.310 N 
ATOM     15  C   UNL     1       3.101  -5.850  28.949  0.00  0.00    +0.122 C 
ATOM     16  C   UNL     1       1.673  -5.581  28.422  0.00  0.00    +0.103 C 
ATOM     17  N   UNL     1       0.941  -4.493  29.098  0.00  0.00    -0.302 NA
ATOM     18  C   UNL     1       0.618  -4.843  30.482  0.00  0.00    +0.105 C 
ATOM     19  C   UNL     1       1.775  -3.273  29.020  0.00  0.00    +0.103 C 
ATOM     20  C   UNL     1       3.198  -3.420  29.596  0.00  0.00    +0.122 C 
ATOM     21  N   UNL     1       5.105  -3.319  27.562  0.00  0.00    -0.235 NA
ATOM     22  C   UNL     1       6.247  -3.142  26.842  0.00  0.00    +0.146 A 
ENDBRANCH   5   9
BRANCH   2  23
ATOM     23  C   UNL     1       6.899  -3.349  22.759  0.00  0.00    +0.232 C 
ATOM     24  N   UNL     1       6.118  -4.042  23.662  0.00  0.00    -0.309 N 
ATOM     25  H   UNL     1       5.758  -3.475  24.429  0.00  0.00    +0.149 HD
ATOM     26  O   UNL     1       7.291  -3.835  21.699  0.00  0.00    -0.274 OA
BRANCH  24  27
ATOM     27  C   UNL     1       5.506  -5.350  23.385  0.00  0.00    +0.026 C 
ATOM     28  C   UNL     1       6.420  -6.213  22.495  0.00  0.00    +0.031 C 
ATOM     29  C   UNL     1       4.183  -5.131  22.631  0.00  0.00    +0.031 C 
ATOM     30  C   UNL     1       5.197  -6.089  24.698  0.00  0.00    +0.031 C 
ENDBRANCH  24  27
ENDBRANCH   2  23
BRANCH   1  31
ATOM     31  C   UNL     1       8.723   0.003  22.761  0.00  0.00    +0.116 C 
BRANCH  31  32
ATOM     32  C   UNL     1       8.180   0.958  21.674  0.00  0.00    +0.129 C 
BRANCH  32  33
ATOM     33  O   UNL     1       9.305   1.660  21.146  0.00  0.00    -0.391 OA
ATOM     34  H   UNL     1       9.180   2.614  21.319  0.00  0.00    +0.210 HD
ENDBRANCH  32  33
BRANCH  32  35
ATOM     35  C   UNL     1       7.144   1.939  22.241  0.00  0.00    +0.045 C 
BRANCH  35  36
ATOM     36  C   UNL     1       7.671   3.369  22.496  0.00  0.00    +0.082 C 
BRANCH  36  39
ATOM     37  N   UNL     1       5.269   3.890  22.431  0.00  0.00    -0.309 N 
ATOM     38  H   UNL     1       5.140   2.889  22.370  0.00  0.00    +0.149 HD
ATOM     39  C   UNL     1       6.545   4.397  22.417  0.00  0.00    +0.217 C 
ATOM     40  O   UNL     1       6.785   5.602  22.391  0.00  0.00    -0.275 OA
BRANCH  37  43
ATOM     41  C   UNL     1       1.786   4.527  21.292  0.00  0.00    +0.009 C 
ATOM     42  C   UNL     1       2.743   3.898  22.310  0.00  0.00    +0.009 C 
ATOM     43  C   UNL     1       4.049   4.713  22.448  0.00  0.00    +0.104 C 
ATOM     44  C   UNL     1       3.900   5.539  23.745  0.00  0.00    +0.135 C 
ATOM     45  C   UNL     1       2.512   5.236  24.302  0.00  0.00    +0.033 C 
ATOM     46  C   UNL     1       2.115   3.898  23.704  0.00  0.00    +0.008 C 
BRANCH  44  47
ATOM     47  O   UNL     1       4.022   6.931  23.453  0.00  0.00    -0.390 OA
ATOM     48  H   UNL     1       4.434   7.004  22.575  0.00  0.00    +0.210 HD
ENDBRANCH  44  47
ENDBRANCH  37  43
ENDBRANCH  36  39
BRANCH  36  49
ATOM     49  C   UNL     1       8.389   3.523  23.863  0.00  0.00    +0.048 C 
BRANCH  49  50
ATOM     50  C   UNL     1       9.694   4.281  23.824  0.00  0.00    -0.047 A 
ATOM     51  C   UNL     1       9.748   5.625  24.216  0.00  0.00    +0.003 A 
ATOM     52  C   UNL     1      10.959   6.320  24.224  0.00  0.00    +0.000 A 
ATOM     53  C   UNL     1      12.122   5.690  23.792  0.00  0.00    +0.000 A 
ATOM     54  C   UNL     1      12.075   4.368  23.352  0.00  0.00    +0.000 A 
ATOM     55  C   UNL     1      10.864   3.666  23.370  0.00  0.00    +0.003 A 
ENDBRANCH  49  50
ENDBRANCH  36  49
ENDBRANCH  35  36
ENDBRANCH  32  35
ENDBRANCH  31  32
ENDBRANCH   1  31
TORSDOF 13
ENDMDL
MODEL 2
REMARK VINA RESULT:      -7.8      1.673      2.316
REMARK  Name = 
REMARK  18 active torsions:
REMARK  status: ('A' for Active; 'I' for Inactive)
REMARK    1  A    between atoms: C_1  and  C_2
REMARK    2  A    between atoms: C_6  and  O_8
REMARK    3  A    between atoms: C_9  and  N_11
REMARK    4  A    between atoms: C_12  and  C_14
REMARK    5  A    between atoms: C_14  and  C_16
REMARK    6  A    between atoms: C_14  and  C_51
REMARK    7  A    between atoms: C_16  and  C_17
REMARK    8  A    between atoms: C_17  and  O_19
REMARK    9  A    between atoms: C_17  and  C_20
REMARK   10  A    between atoms: C_20  and  N_21
REMARK   11  A    between atoms: C_26  and  C_28
REMARK   12  A    between atoms: N_30  and  C_31
REMARK   13  A    between atoms: C_31  and  C_32
REMARK   14  A    between atoms: C_31  and  C_33
REMARK   15  A    between atoms: C_31  and  C_34
REMARK   16  A    between atoms: C_35  and  C_37
REMARK   17  A    between atoms: N_44  and  C_45
REMARK   18  A    between atoms: C_51  and  C_52
REMARK                            x       y       z     vdW  Elec       q    Type
REMARK                         _______ _______ _______ _____ _____    ______ ____
ROOT
ATOM      1  N   UNL     1       8.698  -0.389  23.049  0.00  0.00    -0.286 NA
ATOM      2  C   UNL     1       7.389  -1.054  23.387  0.00  0.00    +0.161 C 
ATOM      3  C   UNL     1       7.188  -1.289  24.905  0.00  0.00    +0.136 C 
ATOM      4  N   UNL     1       8.322  -2.031  25.487  0.00  0.00    -0.293 N 
ATOM      5  C   UNL     1       8.227  -3.270  26.128  0.00  0.00    +0.267 C 
ATOM      6  O   UNL     1       9.211  -3.983  26.336  0.00  0.00    -0.268 OA
ATOM      7  C   UNL     1       9.641  -1.488  25.175  0.00  0.00    +0.123 C 
ATOM      8  C   UNL     1       9.798  -1.162  23.679  0.00  0.00    +0.104 C 
ENDROOT
BRANCH   5   9
ATOM      9  C   UNL     1       6.904  -3.766  26.597  0.00  0.00    +0.145 A 
ATOM     10  N   UNL     1       5.792  -3.129  26.164  0.00  0.00    -0.226 NA
ATOM     11  C   UNL     1       4.628  -3.673  26.589  0.00  0.00    +0.170 A 
ATOM     12 CL   UNL     1       3.272  -2.942  25.806  0.00  0.00    -0.058 Cl
ATOM     13  C   UNL     1       4.527  -4.781  27.466  0.00  0.00    +0.159 A 
ATOM     14  N   UNL     1       3.316  -5.343  27.844  0.00  0.00    -0.310 N 
ATOM     15  C   UNL     1       2.316  -4.474  28.484  0.00  0.00    +0.122 C 
ATOM     16  C   UNL     1       2.024  -4.870  29.950  0.00  0.00    +0.103 C 
ATOM     17  N   UNL     1       1.790  -6.308  30.184  0.00  0.00    -0.302 NA
ATOM     18  C   UNL     1       0.541  -6.755  29.567  0.00  0.00    +0.105 C 
ATOM     19  C   UNL     1       2.959  -7.047  29.655  0.00  0.00    +0.103 C 
ATOM     20  C   UNL     1       3.283  -6.776  28.172  0.00  0.00    +0.122 C 
ATOM     21  N   UNL     1       5.670  -5.355  27.924  0.00  0.00    -0.235 NA
ATOM     22  C   UNL     1       6.846  -4.833  27.477  0.00  0.00    +0.146 A 
ENDBRANCH   5   9
BRANCH   2  23
ATOM     23  C   UNL     1       7.235  -2.419  22.668  0.00  0.00    +0.232 C 
ATOM     24  N   UNL     1       6.199  -3.208  23.125  0.00  0.00    -0.309 N 
ATOM     25  H   UNL     1       5.558  -2.734  23.760  0.00  0.00    +0.149 HD
ATOM     26  O   UNL     1       8.013  -2.779  21.784  0.00  0.00    -0.274 OA
BRANCH  24  27
ATOM     27  C   UNL     1       5.784  -4.469  22.492  0.00  0.00    +0.026 C 
ATOM     28  C   UNL     1       4.378  -4.889  22.959  0.00  0.00    +0.031 C 
ATOM     29  C   UNL     1       6.768  -5.579  22.899  0.00  0.00    +0.031 C 
ATOM     30  C   UNL     1       5.813  -4.337  20.960  0.00  0.00    +0.031 C 
ENDBRANCH  24  27
ENDBRANCH   2  23
BRANCH   1  31
ATOM     31  C   UNL     1       8.656   1.013  23.538  0.00  0.00    +0.116 C 
BRANCH  31  32
ATOM     32  C   UNL     1       8.351   2.104  22.486  0.00  0.00    +0.129 C 
BRANCH  32  33
ATOM     33  O   UNL     1       9.377   2.021  21.498  0.00  0.00    -0.391 OA
ATOM     34  H   UNL     1       9.160   2.645  20.777  0.00  0.00    +0.210 HD
ENDBRANCH  32  33
BRANCH  32  35
ATOM     35  C   UNL     1       8.313   3.506  23.112  0.00  0.00    +0.045 C 
BRANCH  35  36
ATOM     36  C   UNL     1       7.408   4.523  22.381  0.00  0.00    +0.082 C 
BRANCH  36  39
ATOM     37  N   UNL     1       4.975   4.742  22.103  0.00  0.00    -0.309 N 
ATOM     38  H   UNL     1       5.190   4.963  21.140  0.00  0.00    +0.149 HD
ATOM     39  C   UNL     1       6.008   4.557  22.988  0.00  0.00    +0.217 C 
ATOM     40  O   UNL     1       5.833   4.380  24.192  0.00  0.00    -0.275 OA
BRANCH  37  43
ATOM     41  C   UNL     1       1.847   6.535  23.014  0.00  0.00    +0.009 C 
ATOM     42  C   UNL     1       2.746   5.925  21.935  0.00  0.00    +0.009 C 
ATOM     43  C   UNL     1       3.551   4.720  22.473  0.00  0.00    +0.104 C 
ATOM     44  C   UNL     1       2.818   3.457  21.966  0.00  0.00    +0.135 C 
ATOM     45  C   UNL     1       1.590   3.940  21.199  0.00  0.00    +0.033 C 
ATOM     46  C   UNL     1       1.902   5.369  20.787  0.00  0.00    +0.008 C 
BRANCH  44  47
ATOM     47  O   UNL     1       2.421   2.646  23.072  0.00  0.00    -0.390 OA
ATOM     48  H   UNL     1       1.523   2.325  22.882  0.00  0.00    +0.210 HD
ENDBRANCH  44  47
ENDBRANCH  37  43
ENDBRANCH  36  39
BRANCH  36  49
ATOM     49  C   UNL     1       7.983   5.964  22.378  0.00  0.00    +0.048 C 
BRANCH  49  50
ATOM     50  C   UNL     1       8.911   6.290  23.524  0.00  0.00    -0.047 A 
ATOM     51  C   UNL     1       8.410   6.844  24.709  0.00  0.00    +0.003 A 
ATOM     52  C   UNL     1       9.254   7.108  25.789  0.00  0.00    +0.000 A 
ATOM     53  C   UNL     1      10.620   6.865  25.676  0.00  0.00    +0.000 A 
ATOM     54  C   UNL     1      11.140   6.360  24.485  0.00  0.00    +0.000 A 
ATOM     55  C   UNL     1      10.287   6.073  23.413  0.00  0.00    +0.003 A 
ENDBRANCH  49  50
ENDBRANCH  36  49
ENDBRANCH  35  36
ENDBRANCH  32  35
ENDBRANCH  31  32
ENDBRANCH   1  31
TORSDOF 13
ENDMDL
MODEL 3
REMARK VINA RESULT:      -7.8      3.166      9.698
REMARK  Name = 
REMARK  18 active torsions:
REMARK  status: ('A' for Active; 'I' for Inactive)
REMARK    1  A    between atoms: C_1  and  C_2
REMARK    2  A    between atoms: C_6  and  O_8
REMARK    3  A    between atoms: C_9  and  N_11
REMARK    4  A    between atoms: C_12  and  C_14
REMARK    5  A    between atoms: C_14  and  C_16
REMARK    6  A    between atoms: C_14  and  C_51
REMARK    7  A    between atoms: C_16  and  C_17
REMARK    8  A    between atoms: C_17  and  O_19
REMARK    9  A    between atoms: C_17  and  C_20
REMARK   10  A    between atoms: C_20  and  N_21
REMARK   11  A    between atoms: C_26  and  C_28
REMARK   12  A    between atoms: N_30  and  C_31
REMARK   13  A    between atoms: C_31  and  C_32
REMARK   14  A    between atoms: C_31  and  C_33
REMARK   15  A    between atoms: C_31  and  C_34
REMARK   16  A    between atoms: C_35  and  C_37
REMARK   17  A    between atoms: N_44  and  C_45
REMARK   18  A    between atoms: C_51  and  C_52
REMARK                            x       y       z     vdW  Elec       q    Type
REMARK                         _______ _______ _______ _____ _____    ______ ____
ROOT
ATOM      1  N   UNL     1       8.004  -3.001  23.605  0.00  0.00    -0.286 NA
ATOM      2  C   UNL     1       6.913  -2.007  23.906  0.00  0.00    +0.161 C 
ATOM      3  C   UNL     1       6.967  -0.739  23.017  0.00  0.00    +0.136 C 
ATOM      4  N   UNL     1       8.294  -0.098  23.079  0.00  0.00    -0.293 N 
ATOM      5  C   UNL     1       8.536   1.208  23.514  0.00  0.00    +0.267 C 
ATOM      6  O   UNL     1       9.661   1.603  23.825  0.00  0.00    -0.268 OA
ATOM      7  C   UNL     1       9.424  -0.993  22.846  0.00  0.00    +0.123 C 
ATOM      8  C   UNL     1       9.311  -2.297  23.656  0.00  0.00    +0.104 C 
ENDROOT
BRANCH   5   9
ATOM      9  C   UNL     1       7.414   2.182  23.604  0.00  0.00    +0.145 A 
ATOM     10  N   UNL     1       7.011   2.583  24.832  0.00  0.00    -0.226 NA
ATOM     11  C   UNL     1       6.026   3.510  24.829  0.00  0.00    +0.170 A 
ATOM     12 CL   UNL     1       5.741   4.127  26.417  0.00  0.00    -0.058 Cl
ATOM     13  C   UNL     1       5.390   4.008  23.665  0.00  0.00    +0.159 A 
ATOM     14  N   UNL     1       4.414   4.994  23.695  0.00  0.00    -0.310 N 
ATOM     15  C   UNL     1       3.211   4.758  24.510  0.00  0.00    +0.122 C 
ATOM     16  C   UNL     1       1.922   4.654  23.663  0.00  0.00    +0.103 C 
ATOM     17  N   UNL     1       1.745   5.707  22.645  0.00  0.00    -0.302 NA
ATOM     18  C   UNL     1       1.516   7.014  23.260  0.00  0.00    +0.105 C 
ATOM     19  C   UNL     1       2.948   5.708  21.784  0.00  0.00    +0.103 C 
ATOM     20  C   UNL     1       4.284   5.885  22.533  0.00  0.00    +0.122 C 
ATOM     21  N   UNL     1       5.785   3.535  22.454  0.00  0.00    -0.235 NA
ATOM     22  C   UNL     1       6.797   2.624  22.446  0.00  0.00    +0.146 A 
ENDBRANCH   5   9
BRANCH   2  23
ATOM     23  C   UNL     1       6.941  -1.553  25.389  0.00  0.00    +0.232 C 
ATOM     24  N   UNL     1       6.011  -0.591  25.724  0.00  0.00    -0.309 N 
ATOM     25  H   UNL     1       5.307  -0.417  25.007  0.00  0.00    +0.149 HD
ATOM     26  O   UNL     1       7.767  -1.995  26.188  0.00  0.00    -0.274 OA
BRANCH  24  27
ATOM     27  C   UNL     1       5.766  -0.128  27.098  0.00  0.00    +0.026 C 
ATOM     28  C   UNL     1       5.329  -1.291  28.007  0.00  0.00    +0.031 C 
ATOM     29  C   UNL     1       4.629   0.909  27.079  0.00  0.00    +0.031 C 
ATOM     30  C   UNL     1       7.023   0.546  27.672  0.00  0.00    +0.031 C 
ENDBRANCH  24  27
ENDBRANCH   2  23
BRANCH   1  31
ATOM     31  C   UNL     1       7.748  -3.595  22.268  0.00  0.00    +0.116 C 
BRANCH  31  32
ATOM     32  C   UNL     1       7.188  -5.035  22.246  0.00  0.00    +0.129 C 
BRANCH  32  33
ATOM     33  O   UNL     1       6.238  -5.091  21.182  0.00  0.00    -0.391 OA
ATOM     34  H   UNL     1       5.372  -5.345  21.557  0.00  0.00    +0.210 HD
ENDBRANCH  32  33
BRANCH  32  35
ATOM     35  C   UNL     1       6.531  -5.414  23.581  0.00  0.00    +0.045 C 
BRANCH  35  36
ATOM     36  C   UNL     1       5.179  -6.152  23.457  0.00  0.00    +0.082 C 
BRANCH  36  39
ATOM     37  N   UNL     1       5.253  -6.170  25.914  0.00  0.00    -0.309 N 
ATOM     38  H   UNL     1       5.937  -5.431  25.815  0.00  0.00    +0.149 HD
ATOM     39  C   UNL     1       4.768  -6.782  24.785  0.00  0.00    +0.217 C 
ATOM     40  O   UNL     1       4.010  -7.749  24.823  0.00  0.00    -0.275 OA
BRANCH  37  43
ATOM     41  C   UNL     1       6.233  -6.730  29.458  0.00  0.00    +0.009 C 
ATOM     42  C   UNL     1       5.684  -5.793  28.377  0.00  0.00    +0.009 C 
ATOM     43  C   UNL     1       4.907  -6.567  27.288  0.00  0.00    +0.104 C 
ATOM     44  C   UNL     1       3.409  -6.370  27.611  0.00  0.00    +0.135 C 
ATOM     45  C   UNL     1       3.342  -5.543  28.892  0.00  0.00    +0.033 C 
ATOM     46  C   UNL     1       4.673  -4.817  28.981  0.00  0.00    +0.008 C 
BRANCH  44  47
ATOM     47  O   UNL     1       2.781  -7.636  27.809  0.00  0.00    -0.390 OA
ATOM     48  H   UNL     1       3.420  -8.201  28.279  0.00  0.00    +0.210 HD
ENDBRANCH  44  47
ENDBRANCH  37  43
ENDBRANCH  36  39
BRANCH  36  49
ATOM     49  C   UNL     1       4.026  -5.241  22.961  0.00  0.00    +0.048 C 
BRANCH  49  50
ATOM     50  C   UNL     1       3.216  -4.577  24.048  0.00  0.00    -0.047 A 
ATOM     51  C   UNL     1       1.900  -4.983  24.303  0.00  0.00    +0.003 A 
ATOM     52  C   UNL     1       1.159  -4.403  25.335  0.00  0.00    +0.000 A 
ATOM     53  C   UNL     1       1.713  -3.376  26.092  0.00  0.00    +0.000 A 
ATOM     54  C   UNL     1       3.005  -2.928  25.818  0.00  0.00    +0.000 A 
ATOM     55  C   UNL     1       3.754  -3.528  24.800  0.00  0.00    +0.003 A 
ENDBRANCH  49  50
ENDBRANCH  36  49
ENDBRANCH  35  36
ENDBRANCH  32  35
ENDBRANCH  31  32
ENDBRANCH   1  31
TORSDOF 13
ENDMDL
MODEL 4
REMARK VINA RESULT:      -7.6      3.250      9.650
REMARK  Name = 
REMARK  18 active torsions:
REMARK  status: ('A' for Active; 'I' for Inactive)
REMARK    1  A    between atoms: C_1  and  C_2
REMARK    2  A    between atoms: C_6  and  O_8
REMARK    3  A    between atoms: C_9  and  N_11
REMARK    4  A    between atoms: C_12  and  C_14
REMARK    5  A    between atoms: C_14  and  C_16
REMARK    6  A    between atoms: C_14  and  C_51
REMARK    7  A    between atoms: C_16  and  C_17
REMARK    8  A    between atoms: C_17  and  O_19
REMARK    9  A    between atoms: C_17  and  C_20
REMARK   10  A    between atoms: C_20  and  N_21
REMARK   11  A    between atoms: C_26  and  C_28
REMARK   12  A    between atoms: N_30  and  C_31
REMARK   13  A    between atoms: C_31  and  C_32
REMARK   14  A    between atoms: C_31  and  C_33
REMARK   15  A    between atoms: C_31  and  C_34
REMARK   16  A    between atoms: C_35  and  C_37
REMARK   17  A    between atoms: N_44  and  C_45
REMARK   18  A    between atoms: C_51  and  C_52
REMARK                            x       y       z     vdW  Elec       q    Type
REMARK                         _______ _______ _______ _____ _____    ______ ____
ROOT
ATOM      1  N   UNL     1      10.154   1.150  23.975  0.00  0.00    -0.286 NA
ATOM      2  C   UNL     1       9.270   2.159  24.661  0.00  0.00    +0.161 C 
ATOM      3  C   UNL     1       7.757   1.883  24.477  0.00  0.00    +0.136 C 
ATOM      4  N   UNL     1       7.405   1.759  23.049  0.00  0.00    -0.293 N 
ATOM      5  C   UNL     1       6.491   2.573  22.374  0.00  0.00    +0.267 C 
ATOM      6  O   UNL     1       6.442   2.631  21.144  0.00  0.00    -0.268 OA
ATOM      7  C   UNL     1       8.239   0.835  22.286  0.00  0.00    +0.123 C 
ATOM      8  C   UNL     1       9.739   1.048  22.552  0.00  0.00    +0.104 C 
ENDROOT
BRANCH   5   9
ATOM      9  C   UNL     1       5.523   3.403  23.143  0.00  0.00    +0.145 A 
ATOM     10  N   UNL     1       5.517   4.740  22.931  0.00  0.00    -0.226 NA
ATOM     11  C   UNL     1       4.572   5.416  23.624  0.00  0.00    +0.170 A 
ATOM     12 CL   UNL     1       4.487   7.066  23.120  0.00  0.00    -0.058 Cl
ATOM     13  C   UNL     1       3.680   4.831  24.556  0.00  0.00    +0.159 A 
ATOM     14  N   UNL     1       2.692   5.548  25.216  0.00  0.00    -0.310 N 
ATOM     15  C   UNL     1       3.096   6.717  26.014  0.00  0.00    +0.122 C 
ATOM     16  C   UNL     1       2.829   6.534  27.526  0.00  0.00    +0.103 C 
ATOM     17  N   UNL     1       1.492   6.016  27.876  0.00  0.00    -0.302 NA
ATOM     18  C   UNL     1       0.443   6.988  27.569  0.00  0.00    +0.105 C 
ATOM     19  C   UNL     1       1.295   4.745  27.143  0.00  0.00    +0.103 C 
ATOM     20  C   UNL     1       1.464   4.843  25.614  0.00  0.00    +0.122 C 
ATOM     21  N   UNL     1       3.760   3.494  24.783  0.00  0.00    -0.235 NA
ATOM     22  C   UNL     1       4.687   2.800  24.066  0.00  0.00    +0.146 A 
ENDBRANCH   5   9
BRANCH   2  23
ATOM     23  C   UNL     1       9.556   3.602  24.171  0.00  0.00    +0.232 C 
ATOM     24  N   UNL     1       8.567   4.522  24.450  0.00  0.00    -0.309 N 
ATOM     25  H   UNL     1       7.848   4.186  25.090  0.00  0.00    +0.149 HD
ATOM     26  O   UNL     1      10.576   3.884  23.541  0.00  0.00    -0.274 OA
BRANCH  24  27
ATOM     27  C   UNL     1       8.695   5.967  24.208  0.00  0.00    +0.026 C 
ATOM     28  C   UNL     1       7.693   6.765  25.063  0.00  0.00    +0.031 C 
ATOM     29  C   UNL     1       8.387   6.253  22.728  0.00  0.00    +0.031 C 
ATOM     30  C   UNL     1      10.130   6.437  24.501  0.00  0.00    +0.031 C 
ENDBRANCH  24  27
ENDBRANCH   2  23
BRANCH   1  31
ATOM     31  C   UNL     1      10.026  -0.150  24.682  0.00  0.00    +0.116 C 
BRANCH  31  32
ATOM     32  C   UNL     1       8.880  -0.269  25.712  0.00  0.00    +0.129 C 
BRANCH  32  33
ATOM     33  O   UNL     1       9.491  -0.410  26.993  0.00  0.00    -0.391 OA
ATOM     34  H   UNL     1       9.482  -1.357  27.235  0.00  0.00    +0.210 HD
ENDBRANCH  32  33
BRANCH  32  35
ATOM     35  C   UNL     1       7.964  -1.465  25.412  0.00  0.00    +0.045 C 
BRANCH  35  36
ATOM     36  C   UNL     1       8.622  -2.851  25.592  0.00  0.00    +0.082 C 
BRANCH  36  39
ATOM     37  N   UNL     1       6.349  -3.732  25.915  0.00  0.00    -0.309 N 
ATOM     38  H   UNL     1       6.058  -2.961  25.329  0.00  0.00    +0.149 HD
ATOM     39  C   UNL     1       7.671  -3.832  26.274  0.00  0.00    +0.217 C 
ATOM     40  O   UNL     1       8.088  -4.681  27.058  0.00  0.00    -0.275 OA
BRANCH  37  43
ATOM     41  C   UNL     1       2.778  -4.375  26.730  0.00  0.00    +0.009 C 
ATOM     42  C   UNL     1       3.921  -4.407  25.710  0.00  0.00    +0.009 C 
ATOM     43  C   UNL     1       5.290  -4.636  26.390  0.00  0.00    +0.104 C 
ATOM     44  C   UNL     1       5.629  -6.127  26.173  0.00  0.00    +0.135 C 
ATOM     45  C   UNL     1       4.448  -6.743  25.428  0.00  0.00    +0.033 C 
ATOM     46  C   UNL     1       3.744  -5.582  24.747  0.00  0.00    +0.008 C 
BRANCH  44  47
ATOM     47  O   UNL     1       5.811  -6.775  27.432  0.00  0.00    -0.390 OA
ATOM     48  H   UNL     1       6.087  -7.690  27.245  0.00  0.00    +0.210 HD
ENDBRANCH  44  47
ENDBRANCH  37  43
ENDBRANCH  36  39
BRANCH  36  49
ATOM     49  C   UNL     1       9.108  -3.477  24.258  0.00  0.00    +0.048 C 
BRANCH  49  50
ATOM     50  C   UNL     1       8.016  -4.010  23.361  0.00  0.00    -0.047 A 
ATOM     51  C   UNL     1       7.175  -3.131  22.666  0.00  0.00    +0.003 A 
ATOM     52  C   UNL     1       6.191  -3.616  21.801  0.00  0.00    +0.000 A 
ATOM     53  C   UNL     1       6.008  -4.988  21.661  0.00  0.00    +0.000 A 
ATOM     54  C   UNL     1       6.806  -5.874  22.383  0.00  0.00    +0.000 A 
ATOM     55  C   UNL     1       7.807  -5.385  23.230  0.00  0.00    +0.003 A 
ENDBRANCH  49  50
ENDBRANCH  36  49
ENDBRANCH  35  36
ENDBRANCH  32  35
ENDBRANCH  31  32
ENDBRANCH   1  31
TORSDOF 13
ENDMDL
MODEL 5
REMARK VINA RESULT:      -7.5      2.806      5.117
REMARK  Name = 
REMARK  18 active torsions:
REMARK  status: ('A' for Active; 'I' for Inactive)
REMARK    1  A    between atoms: C_1  and  C_2
REMARK    2  A    between atoms: C_6  and  O_8
REMARK    3  A    between atoms: C_9  and  N_11
REMARK    4  A    between atoms: C_12  and  C_14
REMARK    5  A    between atoms: C_14  and  C_16
REMARK    6  A    between atoms: C_14  and  C_51
REMARK    7  A    between atoms: C_16  and  C_17
REMARK    8  A    between atoms: C_17  and  O_19
REMARK    9  A    between atoms: C_17  and  C_20
REMARK   10  A    between atoms: C_20  and  N_21
REMARK   11  A    between atoms: C_26  and  C_28
REMARK   12  A    between atoms: N_30  and  C_31
REMARK   13  A    between atoms: C_31  and  C_32
REMARK   14  A    between atoms: C_31  and  C_33
REMARK   15  A    between atoms: C_31  and  C_34
REMARK   16  A    between atoms: C_35  and  C_37
REMARK   17  A    between atoms: N_44  and  C_45
REMARK   18  A    between atoms: C_51  and  C_52
REMARK                            x       y       z     vdW  Elec       q    Type
REMARK                         _______ _______ _______ _____ _____    ______ ____
ROOT
ATOM      1  N   UNL     1       8.620  -3.497  23.605  0.00  0.00    -0.286 NA
ATOM      2  C   UNL     1       7.415  -2.597  23.689  0.00  0.00    +0.161 C 
ATOM      3  C   UNL     1       7.283  -1.863  25.047  0.00  0.00    +0.136 C 
ATOM      4  N   UNL     1       7.310  -2.814  26.175  0.00  0.00    -0.293 N 
ATOM      5  C   UNL     1       6.284  -2.980  27.110  0.00  0.00    +0.267 C 
ATOM      6  O   UNL     1       6.215  -3.965  27.846  0.00  0.00    -0.268 OA
ATOM      7  C   UNL     1       8.420  -3.762  26.157  0.00  0.00    +0.123 C 
ATOM      8  C   UNL     1       8.608  -4.413  24.775  0.00  0.00    +0.104 C 
ENDROOT
BRANCH   5   9
ATOM      9  C   UNL     1       5.229  -1.939  27.250  0.00  0.00    +0.145 A 
ATOM     10  N   UNL     1       3.960  -2.263  26.913  0.00  0.00    -0.226 NA
ATOM     11  C   UNL     1       3.052  -1.283  27.121  0.00  0.00    +0.170 A 
ATOM     12 CL   UNL     1       1.441  -1.860  26.884  0.00  0.00    -0.058 Cl
ATOM     13  C   UNL     1       3.360   0.017  27.593  0.00  0.00    +0.159 A 
ATOM     14  N   UNL     1       2.396   0.985  27.841  0.00  0.00    -0.310 N 
ATOM     15  C   UNL     1       1.496   1.366  26.741  0.00  0.00    +0.122 C 
ATOM     16  C   UNL     1       1.683   2.834  26.293  0.00  0.00    +0.103 C 
ATOM     17  N   UNL     1       1.735   3.829  27.382  0.00  0.00    -0.302 NA
ATOM     18  C   UNL     1       0.443   3.952  28.058  0.00  0.00    +0.105 C 
ATOM     19  C   UNL     1       2.807   3.417  28.317  0.00  0.00    +0.103 C 
ATOM     20  C   UNL     1       2.665   1.989  28.881  0.00  0.00    +0.122 C 
ATOM     21  N   UNL     1       4.656   0.320  27.865  0.00  0.00    -0.235 NA
ATOM     22  C   UNL     1       5.574  -0.670  27.687  0.00  0.00    +0.146 A 
ENDBRANCH   5   9
BRANCH   2  23
ATOM     23  C   UNL     1       6.097  -3.376  23.437  0.00  0.00    +0.232 C 
ATOM     24  N   UNL     1       5.940  -4.521  24.190  0.00  0.00    -0.309 N 
ATOM     25  H   UNL     1       6.623  -4.629  24.940  0.00  0.00    +0.149 HD
ATOM     26  O   UNL     1       5.279  -3.010  22.593  0.00  0.00    -0.274 OA
BRANCH  24  27
ATOM     27  C   UNL     1       4.709  -5.325  24.218  0.00  0.00    +0.026 C 
ATOM     28  C   UNL     1       3.473  -4.439  24.460  0.00  0.00    +0.031 C 
ATOM     29  C   UNL     1       4.800  -6.335  25.375  0.00  0.00    +0.031 C 
ATOM     30  C   UNL     1       4.547  -6.109  22.905  0.00  0.00    +0.031 C 
ENDBRANCH  24  27
ENDBRANCH   2  23
BRANCH   1  31
ATOM     31  C   UNL     1       9.841  -2.652  23.577  0.00  0.00    +0.116 C 
BRANCH  31  32
ATOM     32  C   UNL     1       9.756  -1.340  22.765  0.00  0.00    +0.129 C 
BRANCH  32  33
ATOM     33  O   UNL     1      10.576  -1.517  21.610  0.00  0.00    -0.391 OA
ATOM     34  H   UNL     1      10.966  -0.653  21.375  0.00  0.00    +0.210 HD
ENDBRANCH  32  33
BRANCH  32  35
ATOM     35  C   UNL     1      10.226  -0.129  23.584  0.00  0.00    +0.045 C 
BRANCH  35  36
ATOM     36  C   UNL     1       9.155   0.961  23.811  0.00  0.00    +0.082 C 
BRANCH  36  39
ATOM     37  N   UNL     1       9.059   3.294  24.583  0.00  0.00    -0.309 N 
ATOM     38  H   UNL     1       8.115   3.071  24.870  0.00  0.00    +0.149 HD
ATOM     39  C   UNL     1       9.788   2.348  23.907  0.00  0.00    +0.217 C 
ATOM     40  O   UNL     1      10.904   2.571  23.442  0.00  0.00    -0.275 OA
BRANCH  37  43
ATOM     41  C   UNL     1      11.446   6.078  23.966  0.00  0.00    +0.009 C 
ATOM     42  C   UNL     1      10.125   5.378  23.629  0.00  0.00    +0.009 C 
ATOM     43  C   UNL     1       9.526   4.661  24.860  0.00  0.00    +0.104 C 
ATOM     44  C   UNL     1       8.405   5.584  25.388  0.00  0.00    +0.135 C 
ATOM     45  C   UNL     1       8.406   6.827  24.502  0.00  0.00    +0.033 C 
ATOM     46  C   UNL     1       9.072   6.403  23.205  0.00  0.00    +0.008 C 
BRANCH  44  47
ATOM     47  O   UNL     1       8.668   5.945  26.744  0.00  0.00    -0.390 OA
ATOM     48  H   UNL     1       9.070   5.169  27.173  0.00  0.00    +0.210 HD
ENDBRANCH  44  47
ENDBRANCH  37  43
ENDBRANCH  36  39
BRANCH  36  49
ATOM     49  C   UNL     1       8.065   0.988  22.708  0.00  0.00    +0.048 C 
BRANCH  49  50
ATOM     50  C   UNL     1       6.842   1.813  23.031  0.00  0.00    -0.047 A 
ATOM     51  C   UNL     1       6.510   2.929  22.251  0.00  0.00    +0.003 A 
ATOM     52  C   UNL     1       5.358   3.671  22.517  0.00  0.00    +0.000 A 
ATOM     53  C   UNL     1       4.549   3.331  23.598  0.00  0.00    +0.000 A 
ATOM     54  C   UNL     1       4.893   2.252  24.411  0.00  0.00    +0.000 A 
ATOM     55  C   UNL     1       6.035   1.495  24.127  0.00  0.00    +0.003 A 
ENDBRANCH  49  50
ENDBRANCH  36  49
ENDBRANCH  35  36
ENDBRANCH  32  35
ENDBRANCH  31  32
ENDBRANCH   1  31
TORSDOF 13
ENDMDL
MODEL 6
REMARK VINA RESULT:      -7.4      2.450      4.698
REMARK  Name = 
REMARK  18 active torsions:
REMARK  status: ('A' for Active; 'I' for Inactive)
REMARK    1  A    between atoms: C_1  and  C_2
REMARK    2  A    between atoms: C_6  and  O_8
REMARK    3  A    between atoms: C_9  and  N_11
REMARK    4  A    between atoms: C_12  and  C_14
REMARK    5  A    between atoms: C_14  and  C_16
REMARK    6  A    between atoms: C_14  and  C_51
REMARK    7  A    between atoms: C_16  and  C_17
REMARK    8  A    between atoms: C_17  and  O_19
REMARK    9  A    between atoms: C_17  and  C_20
REMARK   10  A    between atoms: C_20  and  N_21
REMARK   11  A    between atoms: C_26  and  C_28
REMARK   12  A    between atoms: N_30  and  C_31
REMARK   13  A    between atoms: C_31  and  C_32
REMARK   14  A    between atoms: C_31  and  C_33
REMARK   15  A    between atoms: C_31  and  C_34
REMARK   16  A    between atoms: C_35  and  C_37
REMARK   17  A    between atoms: N_44  and  C_45
REMARK   18  A    between atoms: C_51  and  C_52
REMARK                            x       y       z     vdW  Elec       q    Type
REMARK                         _______ _______ _______ _____ _____    ______ ____
ROOT
ATOM      1  N   UNL     1       8.467  -0.279  22.868  0.00  0.00    -0.286 NA
ATOM      2  C   UNL     1       7.251  -1.136  23.104  0.00  0.00    +0.161 C 
ATOM      3  C   UNL     1       6.794  -1.167  24.584  0.00  0.00    +0.136 C 
ATOM      4  N   UNL     1       7.899  -1.563  25.478  0.00  0.00    -0.293 N 
ATOM      5  C   UNL     1       7.892  -2.679  26.319  0.00  0.00    +0.267 C 
ATOM      6  O   UNL     1       8.921  -3.135  26.820  0.00  0.00    -0.268 OA
ATOM      7  C   UNL     1       9.141  -0.818  25.292  0.00  0.00    +0.123 C 
ATOM      8  C   UNL     1       9.535  -0.703  23.809  0.00  0.00    +0.104 C 
ENDROOT
BRANCH   5   9
ATOM      9  C   UNL     1       6.607  -3.356  26.647  0.00  0.00    +0.145 A 
ATOM     10  N   UNL     1       5.462  -2.830  26.153  0.00  0.00    -0.226 NA
ATOM     11  C   UNL     1       4.345  -3.533  26.448  0.00  0.00    +0.170 A 
ATOM     12 CL   UNL     1       2.975  -2.921  25.589  0.00  0.00    -0.058 Cl
ATOM     13  C   UNL     1       4.311  -4.695  27.256  0.00  0.00    +0.159 A 
ATOM     14  N   UNL     1       3.152  -5.419  27.500  0.00  0.00    -0.310 N 
ATOM     15  C   UNL     1       2.005  -4.714  28.095  0.00  0.00    +0.122 C 
ATOM     16  C   UNL     1       1.649  -5.230  29.508  0.00  0.00    +0.103 C 
ATOM     17  N   UNL     1       1.576  -6.697  29.649  0.00  0.00    -0.302 NA
ATOM     18  C   UNL     1       0.444  -7.251  28.906  0.00  0.00    +0.105 C 
ATOM     19  C   UNL     1       2.865  -7.259  29.186  0.00  0.00    +0.103 C 
ATOM     20  C   UNL     1       3.270  -6.863  27.752  0.00  0.00    +0.122 C 
ATOM     21  N   UNL     1       5.477  -5.157  27.781  0.00  0.00    -0.235 NA
ATOM     22  C   UNL     1       6.611  -4.473  27.464  0.00  0.00    +0.146 A 
ENDBRANCH   5   9
BRANCH   2  23
ATOM     23  C   UNL     1       7.480  -2.599  22.644  0.00  0.00    +0.232 C 
ATOM     24  N   UNL     1       6.610  -3.525  23.181  0.00  0.00    -0.309 N 
ATOM     25  H   UNL     1       5.818  -3.119  23.680  0.00  0.00    +0.149 HD
ATOM     26  O   UNL     1       8.402  -2.905  21.887  0.00  0.00    -0.274 OA
BRANCH  24  27
ATOM     27  C   UNL     1       6.554  -4.936  22.770  0.00  0.00    +0.026 C 
ATOM     28  C   UNL     1       6.337  -5.064  21.251  0.00  0.00    +0.031 C 
ATOM     29  C   UNL     1       5.366  -5.613  23.476  0.00  0.00    +0.031 C 
ATOM     30  C   UNL     1       7.841  -5.669  23.183  0.00  0.00    +0.031 C 
ENDBRANCH  24  27
ENDBRANCH   2  23
BRANCH   1  31
ATOM     31  C   UNL     1       8.089   1.144  23.065  0.00  0.00    +0.116 C 
BRANCH  31  32
ATOM     32  C   UNL     1       7.327   1.826  21.906  0.00  0.00    +0.129 C 
BRANCH  32  33
ATOM     33  O   UNL     1       8.269   2.014  20.850  0.00  0.00    -0.391 OA
ATOM     34  H   UNL     1       9.109   1.587  21.109  0.00  0.00    +0.210 HD
ENDBRANCH  32  33
BRANCH  32  35
ATOM     35  C   UNL     1       6.717   3.168  22.335  0.00  0.00    +0.045 C 
BRANCH  35  36
ATOM     36  C   UNL     1       5.416   3.059  23.161  0.00  0.00    +0.082 C 
BRANCH  36  39
ATOM     37  N   UNL     1       5.151   2.274  25.476  0.00  0.00    -0.309 N 
ATOM     38  H   UNL     1       4.515   1.593  25.083  0.00  0.00    +0.149 HD
ATOM     39  C   UNL     1       5.691   3.231  24.653  0.00  0.00    +0.217 C 
ATOM     40  O   UNL     1       6.394   4.149  25.068  0.00  0.00    -0.275 OA
BRANCH  37  43
ATOM     41  C   UNL     1       3.837   1.782  28.920  0.00  0.00    +0.009 C 
ATOM     42  C   UNL     1       4.462   1.189  27.654  0.00  0.00    +0.009 C 
ATOM     43  C   UNL     1       5.369   2.211  26.930  0.00  0.00    +0.104 C 
ATOM     44  C   UNL     1       6.820   1.833  27.304  0.00  0.00    +0.135 C 
ATOM     45  C   UNL     1       6.732   0.651  28.265  0.00  0.00    +0.033 C 
ATOM     46  C   UNL     1       5.377   0.016  28.009  0.00  0.00    +0.008 C 
BRANCH  44  47
ATOM     47  O   UNL     1       7.464   2.938  27.938  0.00  0.00    -0.390 OA
ATOM     48  H   UNL     1       6.980   3.114  28.764  0.00  0.00    +0.210 HD
ENDBRANCH  44  47
ENDBRANCH  37  43
ENDBRANCH  36  39
BRANCH  36  49
ATOM     49  C   UNL     1       4.331   4.083  22.734  0.00  0.00    +0.048 C 
BRANCH  49  50
ATOM     50  C   UNL     1       2.966   3.499  22.456  0.00  0.00    -0.047 A 
ATOM     51  C   UNL     1       2.611   3.108  21.159  0.00  0.00    +0.003 A 
ATOM     52  C   UNL     1       1.367   2.528  20.902  0.00  0.00    +0.000 A 
ATOM     53  C   UNL     1       0.447   2.376  21.935  0.00  0.00    +0.000 A 
ATOM     54  C   UNL     1       0.769   2.805  23.221  0.00  0.00    +0.000 A 
ATOM     55  C   UNL     1       2.025   3.364  23.481  0.00  0.00    +0.003 A 
ENDBRANCH  49  50
ENDBRANCH  36  49
ENDBRANCH  35  36
ENDBRANCH  32  35
ENDBRANCH  31  32
ENDBRANCH   1  31
TORSDOF 13
ENDMDL
MODEL 7
REMARK VINA RESULT:      -7.4      3.430      9.099
REMARK  Name = 
REMARK  18 active torsions:
REMARK  status: ('A' for Active; 'I' for Inactive)
REMARK    1  A    between atoms: C_1  and  C_2
REMARK    2  A    between atoms: C_6  and  O_8
REMARK    3  A    between atoms: C_9  and  N_11
REMARK    4  A    between atoms: C_12  and  C_14
REMARK    5  A    between atoms: C_14  and  C_16
REMARK    6  A    between atoms: C_14  and  C_51
REMARK    7  A    between atoms: C_16  and  C_17
REMARK    8  A    between atoms: C_17  and  O_19
REMARK    9  A    between atoms: C_17  and  C_20
REMARK   10  A    between atoms: C_20  and  N_21
REMARK   11  A    between atoms: C_26  and  C_28
REMARK   12  A    between atoms: N_30  and  C_31
REMARK   13  A    between atoms: C_31  and  C_32
REMARK   14  A    between atoms: C_31  and  C_33
REMARK   15  A    between atoms: C_31  and  C_34
REMARK   16  A    between atoms: C_35  and  C_37
REMARK   17  A    between atoms: N_44  and  C_45
REMARK   18  A    between atoms: C_51  and  C_52
REMARK                            x       y       z     vdW  Elec       q    Type
REMARK                         _______ _______ _______ _____ _____    ______ ____
ROOT
ATOM      1  N   UNL     1       6.660  -0.253  27.359  0.00  0.00    -0.286 NA
ATOM      2  C   UNL     1       5.619   0.087  26.324  0.00  0.00    +0.161 C 
ATOM      3  C   UNL     1       5.825   1.477  25.672  0.00  0.00    +0.136 C 
ATOM      4  N   UNL     1       5.921   2.539  26.691  0.00  0.00    -0.293 N 
ATOM      5  C   UNL     1       5.062   3.637  26.792  0.00  0.00    +0.267 C 
ATOM      6  O   UNL     1       4.992   4.330  27.808  0.00  0.00    -0.268 OA
ATOM      7  C   UNL     1       6.875   2.278  27.766  0.00  0.00    +0.123 C 
ATOM      8  C   UNL     1       6.731   0.858  28.342  0.00  0.00    +0.104 C 
ENDROOT
BRANCH   5   9
ATOM      9  C   UNL     1       4.196   4.011  25.640  0.00  0.00    +0.145 A 
ATOM     10  N   UNL     1       2.962   3.463  25.562  0.00  0.00    -0.226 NA
ATOM     11  C   UNL     1       2.217   3.896  24.519  0.00  0.00    +0.170 A 
ATOM     12 CL   UNL     1       0.590   3.324  24.631  0.00  0.00    -0.058 Cl
ATOM     13  C   UNL     1       2.666   4.800  23.525  0.00  0.00    +0.159 A 
ATOM     14  N   UNL     1       1.858   5.260  22.494  0.00  0.00    -0.310 N 
ATOM     15  C   UNL     1       1.229   4.267  21.609  0.00  0.00    +0.122 C 
ATOM     16  C   UNL     1       1.739   4.353  20.152  0.00  0.00    +0.103 C 
ATOM     17  N   UNL     1       1.786   5.711  19.574  0.00  0.00    -0.302 NA
ATOM     18  C   UNL     1       0.443   6.259  19.386  0.00  0.00    +0.105 C 
ATOM     19  C   UNL     1       2.603   6.555  20.475  0.00  0.00    +0.103 C 
ATOM     20  C   UNL     1       2.125   6.596  21.940  0.00  0.00    +0.122 C 
ATOM     21  N   UNL     1       3.934   5.283  23.609  0.00  0.00    -0.235 NA
ATOM     22  C   UNL     1       4.681   4.876  24.673  0.00  0.00    +0.146 A 
ENDBRANCH   5   9
BRANCH   2  23
ATOM     23  C   UNL     1       4.186   0.045  26.915  0.00  0.00    +0.232 C 
ATOM     24  N   UNL     1       4.050  -0.697  28.072  0.00  0.00    -0.309 N 
ATOM     25  H   UNL     1       4.933  -0.986  28.492  0.00  0.00    +0.149 HD
ATOM     26  O   UNL     1       3.238   0.601  26.360  0.00  0.00    -0.274 OA
BRANCH  24  27
ATOM     27  C   UNL     1       2.820  -0.749  28.875  0.00  0.00    +0.026 C 
ATOM     28  C   UNL     1       1.643  -1.308  28.054  0.00  0.00    +0.031 C 
ATOM     29  C   UNL     1       2.452   0.678  29.317  0.00  0.00    +0.031 C 
ATOM     30  C   UNL     1       3.036  -1.603  30.136  0.00  0.00    +0.031 C 
ENDBRANCH  24  27
ENDBRANCH   2  23
BRANCH   1  31
ATOM     31  C   UNL     1       7.959  -0.466  26.670  0.00  0.00    +0.116 C 
BRANCH  31  32
ATOM     32  C   UNL     1       8.082  -1.740  25.803  0.00  0.00    +0.129 C 
BRANCH  32  33
ATOM     33  O   UNL     1       8.184  -2.842  26.703  0.00  0.00    -0.391 OA
ATOM     34  H   UNL     1       8.628  -3.579  26.238  0.00  0.00    +0.210 HD
ENDBRANCH  32  33
BRANCH  32  35
ATOM     35  C   UNL     1       9.304  -1.682  24.874  0.00  0.00    +0.045 C 
BRANCH  35  36
ATOM     36  C   UNL     1       9.241  -2.628  23.654  0.00  0.00    +0.082 C 
BRANCH  36  39
ATOM     37  N   UNL     1       7.209  -4.013  23.707  0.00  0.00    -0.309 N 
ATOM     38  H   UNL     1       6.734  -3.178  23.391  0.00  0.00    +0.149 HD
ATOM     39  C   UNL     1       8.548  -3.942  24.006  0.00  0.00    +0.217 C 
ATOM     40  O   UNL     1       9.176  -4.884  24.485  0.00  0.00    -0.275 OA
BRANCH  37  43
ATOM     41  C   UNL     1       5.321  -6.330  25.919  0.00  0.00    +0.009 C 
ATOM     42  C   UNL     1       5.336  -5.090  25.020  0.00  0.00    +0.009 C 
ATOM     43  C   UNL     1       6.381  -5.215  23.888  0.00  0.00    +0.104 C 
ATOM     44  C   UNL     1       5.589  -5.596  22.617  0.00  0.00    +0.135 C 
ATOM     45  C   UNL     1       4.128  -5.736  23.036  0.00  0.00    +0.033 C 
ATOM     46  C   UNL     1       3.990  -4.926  24.314  0.00  0.00    +0.008 C 
BRANCH  44  47
ATOM     47  O   UNL     1       6.072  -6.833  22.093  0.00  0.00    -0.390 OA
ATOM     48  H   UNL     1       6.962  -6.664  21.737  0.00  0.00    +0.210 HD
ENDBRANCH  44  47
ENDBRANCH  37  43
ENDBRANCH  36  39
BRANCH  36  49
ATOM     49  C   UNL     1       8.523  -2.001  22.429  0.00  0.00    +0.048 C 
BRANCH  49  50
ATOM     50  C   UNL     1       8.611  -0.497  22.331  0.00  0.00    -0.047 A 
ATOM     51  C   UNL     1       9.821   0.125  21.999  0.00  0.00    +0.003 A 
ATOM     52  C   UNL     1       9.900   1.513  21.864  0.00  0.00    +0.000 A 
ATOM     53  C   UNL     1       8.776   2.296  22.108  0.00  0.00    +0.000 A 
ATOM     54  C   UNL     1       7.577   1.695  22.487  0.00  0.00    +0.000 A 
ATOM     55  C   UNL     1       7.495   0.302  22.597  0.00  0.00    +0.003 A 
ENDBRANCH  49  50
ENDBRANCH  36  49
ENDBRANCH  35  36
ENDBRANCH  32  35
ENDBRANCH  31  32
ENDBRANCH   1  31
TORSDOF 13
ENDMDL
MODEL 8
REMARK VINA RESULT:      -7.2      3.700     10.098
REMARK  Name = 
REMARK  18 active torsions:
REMARK  status: ('A' for Active; 'I' for Inactive)
REMARK    1  A    between atoms: C_1  and  C_2
REMARK    2  A    between atoms: C_6  and  O_8
REMARK    3  A    between atoms: C_9  and  N_11
REMARK    4  A    between atoms: C_12  and  C_14
REMARK    5  A    between atoms: C_14  and  C_16
REMARK    6  A    between atoms: C_14  and  C_51
REMARK    7  A    between atoms: C_16  and  C_17
REMARK    8  A    between atoms: C_17  and  O_19
REMARK    9  A    between atoms: C_17  and  C_20
REMARK   10  A    between atoms: C_20  and  N_21
REMARK   11  A    between atoms: C_26  and  C_28
REMARK   12  A    between atoms: N_30  and  C_31
REMARK   13  A    between atoms: C_31  and  C_32
REMARK   14  A    between atoms: C_31  and  C_33
REMARK   15  A    between atoms: C_31  and  C_34
REMARK   16  A    between atoms: C_35  and  C_37
REMARK   17  A    between atoms: N_44  and  C_45
REMARK   18  A    between atoms: C_51  and  C_52
REMARK                            x       y       z     vdW  Elec       q    Type
REMARK                         _______ _______ _______ _____ _____    ______ ____
ROOT
ATOM      1  N   UNL     1       2.711   1.535  27.573  0.00  0.00    -0.286 NA
ATOM      2  C   UNL     1       3.680   1.828  26.458  0.00  0.00    +0.161 C 
ATOM      3  C   UNL     1       5.092   2.230  26.955  0.00  0.00    +0.136 C 
ATOM      4  N   UNL     1       5.025   3.357  27.904  0.00  0.00    -0.293 N 
ATOM      5  C   UNL     1       5.644   4.597  27.724  0.00  0.00    +0.267 C 
ATOM      6  O   UNL     1       5.332   5.593  28.380  0.00  0.00    -0.268 OA
ATOM      7  C   UNL     1       4.074   3.186  28.999  0.00  0.00    +0.123 C 
ATOM      8  C   UNL     1       2.703   2.689  28.508  0.00  0.00    +0.104 C 
ENDROOT
BRANCH   5   9
ATOM      9  C   UNL     1       6.730   4.747  26.717  0.00  0.00    +0.145 A 
ATOM     10  N   UNL     1       6.547   4.205  25.491  0.00  0.00    -0.226 NA
ATOM     11  C   UNL     1       7.554   4.432  24.617  0.00  0.00    +0.170 A 
ATOM     12 CL   UNL     1       7.132   3.907  23.026  0.00  0.00    -0.058 Cl
ATOM     13  C   UNL     1       8.752   5.121  24.926  0.00  0.00    +0.159 A 
ATOM     14  N   UNL     1       9.745   5.378  23.991  0.00  0.00    -0.310 N 
ATOM     15  C   UNL     1      10.336   4.236  23.274  0.00  0.00    +0.122 C 
ATOM     16  C   UNL     1      11.833   4.032  23.599  0.00  0.00    +0.103 C 
ATOM     17  N   UNL     1      12.665   5.249  23.554  0.00  0.00    -0.302 NA
ATOM     18  C   UNL     1      12.790   5.762  22.189  0.00  0.00    +0.105 C 
ATOM     19  C   UNL     1      12.055   6.246  24.461  0.00  0.00    +0.103 C 
ATOM     20  C   UNL     1      10.578   6.577  24.166  0.00  0.00    +0.122 C 
ATOM     21  N   UNL     1       8.921   5.600  26.187  0.00  0.00    -0.235 NA
ATOM     22  C   UNL     1       7.900   5.402  27.065  0.00  0.00    +0.146 A 
ENDBRANCH   5   9
BRANCH   2  23
ATOM     23  C   UNL     1       3.163   2.954  25.526  0.00  0.00    +0.232 C 
ATOM     24  N   UNL     1       3.738   2.988  24.272  0.00  0.00    -0.309 N 
ATOM     25  H   UNL     1       4.306   2.172  24.048  0.00  0.00    +0.149 HD
ATOM     26  O   UNL     1       2.330   3.779  25.905  0.00  0.00    -0.274 OA
BRANCH  24  27
ATOM     27  C   UNL     1       3.293   3.875  23.187  0.00  0.00    +0.026 C 
ATOM     28  C   UNL     1       1.759   3.853  23.045  0.00  0.00    +0.031 C 
ATOM     29  C   UNL     1       3.897   3.381  21.861  0.00  0.00    +0.031 C 
ATOM     30  C   UNL     1       3.779   5.313  23.432  0.00  0.00    +0.031 C 
ENDBRANCH  24  27
ENDBRANCH   2  23
BRANCH   1  31
ATOM     31  C   UNL     1       3.129   0.279  28.247  0.00  0.00    +0.116 C 
BRANCH  31  32
ATOM     32  C   UNL     1       3.189  -0.991  27.369  0.00  0.00    +0.129 C 
BRANCH  32  33
ATOM     33  O   UNL     1       2.325  -1.951  27.977  0.00  0.00    -0.391 OA
ATOM     34  H   UNL     1       1.589  -1.473  28.407  0.00  0.00    +0.210 HD
ENDBRANCH  32  33
BRANCH  32  35
ATOM     35  C   UNL     1       4.618  -1.542  27.256  0.00  0.00    +0.045 C 
BRANCH  35  36
ATOM     36  C   UNL     1       5.084  -1.858  25.817  0.00  0.00    +0.082 C 
BRANCH  36  39
ATOM     37  N   UNL     1       7.026  -1.068  24.533  0.00  0.00    -0.309 N 
ATOM     38  H   UNL     1       6.354  -0.860  23.806  0.00  0.00    +0.149 HD
ATOM     39  C   UNL     1       6.595  -1.696  25.675  0.00  0.00    +0.217 C 
ATOM     40  O   UNL     1       7.361  -2.068  26.562  0.00  0.00    -0.275 OA
BRANCH  37  43
ATOM     41  C   UNL     1      10.387  -2.061  23.289  0.00  0.00    +0.009 C 
ATOM     42  C   UNL     1       9.004  -1.466  23.008  0.00  0.00    +0.009 C 
ATOM     43  C   UNL     1       8.431  -0.738  24.246  0.00  0.00    +0.104 C 
ATOM     44  C   UNL     1       8.655   0.770  23.995  0.00  0.00    +0.135 C 
ATOM     45  C   UNL     1       9.390   0.889  22.663  0.00  0.00    +0.033 C 
ATOM     46  C   UNL     1       9.093  -0.400  21.916  0.00  0.00    +0.008 C 
BRANCH  44  47
ATOM     47  O   UNL     1       9.445   1.327  25.045  0.00  0.00    -0.390 OA
ATOM     48  H   UNL     1      10.375   1.269  24.765  0.00  0.00    +0.210 HD
ENDBRANCH  44  47
ENDBRANCH  37  43
ENDBRANCH  36  39
BRANCH  36  49
ATOM     49  C   UNL     1       4.691  -3.283  25.345  0.00  0.00    +0.048 C 
BRANCH  49  50
ATOM     50  C   UNL     1       5.491  -3.821  24.183  0.00  0.00    -0.047 A 
ATOM     51  C   UNL     1       5.228  -3.387  22.877  0.00  0.00    +0.003 A 
ATOM     52  C   UNL     1       5.992  -3.847  21.803  0.00  0.00    +0.000 A 
ATOM     53  C   UNL     1       6.998  -4.784  22.019  0.00  0.00    +0.000 A 
ATOM     54  C   UNL     1       7.239  -5.262  23.306  0.00  0.00    +0.000 A 
ATOM     55  C   UNL     1       6.488  -4.780  24.385  0.00  0.00    +0.003 A 
ENDBRANCH  49  50
ENDBRANCH  36  49
ENDBRANCH  35  36
ENDBRANCH  32  35
ENDBRANCH  31  32
ENDBRANCH   1  31
TORSDOF 13
ENDMDL
MODEL 9
REMARK VINA RESULT:      -7.2      3.286      9.007
REMARK  Name = 
REMARK  18 active torsions:
REMARK  status: ('A' for Active; 'I' for Inactive)
REMARK    1  A    between atoms: C_1  and  C_2
REMARK    2  A    between atoms: C_6  and  O_8
REMARK    3  A    between atoms: C_9  and  N_11
REMARK    4  A    between atoms: C_12  and  C_14
REMARK    5  A    between atoms: C_14  and  C_16
REMARK    6  A    between atoms: C_14  and  C_51
REMARK    7  A    between atoms: C_16  and  C_17
REMARK    8  A    between atoms: C_17  and  O_19
REMARK    9  A    between atoms: C_17  and  C_20
REMARK   10  A    between atoms: C_20  and  N_21
REMARK   11  A    between atoms: C_26  and  C_28
REMARK   12  A    between atoms: N_30  and  C_31
REMARK   13  A    between atoms: C_31  and  C_32
REMARK   14  A    between atoms: C_31  and  C_33
REMARK   15  A    between atoms: C_31  and  C_34
REMARK   16  A    between atoms: C_35  and  C_37
REMARK   17  A    between atoms: N_44  and  C_45
REMARK   18  A    between atoms: C_51  and  C_52
REMARK                            x       y       z     vdW  Elec       q    Type
REMARK                         _______ _______ _______ _____ _____    ______ ____
ROOT
ATOM      1  N   UNL     1       8.763  -3.503  23.385  0.00  0.00    -0.286 NA
ATOM      2  C   UNL     1       9.002  -2.374  24.353  0.00  0.00    +0.161 C 
ATOM      3  C   UNL     1       7.698  -1.754  24.915  0.00  0.00    +0.136 C 
ATOM      4  N   UNL     1       6.792  -1.334  23.829  0.00  0.00    -0.293 N 
ATOM      5  C   UNL     1       6.339  -0.028  23.620  0.00  0.00    +0.267 C 
ATOM      6  O   UNL     1       5.833   0.333  22.557  0.00  0.00    -0.268 OA
ATOM      7  C   UNL     1       6.536  -2.350  22.811  0.00  0.00    +0.123 C 
ATOM      8  C   UNL     1       7.828  -3.033  22.331  0.00  0.00    +0.104 C 
ENDROOT
BRANCH   5   9
ATOM      9  C   UNL     1       6.449   0.980  24.710  0.00  0.00    +0.145 A 
ATOM     10  N   UNL     1       6.712   0.543  25.963  0.00  0.00    -0.226 NA
ATOM     11  C   UNL     1       6.853   1.523  26.885  0.00  0.00    +0.170 A 
ATOM     12 CL   UNL     1       7.412   0.889  28.392  0.00  0.00    -0.058 Cl
ATOM     13  C   UNL     1       6.685   2.905  26.626  0.00  0.00    +0.159 A 
ATOM     14  N   UNL     1       6.883   3.888  27.586  0.00  0.00    -0.310 N 
ATOM     15  C   UNL     1       6.104   3.809  28.832  0.00  0.00    +0.122 C 
ATOM     16  C   UNL     1       5.121   4.991  29.002  0.00  0.00    +0.103 C 
ATOM     17  N   UNL     1       5.687   6.329  28.746  0.00  0.00    -0.302 NA
ATOM     18  C   UNL     1       6.674   6.697  29.761  0.00  0.00    +0.105 C 
ATOM     19  C   UNL     1       6.274   6.317  27.387  0.00  0.00    +0.103 C 
ATOM     20  C   UNL     1       7.328   5.218  27.144  0.00  0.00    +0.122 C 
ATOM     21  N   UNL     1       6.363   3.298  25.366  0.00  0.00    -0.235 NA
ATOM     22  C   UNL     1       6.249   2.320  24.424  0.00  0.00    +0.146 A 
ENDBRANCH   5   9
BRANCH   2  23
ATOM     23  C   UNL     1       9.835  -1.233  23.713  0.00  0.00    +0.232 C 
ATOM     24  N   UNL     1       9.521   0.037  24.150  0.00  0.00    -0.309 N 
ATOM     25  H   UNL     1       8.903   0.063  24.960  0.00  0.00    +0.149 HD
ATOM     26  O   UNL     1      10.682  -1.455  22.847  0.00  0.00    -0.274 OA
BRANCH  24  27
ATOM     27  C   UNL     1      10.282   1.243  23.787  0.00  0.00    +0.026 C 
ATOM     28  C   UNL     1      11.750   1.129  24.236  0.00  0.00    +0.031 C 
ATOM     29  C   UNL     1       9.662   2.456  24.501  0.00  0.00    +0.031 C 
ATOM     30  C   UNL     1      10.211   1.488  22.271  0.00  0.00    +0.031 C 
ENDBRANCH  24  27
ENDBRANCH   2  23
BRANCH   1  31
ATOM     31  C   UNL     1       8.213  -4.661  24.135  0.00  0.00    +0.116 C 
BRANCH  31  32
ATOM     32  C   UNL     1       8.875  -4.983  25.494  0.00  0.00    +0.129 C 
BRANCH  32  33
ATOM     33  O   UNL     1       9.882  -5.962  25.239  0.00  0.00    -0.391 OA
ATOM     34  H   UNL     1       9.502  -6.846  25.414  0.00  0.00    +0.210 HD
ENDBRANCH  32  33
BRANCH  32  35
ATOM     35  C   UNL     1       7.855  -5.507  26.516  0.00  0.00    +0.045 C 
BRANCH  35  36
ATOM     36  C   UNL     1       6.481  -4.801  26.487  0.00  0.00    +0.082 C 
BRANCH  36  39
ATOM     37  N   UNL     1       4.461  -5.321  25.184  0.00  0.00    -0.309 N 
ATOM     38  H   UNL     1       4.501  -4.353  24.895  0.00  0.00    +0.149 HD
ATOM     39  C   UNL     1       5.366  -5.775  26.112  0.00  0.00    +0.217 C 
ATOM     40  O   UNL     1       5.326  -6.908  26.585  0.00  0.00    -0.275 OA
BRANCH  37  43
ATOM     41  C   UNL     1       1.537  -7.568  25.666  0.00  0.00    +0.009 C 
ATOM     42  C   UNL     1       2.093  -6.150  25.504  0.00  0.00    +0.009 C 
ATOM     43  C   UNL     1       3.367  -6.131  24.627  0.00  0.00    +0.104 C 
ATOM     44  C   UNL     1       2.915  -5.651  23.230  0.00  0.00    +0.135 C 
ATOM     45  C   UNL     1       1.403  -5.452  23.301  0.00  0.00    +0.033 C 
ATOM     46  C   UNL     1       1.085  -5.262  24.774  0.00  0.00    +0.008 C 
BRANCH  44  47
ATOM     47  O   UNL     1       3.237  -6.634  22.247  0.00  0.00    -0.390 OA
ATOM     48  H   UNL     1       2.526  -7.299  22.264  0.00  0.00    +0.210 HD
ENDBRANCH  44  47
ENDBRANCH  37  43
ENDBRANCH  36  39
BRANCH  36  49
ATOM     49  C   UNL     1       6.113  -4.120  27.831  0.00  0.00    +0.048 C 
BRANCH  49  50
ATOM     50  C   UNL     1       4.824  -3.333  27.824  0.00  0.00    -0.047 A 
ATOM     51  C   UNL     1       4.715  -2.153  27.077  0.00  0.00    +0.003 A 
ATOM     52  C   UNL     1       3.514  -1.443  27.031  0.00  0.00    +0.000 A 
ATOM     53  C   UNL     1       2.421  -1.883  27.771  0.00  0.00    +0.000 A 
ATOM     54  C   UNL     1       2.529  -3.029  28.557  0.00  0.00    +0.000 A 
ATOM     55  C   UNL     1       3.727  -3.752  28.582  0.00  0.00    +0.003 A 
ENDBRANCH  49  50
ENDBRANCH  36  49
ENDBRANCH  35  36
ENDBRANCH  32  35
ENDBRANCH  31  32
ENDBRANCH   1  31
TORSDOF 13
ENDMDL
