MODEL 1
REMARK VINA RESULT:      -5.0      0.000      0.000
REMARK  Name = 
REMARK  8 active torsions:
REMARK  status: ('A' for Active; 'I' for Inactive)
REMARK    1  A    between atoms: C_1  and  O_2
REMARK    2  A    between atoms: O_2  and  C_3
REMARK    3  A    between atoms: C_8  and  C_9
REMARK    4  A    between atoms: N_10  and  O_11
REMARK    5  A    between atoms: O_11  and  C_12
REMARK    6  A    between atoms: C_12  and  C_13
REMARK    7  A    between atoms: C_13  and  C_14
REMARK    8  A    between atoms: C_14  and  O_15
REMARK                            x       y       z     vdW  Elec       q    Type
REMARK                         _______ _______ _______ _____ _____    ______ ____
ROOT
ATOM      1  C   UNL     1      10.182  -2.606  23.743  0.00  0.00    +0.164 C 
ATOM      2  N   UNL     1       9.477  -3.612  24.179  0.00  0.00    -0.092 NA
ENDROOT
BRANCH   1   4
ATOM      3  C   UNL     1       9.439  -0.198  24.220  0.00  0.00    +0.129 A 
ATOM      4  C   UNL     1       9.767  -1.243  23.342  0.00  0.00    +0.038 A 
ATOM      5  C   UNL     1       9.764  -1.016  21.955  0.00  0.00    +0.013 A 
ATOM      6  C   UNL     1       9.348   0.211  21.440  0.00  0.00    +0.001 A 
ATOM      7  C   UNL     1       8.916   1.208  22.307  0.00  0.00    +0.004 A 
ATOM      8  C   UNL     1       8.961   1.004  23.686  0.00  0.00    +0.046 A 
BRANCH   3  10
ATOM      9  C   UNL     1       8.413  -0.431  26.339  0.00  0.00    +0.277 C 
ATOM     10  O   UNL     1       9.613  -0.387  25.566  0.00  0.00    -0.494 OA
ENDBRANCH   3  10
ENDBRANCH   1   4
BRANCH   2  11
ATOM     11  O   UNL     1       8.121  -3.321  24.320  0.00  0.00    -0.393 OA
BRANCH  11  12
ATOM     12  C   UNL     1       7.414  -4.529  24.618  0.00  0.00    +0.274 C 
BRANCH  12  13
ATOM     13  C   UNL     1       6.899  -4.429  26.041  0.00  0.00    +0.164 C 
BRANCH  13  14
ATOM     14  C   UNL     1       7.800  -5.101  27.052  0.00  0.00    +0.308 C 
ATOM     15  O   UNL     1       7.381  -5.940  27.841  0.00  0.00    -0.251 OA
BRANCH  14  16
ATOM     16  O   UNL     1       9.110  -4.797  26.974  0.00  0.00    -0.481 OA
ATOM     17  H   UNL     1       9.506  -4.503  27.832  0.00  0.00    +0.295 HD
ENDBRANCH  14  16
ENDBRANCH  13  14
ENDBRANCH  12  13
ENDBRANCH  11  12
ENDBRANCH   2  11
TORSDOF 7
ENDMDL
MODEL 2
REMARK VINA RESULT:      -5.0      2.396      5.507
REMARK  Name = 
REMARK  8 active torsions:
REMARK  status: ('A' for Active; 'I' for Inactive)
REMARK    1  A    between atoms: C_1  and  O_2
REMARK    2  A    between atoms: O_2  and  C_3
REMARK    3  A    between atoms: C_8  and  C_9
REMARK    4  A    between atoms: N_10  and  O_11
REMARK    5  A    between atoms: O_11  and  C_12
REMARK    6  A    between atoms: C_12  and  C_13
REMARK    7  A    between atoms: C_13  and  C_14
REMARK    8  A    between atoms: C_14  and  O_15
REMARK                            x       y       z     vdW  Elec       q    Type
REMARK                         _______ _______ _______ _____ _____    ______ ____
ROOT
ATOM      1  C   UNL     1       8.771  -4.900  24.649  0.00  0.00    +0.164 C 
ATOM      2  N   UNL     1       9.744  -4.033  24.628  0.00  0.00    -0.092 NA
ENDROOT
BRANCH   1   4
ATOM      3  C   UNL     1       6.367  -4.329  23.964  0.00  0.00    +0.129 A 
ATOM      4  C   UNL     1       7.574  -5.022  23.787  0.00  0.00    +0.038 A 
ATOM      5  C   UNL     1       7.731  -5.881  22.685  0.00  0.00    +0.013 A 
ATOM      6  C   UNL     1       6.665  -6.121  21.818  0.00  0.00    +0.001 A 
ATOM      7  C   UNL     1       5.435  -5.521  22.060  0.00  0.00    +0.004 A 
ATOM      8  C   UNL     1       5.287  -4.633  23.126  0.00  0.00    +0.046 A 
BRANCH   3  10
ATOM      9  C   UNL     1       5.527  -2.212  24.607  0.00  0.00    +0.277 C 
ATOM     10  O   UNL     1       6.291  -3.372  24.942  0.00  0.00    -0.494 OA
ENDBRANCH   3  10
ENDBRANCH   1   4
BRANCH   2  11
ATOM     11  O   UNL     1       9.641  -3.106  23.593  0.00  0.00    -0.393 OA
BRANCH  11  12
ATOM     12  C   UNL     1       9.444  -1.803  24.153  0.00  0.00    +0.274 C 
BRANCH  12  13
ATOM     13  C   UNL     1       8.700  -0.965  23.132  0.00  0.00    +0.164 C 
BRANCH  13  14
ATOM     14  C   UNL     1       9.533  -0.617  21.920  0.00  0.00    +0.308 C 
ATOM     15  O   UNL     1       9.532   0.506  21.429  0.00  0.00    -0.251 OA
BRANCH  14  16
ATOM     16  O   UNL     1      10.353  -1.586  21.466  0.00  0.00    -0.481 OA
ATOM     17  H   UNL     1      10.517  -1.548  20.492  0.00  0.00    +0.295 HD
ENDBRANCH  14  16
ENDBRANCH  13  14
ENDBRANCH  12  13
ENDBRANCH  11  12
ENDBRANCH   2  11
TORSDOF 7
ENDMDL
MODEL 3
REMARK VINA RESULT:      -5.0      2.320      3.109
REMARK  Name = 
REMARK  8 active torsions:
REMARK  status: ('A' for Active; 'I' for Inactive)
REMARK    1  A    between atoms: C_1  and  O_2
REMARK    2  A    between atoms: O_2  and  C_3
REMARK    3  A    between atoms: C_8  and  C_9
REMARK    4  A    between atoms: N_10  and  O_11
REMARK    5  A    between atoms: O_11  and  C_12
REMARK    6  A    between atoms: C_12  and  C_13
REMARK    7  A    between atoms: C_13  and  C_14
REMARK    8  A    between atoms: C_14  and  O_15
REMARK                            x       y       z     vdW  Elec       q    Type
REMARK                         _______ _______ _______ _____ _____    ______ ____
ROOT
ATOM      1  C   UNL     1       9.471   0.099  21.477  0.00  0.00    +0.164 C 
ATOM      2  N   UNL     1       9.104  -1.135  21.679  0.00  0.00    -0.092 NA
ENDROOT
BRANCH   1   4
ATOM      3  C   UNL     1       9.721   1.861  23.324  0.00  0.00    +0.129 A 
ATOM      4  C   UNL     1       9.089   1.343  22.183  0.00  0.00    +0.038 A 
ATOM      5  C   UNL     1       8.029   2.051  21.589  0.00  0.00    +0.013 A 
ATOM      6  C   UNL     1       7.539   3.216  22.179  0.00  0.00    +0.001 A 
ATOM      7  C   UNL     1       8.093   3.667  23.372  0.00  0.00    +0.004 A 
ATOM      8  C   UNL     1       9.175   2.994  23.940  0.00  0.00    +0.046 A 
BRANCH   3  10
ATOM      9  C   UNL     1      10.682   0.414  24.931  0.00  0.00    +0.277 C 
ATOM     10  O   UNL     1      10.857   1.249  23.785  0.00  0.00    -0.494 OA
ENDBRANCH   3  10
ENDBRANCH   1   4
BRANCH   2  11
ATOM     11  O   UNL     1       8.244  -1.289  22.766  0.00  0.00    -0.393 OA
BRANCH  11  12
ATOM     12  C   UNL     1       7.688  -2.608  22.737  0.00  0.00    +0.274 C 
BRANCH  12  13
ATOM     13  C   UNL     1       7.927  -3.244  24.093  0.00  0.00    +0.164 C 
BRANCH  13  14
ATOM     14  C   UNL     1       9.359  -3.679  24.306  0.00  0.00    +0.308 C 
ATOM     15  O   UNL     1       9.643  -4.739  24.852  0.00  0.00    -0.251 OA
BRANCH  14  16
ATOM     16  O   UNL     1      10.306  -2.881  23.776  0.00  0.00    -0.481 OA
ATOM     17  H   UNL     1      10.192  -2.712  22.808  0.00  0.00    +0.295 HD
ENDBRANCH  14  16
ENDBRANCH  13  14
ENDBRANCH  12  13
ENDBRANCH  11  12
ENDBRANCH   2  11
TORSDOF 7
ENDMDL
MODEL 4
REMARK VINA RESULT:      -5.0      2.559      3.113
REMARK  Name = 
REMARK  8 active torsions:
REMARK  status: ('A' for Active; 'I' for Inactive)
REMARK    1  A    between atoms: C_1  and  O_2
REMARK    2  A    between atoms: O_2  and  C_3
REMARK    3  A    between atoms: C_8  and  C_9
REMARK    4  A    between atoms: N_10  and  O_11
REMARK    5  A    between atoms: O_11  and  C_12
REMARK    6  A    between atoms: C_12  and  C_13
REMARK    7  A    between atoms: C_13  and  C_14
REMARK    8  A    between atoms: C_14  and  O_15
REMARK                            x       y       z     vdW  Elec       q    Type
REMARK                         _______ _______ _______ _____ _____    ______ ____
ROOT
ATOM      1  C   UNL     1       9.381  -1.697  22.240  0.00  0.00    +0.164 C 
ATOM      2  N   UNL     1       8.302  -2.427  22.293  0.00  0.00    -0.092 NA
ENDROOT
BRANCH   1   4
ATOM      3  C   UNL     1       9.785   0.011  24.111  0.00  0.00    +0.129 A 
ATOM      4  C   UNL     1       9.646  -0.336  22.757  0.00  0.00    +0.038 A 
ATOM      5  C   UNL     1       9.812   0.646  21.765  0.00  0.00    +0.013 A 
ATOM      6  C   UNL     1      10.020   1.979  22.117  0.00  0.00    +0.001 A 
ATOM      7  C   UNL     1      10.045   2.339  23.460  0.00  0.00    +0.004 A 
ATOM      8  C   UNL     1       9.927   1.362  24.448  0.00  0.00    +0.046 A 
BRANCH   3  10
ATOM      9  C   UNL     1       8.967  -0.756  26.195  0.00  0.00    +0.277 C 
ATOM     10  O   UNL     1       9.790  -0.987  25.051  0.00  0.00    -0.494 OA
ENDBRANCH   3  10
ENDBRANCH   1   4
BRANCH   2  11
ATOM     11  O   UNL     1       7.256  -1.824  22.989  0.00  0.00    -0.393 OA
BRANCH  11  12
ATOM     12  C   UNL     1       6.797  -2.720  24.007  0.00  0.00    +0.274 C 
BRANCH  12  13
ATOM     13  C   UNL     1       5.307  -2.925  23.810  0.00  0.00    +0.164 C 
BRANCH  13  14
ATOM     14  C   UNL     1       4.976  -3.826  22.643  0.00  0.00    +0.308 C 
ATOM     15  O   UNL     1       4.192  -4.762  22.745  0.00  0.00    -0.251 OA
BRANCH  14  16
ATOM     16  O   UNL     1       5.517  -3.484  21.457  0.00  0.00    -0.481 OA
ATOM     17  H   UNL     1       6.036  -2.642  21.482  0.00  0.00    +0.295 HD
ENDBRANCH  14  16
ENDBRANCH  13  14
ENDBRANCH  12  13
ENDBRANCH  11  12
ENDBRANCH   2  11
TORSDOF 7
ENDMDL
MODEL 5
REMARK VINA RESULT:      -4.9      2.136      6.087
REMARK  Name = 
REMARK  8 active torsions:
REMARK  status: ('A' for Active; 'I' for Inactive)
REMARK    1  A    between atoms: C_1  and  O_2
REMARK    2  A    between atoms: O_2  and  C_3
REMARK    3  A    between atoms: C_8  and  C_9
REMARK    4  A    between atoms: N_10  and  O_11
REMARK    5  A    between atoms: O_11  and  C_12
REMARK    6  A    between atoms: C_12  and  C_13
REMARK    7  A    between atoms: C_13  and  C_14
REMARK    8  A    between atoms: C_14  and  O_15
REMARK                            x       y       z     vdW  Elec       q    Type
REMARK                         _______ _______ _______ _____ _____    ______ ____
ROOT
ATOM      1  C   UNL     1       9.511  -4.316  24.683  0.00  0.00    +0.164 C 
ATOM      2  N   UNL     1       9.961  -3.184  24.217  0.00  0.00    -0.092 NA
ENDROOT
BRANCH   1   4
ATOM      3  C   UNL     1       7.091  -4.954  24.122  0.00  0.00    +0.129 A 
ATOM      4  C   UNL     1       8.135  -4.731  25.034  0.00  0.00    +0.038 A 
ATOM      5  C   UNL     1       7.922  -4.953  26.406  0.00  0.00    +0.013 A 
ATOM      6  C   UNL     1       6.658  -5.304  26.878  0.00  0.00    +0.001 A 
ATOM      7  C   UNL     1       5.598  -5.414  25.986  0.00  0.00    +0.004 A 
ATOM      8  C   UNL     1       5.814  -5.240  24.618  0.00  0.00    +0.046 A 
BRANCH   3  10
ATOM      9  C   UNL     1       7.080  -6.090  22.047  0.00  0.00    +0.277 C 
ATOM     10  O   UNL     1       7.363  -4.898  22.780  0.00  0.00    -0.494 OA
ENDBRANCH   3  10
ENDBRANCH   1   4
BRANCH   2  11
ATOM     11  O   UNL     1       8.961  -2.243  23.981  0.00  0.00    -0.393 OA
BRANCH  11  12
ATOM     12  C   UNL     1       9.393  -0.971  24.475  0.00  0.00    +0.274 C 
BRANCH  12  13
ATOM     13  C   UNL     1      10.374  -0.391  23.475  0.00  0.00    +0.164 C 
BRANCH  13  14
ATOM     14  C   UNL     1       9.886  -0.462  22.046  0.00  0.00    +0.308 C 
ATOM     15  O   UNL     1       9.459   0.522  21.454  0.00  0.00    -0.251 OA
BRANCH  14  16
ATOM     16  O   UNL     1      10.037  -1.649  21.427  0.00  0.00    -0.481 OA
ATOM     17  H   UNL     1       9.623  -1.688  20.529  0.00  0.00    +0.295 HD
ENDBRANCH  14  16
ENDBRANCH  13  14
ENDBRANCH  12  13
ENDBRANCH  11  12
ENDBRANCH   2  11
TORSDOF 7
ENDMDL
MODEL 6
REMARK VINA RESULT:      -4.9      2.573      5.947
REMARK  Name = 
REMARK  8 active torsions:
REMARK  status: ('A' for Active; 'I' for Inactive)
REMARK    1  A    between atoms: C_1  and  O_2
REMARK    2  A    between atoms: O_2  and  C_3
REMARK    3  A    between atoms: C_8  and  C_9
REMARK    4  A    between atoms: N_10  and  O_11
REMARK    5  A    between atoms: O_11  and  C_12
REMARK    6  A    between atoms: C_12  and  C_13
REMARK    7  A    between atoms: C_13  and  C_14
REMARK    8  A    between atoms: C_14  and  O_15
REMARK                            x       y       z     vdW  Elec       q    Type
REMARK                         _______ _______ _______ _____ _____    ______ ____
ROOT
ATOM      1  C   UNL     1       9.067  -1.932  22.127  0.00  0.00    +0.164 C 
ATOM      2  N   UNL     1       9.677  -0.827  22.454  0.00  0.00    -0.092 NA
ENDROOT
BRANCH   1   4
ATOM      3  C   UNL     1       8.251  -3.681  23.816  0.00  0.00    +0.129 A 
ATOM      4  C   UNL     1       8.021  -2.699  22.839  0.00  0.00    +0.038 A 
ATOM      5  C   UNL     1       6.703  -2.340  22.507  0.00  0.00    +0.013 A 
ATOM      6  C   UNL     1       5.623  -3.017  23.072  0.00  0.00    +0.001 A 
ATOM      7  C   UNL     1       5.854  -4.066  23.954  0.00  0.00    +0.004 A 
ATOM      8  C   UNL     1       7.159  -4.395  24.322  0.00  0.00    +0.046 A 
BRANCH   3  10
ATOM      9  C   UNL     1       9.675  -4.848  25.302  0.00  0.00    +0.277 C 
ATOM     10  O   UNL     1       9.534  -3.895  24.248  0.00  0.00    -0.494 OA
ENDBRANCH   3  10
ENDBRANCH   1   4
BRANCH   2  11
ATOM     11  O   UNL     1       9.226  -0.276  23.652  0.00  0.00    -0.393 OA
BRANCH  11  12
ATOM     12  C   UNL     1      10.299   0.445  24.267  0.00  0.00    +0.274 C 
BRANCH  12  13
ATOM     13  C   UNL     1       9.939   1.918  24.251  0.00  0.00    +0.164 C 
BRANCH  13  14
ATOM     14  C   UNL     1      10.525   2.666  23.075  0.00  0.00    +0.308 C 
ATOM     15  O   UNL     1      11.290   3.611  23.221  0.00  0.00    -0.251 OA
BRANCH  14  16
ATOM     16  O   UNL     1      10.235   2.172  21.855  0.00  0.00    -0.481 OA
ATOM     17  H   UNL     1      10.571   1.254  21.704  0.00  0.00    +0.295 HD
ENDBRANCH  14  16
ENDBRANCH  13  14
ENDBRANCH  12  13
ENDBRANCH  11  12
ENDBRANCH   2  11
TORSDOF 7
ENDMDL
MODEL 7
REMARK VINA RESULT:      -4.9      2.584      5.891
REMARK  Name = 
REMARK  8 active torsions:
REMARK  status: ('A' for Active; 'I' for Inactive)
REMARK    1  A    between atoms: C_1  and  O_2
REMARK    2  A    between atoms: O_2  and  C_3
REMARK    3  A    between atoms: C_8  and  C_9
REMARK    4  A    between atoms: N_10  and  O_11
REMARK    5  A    between atoms: O_11  and  C_12
REMARK    6  A    between atoms: C_12  and  C_13
REMARK    7  A    between atoms: C_13  and  C_14
REMARK    8  A    between atoms: C_14  and  O_15
REMARK                            x       y       z     vdW  Elec       q    Type
REMARK                         _______ _______ _______ _____ _____    ______ ____
ROOT
ATOM      1  C   UNL     1       7.749  -2.244  24.253  0.00  0.00    +0.164 C 
ATOM      2  N   UNL     1       8.804  -1.478  24.215  0.00  0.00    -0.092 NA
ENDROOT
BRANCH   1   4
ATOM      3  C   UNL     1       7.790  -4.718  23.580  0.00  0.00    +0.129 A 
ATOM      4  C   UNL     1       7.364  -3.392  23.403  0.00  0.00    +0.038 A 
ATOM      5  C   UNL     1       6.455  -3.081  22.376  0.00  0.00    +0.013 A 
ATOM      6  C   UNL     1       6.046  -4.063  21.474  0.00  0.00    +0.001 A 
ATOM      7  C   UNL     1       6.557  -5.351  21.581  0.00  0.00    +0.004 A 
ATOM      8  C   UNL     1       7.423  -5.675  22.626  0.00  0.00    +0.046 A 
BRANCH   3  10
ATOM      9  C   UNL     1       7.791  -5.375  25.853  0.00  0.00    +0.277 C 
ATOM     10  O   UNL     1       8.537  -5.030  24.685  0.00  0.00    -0.494 OA
ENDBRANCH   3  10
ENDBRANCH   1   4
BRANCH   2  11
ATOM     11  O   UNL     1       9.722  -1.846  23.233  0.00  0.00    -0.393 OA
BRANCH  11  12
ATOM     12  C   UNL     1      10.310  -0.663  22.679  0.00  0.00    +0.274 C 
BRANCH  12  13
ATOM     13  C   UNL     1       9.470  -0.239  21.491  0.00  0.00    +0.164 C 
BRANCH  13  14
ATOM     14  C   UNL     1       8.996   1.194  21.573  0.00  0.00    +0.308 C 
ATOM     15  O   UNL     1       7.825   1.481  21.791  0.00  0.00    -0.251 OA
BRANCH  14  16
ATOM     16  O   UNL     1       9.951   2.141  21.491  0.00  0.00    -0.481 OA
ATOM     17  H   UNL     1       9.972   2.757  22.264  0.00  0.00    +0.295 HD
ENDBRANCH  14  16
ENDBRANCH  13  14
ENDBRANCH  12  13
ENDBRANCH  11  12
ENDBRANCH   2  11
TORSDOF 7
ENDMDL
MODEL 8
REMARK VINA RESULT:      -4.9      2.435      5.251
REMARK  Name = 
REMARK  8 active torsions:
REMARK  status: ('A' for Active; 'I' for Inactive)
REMARK    1  A    between atoms: C_1  and  O_2
REMARK    2  A    between atoms: O_2  and  C_3
REMARK    3  A    between atoms: C_8  and  C_9
REMARK    4  A    between atoms: N_10  and  O_11
REMARK    5  A    between atoms: O_11  and  C_12
REMARK    6  A    between atoms: C_12  and  C_13
REMARK    7  A    between atoms: C_13  and  C_14
REMARK    8  A    between atoms: C_14  and  O_15
REMARK                            x       y       z     vdW  Elec       q    Type
REMARK                         _______ _______ _______ _____ _____    ______ ____
ROOT
ATOM      1  C   UNL     1       5.939  -2.165  23.802  0.00  0.00    +0.164 C 
ATOM      2  N   UNL     1       6.478  -0.980  23.728  0.00  0.00    -0.092 NA
ENDROOT
BRANCH   1   4
ATOM      3  C   UNL     1       7.247  -4.369  23.902  0.00  0.00    +0.129 A 
ATOM      4  C   UNL     1       6.392  -3.463  23.255  0.00  0.00    +0.038 A 
ATOM      5  C   UNL     1       5.853  -3.789  21.998  0.00  0.00    +0.013 A 
ATOM      6  C   UNL     1       6.233  -4.962  21.348  0.00  0.00    +0.001 A 
ATOM      7  C   UNL     1       7.167  -5.804  21.941  0.00  0.00    +0.004 A 
ATOM      8  C   UNL     1       7.670  -5.509  23.209  0.00  0.00    +0.046 A 
BRANCH   3  10
ATOM      9  C   UNL     1       7.898  -5.264  25.994  0.00  0.00    +0.277 C 
ATOM     10  O   UNL     1       7.625  -4.112  25.195  0.00  0.00    -0.494 OA
ENDBRANCH   3  10
ENDBRANCH   1   4
BRANCH   2  11
ATOM     11  O   UNL     1       7.698  -0.966  23.053  0.00  0.00    -0.393 OA
BRANCH  11  12
ATOM     12  C   UNL     1       8.510   0.088  23.580  0.00  0.00    +0.274 C 
BRANCH  12  13
ATOM     13  C   UNL     1       9.919  -0.446  23.743  0.00  0.00    +0.164 C 
BRANCH  13  14
ATOM     14  C   UNL     1      10.161  -1.736  22.994  0.00  0.00    +0.308 C 
ATOM     15  O   UNL     1      10.266  -2.813  23.569  0.00  0.00    -0.251 OA
BRANCH  14  16
ATOM     16  O   UNL     1      10.158  -1.651  21.649  0.00  0.00    -0.481 OA
ATOM     17  H   UNL     1       9.437  -1.078  21.286  0.00  0.00    +0.295 HD
ENDBRANCH  14  16
ENDBRANCH  13  14
ENDBRANCH  12  13
ENDBRANCH  11  12
ENDBRANCH   2  11
TORSDOF 7
ENDMDL
MODEL 9
REMARK VINA RESULT:      -4.8      2.611      5.503
REMARK  Name = 
REMARK  8 active torsions:
REMARK  status: ('A' for Active; 'I' for Inactive)
REMARK    1  A    between atoms: C_1  and  O_2
REMARK    2  A    between atoms: O_2  and  C_3
REMARK    3  A    between atoms: C_8  and  C_9
REMARK    4  A    between atoms: N_10  and  O_11
REMARK    5  A    between atoms: O_11  and  C_12
REMARK    6  A    between atoms: C_12  and  C_13
REMARK    7  A    between atoms: C_13  and  C_14
REMARK    8  A    between atoms: C_14  and  O_15
REMARK                            x       y       z     vdW  Elec       q    Type
REMARK                         _______ _______ _______ _____ _____    ______ ____
ROOT
ATOM      1  C   UNL     1       6.216  -2.727  23.863  0.00  0.00    +0.164 C 
ATOM      2  N   UNL     1       6.306  -1.753  23.000  0.00  0.00    -0.092 NA
ENDROOT
BRANCH   1   4
ATOM      3  C   UNL     1       7.845  -4.707  23.822  0.00  0.00    +0.129 A 
ATOM      4  C   UNL     1       7.263  -3.593  24.448  0.00  0.00    +0.038 A 
ATOM      5  C   UNL     1       7.712  -3.193  25.719  0.00  0.00    +0.013 A 
ATOM      6  C   UNL     1       8.665  -3.949  26.402  0.00  0.00    +0.001 A 
ATOM      7  C   UNL     1       9.157  -5.115  25.828  0.00  0.00    +0.004 A 
ATOM      8  C   UNL     1       8.749  -5.491  24.547  0.00  0.00    +0.046 A 
BRANCH   3  10
ATOM      9  C   UNL     1       6.618  -6.071  22.327  0.00  0.00    +0.277 C 
ATOM     10  O   UNL     1       7.517  -4.978  22.519  0.00  0.00    -0.494 OA
ENDBRANCH   3  10
ENDBRANCH   1   4
BRANCH   2  11
ATOM     11  O   UNL     1       7.616  -1.476  22.611  0.00  0.00    -0.393 OA
BRANCH  11  12
ATOM     12  C   UNL     1       8.062  -0.296  23.287  0.00  0.00    +0.274 C 
BRANCH  12  13
ATOM     13  C   UNL     1       9.543  -0.455  23.572  0.00  0.00    +0.164 C 
BRANCH  13  14
ATOM     14  C   UNL     1      10.161  -1.650  22.884  0.00  0.00    +0.308 C 
ATOM     15  O   UNL     1      10.519  -2.645  23.503  0.00  0.00    -0.251 OA
BRANCH  14  16
ATOM     16  O   UNL     1      10.208  -1.600  21.538  0.00  0.00    -0.481 OA
ATOM     17  H   UNL     1       9.389  -1.233  21.121  0.00  0.00    +0.295 HD
ENDBRANCH  14  16
ENDBRANCH  13  14
ENDBRANCH  12  13
ENDBRANCH  11  12
ENDBRANCH   2  11
TORSDOF 7
ENDMDL
