MODEL 1
REMARK VINA RESULT:       2.9      0.000      0.000
REMARK  Name = 
REMARK  24 active torsions:
REMARK  status: ('A' for Active; 'I' for Inactive)
REMARK    1  A    between atoms: C_1  and  N_2
REMARK    2  A    between atoms: N_2  and  CA_3
REMARK    3  A    between atoms: CA_3  and  CB_5
REMARK    4  A    between atoms: CA_3  and  C_9
REMARK    5  A    between atoms: CB_5  and  CG_6
REMARK    6  A    between atoms: CG_6  and  CD1_7
REMARK    7  A    between atoms: CG_6  and  CD2_8
REMARK    8  A    between atoms: N_11  and  C_12
REMARK    9  A    between atoms: C_14  and  O_16
REMARK   10  A    between atoms: C_35  and  O_37
REMARK   11  A    between atoms: CA_53  and  CB_55
REMARK   12  A    between atoms: CB_55  and  CG_56
REMARK   13  A    between atoms: C_65  and  O_66
REMARK   14  A    between atoms: C_70  and  O_71
REMARK   15  A    between atoms: C_73  and  O_74
REMARK   16  A    between atoms: C_77  and  C_82
REMARK   17  A    between atoms: C_82  and  O_83
REMARK   18  A    between atoms: C_85  and  O_86
REMARK   19  A    between atoms: O_86  and  C_87
REMARK   20  A    between atoms: C_90  and  C_92
REMARK   21  A    between atoms: C_92  and  O_93
REMARK   22  A    between atoms: C_94  and  O_96
REMARK   23  A    between atoms: C_97  and  O_99
REMARK   24  A    between atoms: C_100  and  O_102
REMARK                            x       y       z     vdW  Elec       q    Type
REMARK                         _______ _______ _______ _____ _____    ______ ____
ROOT
ATOM      1  C   UNK A   2       1.352   4.414  21.898  0.00  0.00    +0.192 C 
ATOM      2  C   UNK A   2       0.617   4.417  23.512  0.00  0.00    +0.237 C 
ATOM      3  O   UNK A   2       0.448   3.331  24.087  0.00  0.00    -0.274 OA
ATOM      4  N   ASN A   3       0.633   5.557  24.405  0.00  0.00    -0.302 N 
ATOM      5  H   ASN A   3       0.734   6.518  24.092  0.00  0.00    +0.150 HD
ATOM      6  CA  ASN A   3       0.688   5.346  26.068  0.00  0.00    +0.168 C 
ATOM      7  C   ASN A   3       2.273   5.211  25.842  0.00  0.00    +0.235 C 
ATOM      8  O   ASN A   3       2.727   6.345  25.656  0.00  0.00    -0.274 OA
ATOM      9  N   UNK A   4       3.040   3.824  25.781  0.00  0.00    -0.299 N 
ATOM     10  H   UNK A   4       2.591   3.137  26.375  0.00  0.00    +0.150 HD
ATOM     11  C   UNK A   4       4.805   3.450  25.517  0.00  0.00    +0.190 C 
ATOM     12  C   UNK A   4       5.074   4.917  25.997  0.00  0.00    -0.011 A 
ATOM     13  C   UNK A   4       4.916   5.445  27.211  0.00  0.00    +0.056 A 
ATOM     14  C   UNK A   4       6.102   5.960  27.547  0.00  0.00    +0.174 A 
ATOM     15  C   UNK A   4       6.968   6.349  26.398  0.00  0.00    +0.208 A 
ATOM     16  C   UNK A   4       6.352   6.491  25.114  0.00  0.00    +0.174 A 
ATOM     17  O   UNK A   4       6.585   7.065  23.857  0.00  0.00    -0.451 OA
ATOM     18  C   UNK A   4       5.597   6.752  22.829  0.00  0.00    +0.147 A 
ATOM     19  C   UNK A   4       5.941   5.851  21.809  0.00  0.00    +0.083 A 
ATOM     20 CL   UNK A   4       7.523   5.967  21.145  0.00  0.00    -0.080 Cl
ATOM     21  C   UNK A   2       5.020   4.914  21.232  0.00  0.00    +0.030 A 
ATOM     22  C   UNK A   2       3.705   4.927  21.646  0.00  0.00    -0.015 A 
ATOM     23  C   UNK A   2       3.332   6.208  22.284  0.00  0.00    +0.010 A 
ATOM     24  C   UNK A   4       4.240   7.063  22.919  0.00  0.00    +0.048 A 
ATOM     25  O   UNK A   4       6.276   5.884  28.921  0.00  0.00    -0.451 OA
ATOM     26  C   UNK A   4       5.920   4.612  29.572  0.00  0.00    +0.147 A 
ATOM     27  C   UNK A   4       5.369   3.487  28.925  0.00  0.00    +0.083 A 
ATOM     28 CL   UNK A   4       3.665   3.193  28.751  0.00  0.00    -0.080 Cl
ATOM     29  C   UNK A   4       6.128   2.363  28.746  0.00  0.00    +0.030 A 
ATOM     30  C   UNK A   6       7.316   2.239  29.438  0.00  0.00    -0.015 A 
ATOM     31  C   UNK A   6       8.168   1.076  29.149  0.00  0.00    +0.174 C 
ATOM     32  C   UNK A   6       7.656   0.084  28.076  0.00  0.00    +0.192 C 
ATOM     33  C   UNK A   6       6.254  -0.819  27.482  0.00  0.00    +0.237 C 
ATOM     34  O   UNK A   6       5.452  -1.288  28.303  0.00  0.00    -0.274 OA
ATOM     35  N   UNK A   7       6.199  -1.272  26.051  0.00  0.00    -0.297 N 
ATOM     36  H   UNK A   7       6.425  -0.599  25.312  0.00  0.00    +0.150 HD
ATOM     37  C   UNK A   7       5.833  -2.706  25.566  0.00  0.00    +0.213 C 
ATOM     38  C   UNK A   7       5.904  -3.387  24.070  0.00  0.00    -0.002 A 
ATOM     39  C   UNK A   7       6.920  -4.372  23.753  0.00  0.00    +0.033 A 
ATOM     40  C   UNK A   7       6.595  -5.510  22.954  0.00  0.00    +0.128 A 
ATOM     41  C   UNK A   7       5.411  -5.557  22.248  0.00  0.00    +0.091 A 
ATOM     42  C   UNK A   7       4.559  -4.424  22.333  0.00  0.00    +0.121 A 
ATOM     43  C   UNK A   7       8.322  -3.975  24.074  0.00  0.00    +0.028 A 
ATOM     44  C   UNK A   7       8.488  -2.499  23.942  0.00  0.00    +0.018 A 
ATOM     45  C   UNK A   7       9.349  -1.765  24.732  0.00  0.00    -0.018 A 
ATOM     46  C   UNK A   7      10.348  -2.703  25.354  0.00  0.00    +0.009 A 
ATOM     47  C   UNK A   7      10.338  -4.172  25.248  0.00  0.00    +0.046 A 
ATOM     48  C   UNK A   7       8.629  -0.417  25.633  0.00  0.00    +0.190 C 
ATOM     49  N   UNK A   7       7.227   0.861  25.189  0.00  0.00    -0.299 N 
ATOM     50  H   ACE A   5       7.911   1.368  24.624  0.00  0.00    +0.150 HD
ATOM     51  C   UNK A   7       8.591  -1.602  27.017  0.00  0.00    +0.239 C 
ATOM     52  O   UNK A   7       8.492  -2.834  27.006  0.00  0.00    -0.273 OA
ATOM     53  C   UNK A   7       9.283  -4.793  24.605  0.00  0.00    +0.125 A 
ATOM     54  C   UNK A   7       4.810  -3.365  23.190  0.00  0.00    +0.052 A 
ATOM     55  N   UNK A   6       8.553  -0.990  28.213  0.00  0.00    -0.300 N 
ATOM     56  H   UNK A   6       9.421  -0.872  28.745  0.00  0.00    +0.150 HD
ATOM     57  C   UNK A   6       7.693   3.232  30.351  0.00  0.00    +0.010 A 
ATOM     58  C   UNK A   6       6.930   4.381  30.485  0.00  0.00    +0.048 A 
ATOM     59  C   UNK A   4       5.125   5.970  25.160  0.00  0.00    +0.056 A 
ATOM     60  C   UNK A   4       6.510   2.379  25.633  0.00  0.00    +0.239 C 
ATOM     61  O   UNK A   4       7.490   3.153  25.746  0.00  0.00    -0.273 OA
ATOM     62  C   UNK A   2       2.523   3.527  21.623  0.00  0.00    +0.174 C 
ENDROOT
BRANCH   1  64
ATOM     63  C   LEU A   1       1.042   4.309  18.856  0.00  0.00    +0.231 C 
ATOM     64  N   UNK A   2       1.561   5.070  20.210  0.00  0.00    -0.300 N 
ATOM     65  H   UNK A   2       2.317   5.729  20.064  0.00  0.00    +0.150 HD
ATOM     66  O   LEU A   1       0.459   3.204  18.829  0.00  0.00    -0.274 OA
BRANCH  63  67
ATOM     67  CA  LEU A   1       1.079   4.953  17.411  0.00  0.00    +0.140 C 
BRANCH  67  69
ATOM     68  C   ACE A   0       0.620   3.253  15.455  0.00  0.00    +0.101 C 
ATOM     69  N   LEU A   1       1.566   3.964  16.339  0.00  0.00    -0.309 NA
ATOM     70  H   LEU A   1       2.222   4.450  15.729  0.00  0.00    +0.122 HD
ENDBRANCH  67  69
BRANCH  67  71
ATOM     71  CB  LEU A   1       1.877   6.278  17.291  0.00  0.00    +0.031 C 
BRANCH  71  72
ATOM     72  CG  LEU A   1       1.852   6.778  15.823  0.00  0.00    -0.015 C 
ATOM     73  CD2 LEU A   1       0.447   6.906  15.229  0.00  0.00    +0.007 C 
ATOM     74  CD1 LEU A   1       2.715   5.855  14.963  0.00  0.00    +0.007 C 
ENDBRANCH  71  72
ENDBRANCH  67  71
ENDBRANCH  63  67
ENDBRANCH   1  64
BRANCH  53  75
ATOM     75  O   UNK A   7       9.143  -6.166  24.608  0.00  0.00    -0.506 OA
ATOM     76  H   UNK A   7      10.000  -6.608  24.440  0.00  0.00    +0.292 HD
ENDBRANCH  53  75
BRANCH  42  77
ATOM     77  O   UNK A   7       3.450  -4.408  21.529  0.00  0.00    -0.507 OA
ATOM     78  H   UNK A   7       3.723  -4.343  20.595  0.00  0.00    +0.292 HD
ENDBRANCH  42  77
BRANCH  40  79
ATOM     79  O   UNK A   7       7.373  -6.627  22.802  0.00  0.00    -0.506 OA
ATOM     80  H   UNK A   7       8.303  -6.331  22.744  0.00  0.00    +0.292 HD
ENDBRANCH  40  79
BRANCH  37  81
ATOM     81  C   UNK A   7       4.422  -2.931  26.076  0.00  0.00    +0.330 C 
ATOM     82  O   UNK A   7       4.014  -4.028  26.470  0.00  0.00    -0.249 OA
BRANCH  81  83
ATOM     83  O   UNK A   7       3.679  -1.808  26.078  0.00  0.00    -0.479 OA
ATOM     84  H   UNK A   7       4.231  -1.008  26.201  0.00  0.00    +0.295 HD
ENDBRANCH  81  83
ENDBRANCH  37  81
BRANCH  31  85
ATOM     85  O   UNK A   6       8.748   0.492  30.317  0.00  0.00    -0.385 OA
ATOM     86  H   UNK A   6       9.397   1.125  30.668  0.00  0.00    +0.210 HD
ENDBRANCH  31  85
BRANCH  62  87
ATOM     87  O   UNK A   2       1.744   2.716  20.635  0.00  0.00    -0.385 OA
ATOM     88  H   UNK A   2       2.377   2.320  19.970  0.00  0.00    +0.210 HD
ENDBRANCH  62  87
BRANCH  15  89
ATOM     89  O   UNK A   4       8.334   6.246  26.454  0.00  0.00    -0.453 OA
BRANCH  89  90
ATOM     90  C   UNK A   4       8.903   6.149  25.129  0.00  0.00    +0.340 C 
ATOM     91  C   UNK A   4      10.420   5.886  25.188  0.00  0.00    +0.214 C 
ATOM     92  C   UNK A   4      10.889   5.136  23.959  0.00  0.00    +0.180 C 
ATOM     93  C   UNK A   4       9.994   3.971  23.596  0.00  0.00    +0.177 C 
ATOM     94  C   UNK A   4       8.584   4.482  23.369  0.00  0.00    +0.179 C 
ATOM     95  O   UNK A   4       8.100   5.154  24.506  0.00  0.00    -0.331 OA
BRANCH  93  96
ATOM     96  O   UNK A   4      10.544   3.377  22.414  0.00  0.00    -0.386 OA
ATOM     97  H   UNK A   4      11.473   3.660  22.320  0.00  0.00    +0.210 HD
ENDBRANCH  93  96
BRANCH  92  98
ATOM     98  O   UNK A   4      12.240   4.709  24.177  0.00  0.00    -0.386 OA
ATOM     99  H   UNK A   4      12.233   4.268  25.051  0.00  0.00    +0.210 HD
ENDBRANCH  92  98
BRANCH  91 100
ATOM    100  O   UNK A   4      11.198   7.108  25.146  0.00  0.00    -0.383 OA
ATOM    101  H   UNK A   4      11.101   7.527  26.021  0.00  0.00    +0.210 HD
ENDBRANCH  91 100
BRANCH  94 102
ATOM    102  C   UNK A   4       7.606   3.339  23.096  0.00  0.00    +0.190 C 
BRANCH 102 103
ATOM    103  O   UNK A   4       8.320   2.144  22.772  0.00  0.00    -0.392 OA
ATOM    104  H   UNK A   4       9.115   2.416  22.277  0.00  0.00    +0.210 HD
ENDBRANCH 102 103
ENDBRANCH  94 102
ENDBRANCH  89  90
ENDBRANCH  15  89
BRANCH   6 105
ATOM    105  CB  ASN A   3       0.754   6.577  27.398  0.00  0.00    +0.127 C 
BRANCH 105 106
ATOM    106  CG  ASN A   3       1.260   6.507  28.938  0.00  0.00    +0.213 C 
ATOM    107  OD1 ASN A   3       0.494   6.494  29.894  0.00  0.00    -0.276 OA
ATOM    108  ND2 ASN A   3       2.643   6.300  29.117  0.00  0.00    -0.329 N 
ATOM    109 HD21 ASN A   3       2.883   5.933  30.056  0.00  0.00    +0.145 HD
ATOM    110 HD22 ASN A   3       3.208   5.889  28.364  0.00  0.00    +0.145 HD
ENDBRANCH 105 106
ENDBRANCH   6 105
TORSDOF 21
ENDMDL
