MODEL 1
REMARK VINA RESULT:      -7.1      0.000      0.000
REMARK  Name = 
REMARK  6 active torsions:
REMARK  status: ('A' for Active; 'I' for Inactive)
REMARK    1  A    between atoms: O_1  and  C_2
REMARK    2  A    between atoms: C_2  and  C_4
REMARK    3  A    between atoms: C_5  and  N_6
REMARK    4  A    between atoms: C_7  and  C_9
REMARK    5  A    between atoms: C_9  and  O_10
REMARK    6  A    between atoms: O_10  and  C_11
REMARK                            x       y       z     vdW  Elec       q    Type
REMARK                         _______ _______ _______ _____ _____    ______ ____
ROOT
ATOM      1  N   UNL     1       7.424  -4.014  24.666  0.00  0.00    -0.282 N 
ATOM      2  H   UNL     1       7.245  -3.170  25.211  0.00  0.00    +0.155 HD
ATOM      3  C   UNL     1       8.752  -4.315  24.405  0.00  0.00    +0.255 C 
ATOM      4  O   UNL     1       9.185  -5.456  24.247  0.00  0.00    -0.272 OA
ENDROOT
BRANCH   1  10
ATOM      5  C   UNL     1       6.071  -5.632  25.910  0.00  0.00    +0.080 A 
ATOM      6  C   UNL     1       5.023  -6.564  25.956  0.00  0.00    +0.017 A 
ATOM      7  C   UNL     1       4.304  -6.857  24.798  0.00  0.00    +0.001 A 
ATOM      8  C   UNL     1       4.631  -6.229  23.597  0.00  0.00    +0.002 A 
ATOM      9  C   UNL     1       5.682  -5.309  23.545  0.00  0.00    +0.024 A 
ATOM     10  C   UNL     1       6.403  -4.994  24.702  0.00  0.00    +0.048 A 
BRANCH   5  11
ATOM     11  C   UNL     1       6.874  -5.355  27.125  0.00  0.00    +0.339 C 
ATOM     12  O   UNL     1       6.528  -4.550  27.968  0.00  0.00    -0.245 OA
BRANCH  11  13
ATOM     13  O   UNL     1       8.056  -6.004  27.157  0.00  0.00    -0.477 OA
ATOM     14  H   UNL     1       8.786  -5.553  26.690  0.00  0.00    +0.295 HD
ENDBRANCH  11  13
ENDBRANCH   5  11
ENDBRANCH   1  10
BRANCH   3  15
ATOM     15  C   UNL     1       9.663  -3.093  24.341  0.00  0.00    +0.324 C 
BRANCH  15  16
ATOM     16  O   UNL     1       9.240  -2.358  23.198  0.00  0.00    -0.483 OA
BRANCH  16  17
ATOM     17  C   UNL     1       9.575  -1.039  23.118  0.00  0.00    +0.121 A 
ATOM     18  C   UNL     1       9.995  -0.486  24.332  0.00  0.00    +0.047 A 
ATOM     19  C   UNL     1      10.395   0.849  24.410  0.00  0.00    +0.023 A 
ATOM     20  C   UNL     1      10.369   1.637  23.263  0.00  0.00    +0.041 A 
ATOM     21 CL   UNL     1      10.878   3.278  23.346  0.00  0.00    -0.084 Cl
ATOM     22  C   UNL     1       9.945   1.099  22.048  0.00  0.00    +0.023 A 
ATOM     23  C   UNL     1       9.544  -0.242  21.974  0.00  0.00    +0.047 A 
ENDBRANCH  16  17
ENDBRANCH  15  16
ENDBRANCH   3  15
TORSDOF 6
ENDMDL
MODEL 2
REMARK VINA RESULT:      -7.0      1.097      1.170
REMARK  Name = 
REMARK  6 active torsions:
REMARK  status: ('A' for Active; 'I' for Inactive)
REMARK    1  A    between atoms: O_1  and  C_2
REMARK    2  A    between atoms: C_2  and  C_4
REMARK    3  A    between atoms: C_5  and  N_6
REMARK    4  A    between atoms: C_7  and  C_9
REMARK    5  A    between atoms: C_9  and  O_10
REMARK    6  A    between atoms: O_10  and  C_11
REMARK                            x       y       z     vdW  Elec       q    Type
REMARK                         _______ _______ _______ _____ _____    ______ ____
ROOT
ATOM      1  N   UNL     1       8.399  -4.457  24.107  0.00  0.00    -0.282 N 
ATOM      2  H   UNL     1       9.230  -5.030  23.947  0.00  0.00    +0.155 HD
ATOM      3  C   UNL     1       8.489  -3.120  23.753  0.00  0.00    +0.255 C 
ATOM      4  O   UNL     1       7.535  -2.434  23.388  0.00  0.00    -0.272 OA
ENDROOT
BRANCH   1  10
ATOM      5  C   UNL     1       6.536  -5.392  25.392  0.00  0.00    +0.080 A 
ATOM      6  C   UNL     1       5.293  -6.041  25.439  0.00  0.00    +0.017 A 
ATOM      7  C   UNL     1       4.683  -6.457  24.257  0.00  0.00    +0.001 A 
ATOM      8  C   UNL     1       5.309  -6.232  23.032  0.00  0.00    +0.002 A 
ATOM      9  C   UNL     1       6.553  -5.595  22.982  0.00  0.00    +0.024 A 
ATOM     10  C   UNL     1       7.172  -5.160  24.160  0.00  0.00    +0.048 A 
BRANCH   5  11
ATOM     11  C   UNL     1       7.216  -4.994  26.648  0.00  0.00    +0.339 C 
ATOM     12  O   UNL     1       7.085  -3.891  27.142  0.00  0.00    -0.245 OA
BRANCH  11  13
ATOM     13  O   UNL     1       8.058  -5.931  27.132  0.00  0.00    -0.477 OA
ATOM     14  H   UNL     1       7.625  -6.743  27.460  0.00  0.00    +0.295 HD
ENDBRANCH  11  13
ENDBRANCH   5  11
ENDBRANCH   1  10
BRANCH   3  15
ATOM     15  C   UNL     1       9.902  -2.550  23.837  0.00  0.00    +0.324 C 
BRANCH  15  16
ATOM     16  O   UNL     1      10.077  -1.782  22.652  0.00  0.00    -0.483 OA
BRANCH  16  17
ATOM     17  C   UNL     1      10.119  -0.424  22.763  0.00  0.00    +0.121 A 
ATOM     18  C   UNL     1      10.568   0.030  24.007  0.00  0.00    +0.047 A 
ATOM     19  C   UNL     1      10.690   1.396  24.269  0.00  0.00    +0.023 A 
ATOM     20  C   UNL     1      10.354   2.314  23.278  0.00  0.00    +0.041 A 
ATOM     21 CL   UNL     1      10.518   3.997  23.586  0.00  0.00    -0.084 Cl
ATOM     22  C   UNL     1       9.897   1.873  22.036  0.00  0.00    +0.023 A 
ATOM     23  C   UNL     1       9.776   0.501  21.776  0.00  0.00    +0.047 A 
ENDBRANCH  16  17
ENDBRANCH  15  16
ENDBRANCH   3  15
TORSDOF 6
ENDMDL
MODEL 3
REMARK VINA RESULT:      -6.8      1.278      2.420
REMARK  Name = 
REMARK  6 active torsions:
REMARK  status: ('A' for Active; 'I' for Inactive)
REMARK    1  A    between atoms: O_1  and  C_2
REMARK    2  A    between atoms: C_2  and  C_4
REMARK    3  A    between atoms: C_5  and  N_6
REMARK    4  A    between atoms: C_7  and  C_9
REMARK    5  A    between atoms: C_9  and  O_10
REMARK    6  A    between atoms: O_10  and  C_11
REMARK                            x       y       z     vdW  Elec       q    Type
REMARK                         _______ _______ _______ _____ _____    ______ ____
ROOT
ATOM      1  N   UNL     1       7.537  -3.903  24.518  0.00  0.00    -0.282 N 
ATOM      2  H   UNL     1       7.332  -2.966  24.870  0.00  0.00    +0.155 HD
ATOM      3  C   UNL     1       8.873  -4.259  24.439  0.00  0.00    +0.255 C 
ATOM      4  O   UNL     1       9.291  -5.412  24.547  0.00  0.00    -0.272 OA
ENDROOT
BRANCH   1  10
ATOM      5  C   UNL     1       5.768  -5.279  23.531  0.00  0.00    +0.080 A 
ATOM      6  C   UNL     1       4.770  -6.256  23.660  0.00  0.00    +0.017 A 
ATOM      7  C   UNL     1       4.497  -6.808  24.911  0.00  0.00    +0.001 A 
ATOM      8  C   UNL     1       5.211  -6.384  26.030  0.00  0.00    +0.002 A 
ATOM      9  C   UNL     1       6.198  -5.402  25.907  0.00  0.00    +0.024 A 
ATOM     10  C   UNL     1       6.493  -4.849  24.656  0.00  0.00    +0.048 A 
BRANCH   5  11
ATOM     11  C   UNL     1       6.027  -4.649  22.213  0.00  0.00    +0.339 C 
ATOM     12  O   UNL     1       5.299  -3.797  21.741  0.00  0.00    -0.245 OA
BRANCH  11  13
ATOM     13  O   UNL     1       7.081  -5.175  21.557  0.00  0.00    -0.477 OA
ATOM     14  H   UNL     1       6.963  -5.261  20.591  0.00  0.00    +0.295 HD
ENDBRANCH  11  13
ENDBRANCH   5  11
ENDBRANCH   1  10
BRANCH   3  15
ATOM     15  C   UNL     1       9.817  -3.080  24.218  0.00  0.00    +0.324 C 
BRANCH  15  16
ATOM     16  O   UNL     1       9.204  -2.282  23.211  0.00  0.00    -0.483 OA
BRANCH  16  17
ATOM     17  C   UNL     1       9.549  -0.966  23.131  0.00  0.00    +0.121 A 
ATOM     18  C   UNL     1       9.967  -0.415  24.346  0.00  0.00    +0.047 A 
ATOM     19  C   UNL     1      10.377   0.917  24.423  0.00  0.00    +0.023 A 
ATOM     20  C   UNL     1      10.363   1.705  23.276  0.00  0.00    +0.041 A 
ATOM     21 CL   UNL     1      10.883   3.341  23.358  0.00  0.00    -0.084 Cl
ATOM     22  C   UNL     1       9.940   1.167  22.060  0.00  0.00    +0.023 A 
ATOM     23  C   UNL     1       9.529  -0.170  21.985  0.00  0.00    +0.047 A 
ENDBRANCH  16  17
ENDBRANCH  15  16
ENDBRANCH   3  15
TORSDOF 6
ENDMDL
MODEL 4
REMARK VINA RESULT:      -6.8      1.323      2.280
REMARK  Name = 
REMARK  6 active torsions:
REMARK  status: ('A' for Active; 'I' for Inactive)
REMARK    1  A    between atoms: O_1  and  C_2
REMARK    2  A    between atoms: C_2  and  C_4
REMARK    3  A    between atoms: C_5  and  N_6
REMARK    4  A    between atoms: C_7  and  C_9
REMARK    5  A    between atoms: C_9  and  O_10
REMARK    6  A    between atoms: O_10  and  C_11
REMARK                            x       y       z     vdW  Elec       q    Type
REMARK                         _______ _______ _______ _____ _____    ______ ____
ROOT
ATOM      1  N   UNL     1       7.867  -4.063  23.311  0.00  0.00    -0.282 N 
ATOM      2  H   UNL     1       8.164  -4.638  22.521  0.00  0.00    +0.155 HD
ATOM      3  C   UNL     1       7.783  -2.697  23.089  0.00  0.00    +0.255 C 
ATOM      4  O   UNL     1       7.005  -1.946  23.676  0.00  0.00    -0.272 OA
ENDROOT
BRANCH   1  10
ATOM      5  C   UNL     1       7.702  -5.097  25.525  0.00  0.00    +0.080 A 
ATOM      6  C   UNL     1       6.938  -5.710  26.529  0.00  0.00    +0.017 A 
ATOM      7  C   UNL     1       5.582  -5.956  26.316  0.00  0.00    +0.001 A 
ATOM      8  C   UNL     1       4.990  -5.598  25.106  0.00  0.00    +0.002 A 
ATOM      9  C   UNL     1       5.751  -4.996  24.099  0.00  0.00    +0.024 A 
ATOM     10  C   UNL     1       7.110  -4.731  24.303  0.00  0.00    +0.048 A 
BRANCH   5  11
ATOM     11  C   UNL     1       9.155  -4.880  25.723  0.00  0.00    +0.339 C 
ATOM     12  O   UNL     1       9.958  -4.961  24.814  0.00  0.00    -0.245 OA
BRANCH  11  13
ATOM     13  O   UNL     1       9.506  -4.682  27.010  0.00  0.00    -0.477 OA
ATOM     14  H   UNL     1      10.218  -4.027  27.148  0.00  0.00    +0.295 HD
ENDBRANCH  11  13
ENDBRANCH   5  11
ENDBRANCH   1  10
BRANCH   3  15
ATOM     15  C   UNL     1       8.745  -2.183  22.021  0.00  0.00    +0.324 C 
BRANCH  15  16
ATOM     16  O   UNL     1       9.926  -1.806  22.719  0.00  0.00    -0.483 OA
BRANCH  16  17
ATOM     17  C   UNL     1      10.107  -0.488  23.018  0.00  0.00    +0.121 A 
ATOM     18  C   UNL     1       9.865   0.375  21.945  0.00  0.00    +0.047 A 
ATOM     19  C   UNL     1       9.983   1.758  22.098  0.00  0.00    +0.023 A 
ATOM     20  C   UNL     1      10.353   2.279  23.334  0.00  0.00    +0.041 A 
ATOM     21 CL   UNL     1      10.485   3.981  23.536  0.00  0.00    -0.084 Cl
ATOM     22  C   UNL     1      10.605   1.427  24.410  0.00  0.00    +0.023 A 
ATOM     23  C   UNL     1      10.485   0.040  24.253  0.00  0.00    +0.047 A 
ENDBRANCH  16  17
ENDBRANCH  15  16
ENDBRANCH   3  15
TORSDOF 6
ENDMDL
MODEL 5
REMARK VINA RESULT:      -6.7      2.211      2.962
REMARK  Name = 
REMARK  6 active torsions:
REMARK  status: ('A' for Active; 'I' for Inactive)
REMARK    1  A    between atoms: O_1  and  C_2
REMARK    2  A    between atoms: C_2  and  C_4
REMARK    3  A    between atoms: C_5  and  N_6
REMARK    4  A    between atoms: C_7  and  C_9
REMARK    5  A    between atoms: C_9  and  O_10
REMARK    6  A    between atoms: O_10  and  C_11
REMARK                            x       y       z     vdW  Elec       q    Type
REMARK                         _______ _______ _______ _____ _____    ______ ____
ROOT
ATOM      1  N   UNL     1       8.482  -2.393  24.049  0.00  0.00    -0.282 N 
ATOM      2  H   UNL     1       8.099  -2.195  24.975  0.00  0.00    +0.155 HD
ATOM      3  C   UNL     1       9.765  -1.934  23.796  0.00  0.00    +0.255 C 
ATOM      4  O   UNL     1      10.553  -2.472  23.020  0.00  0.00    -0.272 OA
ENDROOT
BRANCH   1  10
ATOM      5  C   UNL     1       8.066  -4.801  23.882  0.00  0.00    +0.080 A 
ATOM      6  C   UNL     1       7.455  -5.890  23.243  0.00  0.00    +0.017 A 
ATOM      7  C   UNL     1       6.687  -5.681  22.099  0.00  0.00    +0.001 A 
ATOM      8  C   UNL     1       6.531  -4.392  21.590  0.00  0.00    +0.002 A 
ATOM      9  C   UNL     1       7.148  -3.306  22.217  0.00  0.00    +0.024 A 
ATOM     10  C   UNL     1       7.911  -3.499  23.374  0.00  0.00    +0.048 A 
BRANCH   5  11
ATOM     11  C   UNL     1       8.929  -5.022  25.068  0.00  0.00    +0.339 C 
ATOM     12  O   UNL     1       8.496  -5.000  26.204  0.00  0.00    -0.245 OA
BRANCH  11  13
ATOM     13  O   UNL     1      10.238  -5.153  24.773  0.00  0.00    -0.477 OA
ATOM     14  H   UNL     1      10.509  -6.048  24.491  0.00  0.00    +0.295 HD
ENDBRANCH  11  13
ENDBRANCH   5  11
ENDBRANCH   1  10
BRANCH   3  15
ATOM     15  C   UNL     1      10.143  -0.684  24.586  0.00  0.00    +0.324 C 
BRANCH  15  16
ATOM     16  O   UNL     1      10.590   0.260  23.619  0.00  0.00    -0.483 OA
BRANCH  16  17
ATOM     17  C   UNL     1       9.722   1.229  23.212  0.00  0.00    +0.121 A 
ATOM     18  C   UNL     1       9.605   2.298  24.105  0.00  0.00    +0.047 A 
ATOM     19  C   UNL     1       8.773   3.381  23.820  0.00  0.00    +0.023 A 
ATOM     20  C   UNL     1       8.047   3.391  22.632  0.00  0.00    +0.041 A 
ATOM     21 CL   UNL     1       7.034   4.730  22.264  0.00  0.00    -0.084 Cl
ATOM     22  C   UNL     1       8.150   2.327  21.736  0.00  0.00    +0.023 A 
ATOM     23  C   UNL     1       8.987   1.241  22.026  0.00  0.00    +0.047 A 
ENDBRANCH  16  17
ENDBRANCH  15  16
ENDBRANCH   3  15
TORSDOF 6
ENDMDL
MODEL 6
REMARK VINA RESULT:      -6.6      1.744      2.752
REMARK  Name = 
REMARK  6 active torsions:
REMARK  status: ('A' for Active; 'I' for Inactive)
REMARK    1  A    between atoms: O_1  and  C_2
REMARK    2  A    between atoms: C_2  and  C_4
REMARK    3  A    between atoms: C_5  and  N_6
REMARK    4  A    between atoms: C_7  and  C_9
REMARK    5  A    between atoms: C_9  and  O_10
REMARK    6  A    between atoms: O_10  and  C_11
REMARK                            x       y       z     vdW  Elec       q    Type
REMARK                         _______ _______ _______ _____ _____    ______ ____
ROOT
ATOM      1  N   UNL     1       6.879  -3.274  23.834  0.00  0.00    -0.282 N 
ATOM      2  H   UNL     1       6.354  -2.402  23.755  0.00  0.00    +0.155 HD
ATOM      3  C   UNL     1       8.193  -3.250  23.393  0.00  0.00    +0.255 C 
ATOM      4  O   UNL     1       9.089  -3.962  23.845  0.00  0.00    -0.272 OA
ENDROOT
BRANCH   1  10
ATOM      5  C   UNL     1       5.641  -5.301  24.431  0.00  0.00    +0.080 A 
ATOM      6  C   UNL     1       5.221  -6.233  25.392  0.00  0.00    +0.017 A 
ATOM      7  C   UNL     1       5.570  -6.055  26.730  0.00  0.00    +0.001 A 
ATOM      8  C   UNL     1       6.330  -4.951  27.111  0.00  0.00    +0.002 A 
ATOM      9  C   UNL     1       6.740  -4.013  26.158  0.00  0.00    +0.024 A 
ATOM     10  C   UNL     1       6.409  -4.186  24.810  0.00  0.00    +0.048 A 
BRANCH   5  11
ATOM     11  C   UNL     1       5.229  -5.454  23.015  0.00  0.00    +0.339 C 
ATOM     12  O   UNL     1       4.638  -4.583  22.408  0.00  0.00    -0.245 OA
BRANCH  11  13
ATOM     13  O   UNL     1       5.485  -6.675  22.503  0.00  0.00    -0.477 OA
ATOM     14  H   UNL     1       4.855  -6.977  21.820  0.00  0.00    +0.295 HD
ENDBRANCH  11  13
ENDBRANCH   5  11
ENDBRANCH   1  10
BRANCH   3  15
ATOM     15  C   UNL     1       8.456  -2.236  22.284  0.00  0.00    +0.324 C 
BRANCH  15  16
ATOM     16  O   UNL     1       9.803  -1.813  22.463  0.00  0.00    -0.483 OA
BRANCH  16  17
ATOM     17  C   UNL     1      10.032  -0.520  22.828  0.00  0.00    +0.121 A 
ATOM     18  C   UNL     1       9.759   0.411  21.821  0.00  0.00    +0.047 A 
ATOM     19  C   UNL     1       9.920   1.778  22.048  0.00  0.00    +0.023 A 
ATOM     20  C   UNL     1      10.363   2.217  23.292  0.00  0.00    +0.041 A 
ATOM     21 CL   UNL     1      10.547   3.900  23.586  0.00  0.00    -0.084 Cl
ATOM     22  C   UNL     1      10.645   1.297  24.302  0.00  0.00    +0.023 A 
ATOM     23  C   UNL     1      10.483  -0.075  24.071  0.00  0.00    +0.047 A 
ENDBRANCH  16  17
ENDBRANCH  15  16
ENDBRANCH   3  15
TORSDOF 6
ENDMDL
MODEL 7
REMARK VINA RESULT:      -6.3      4.410      8.965
REMARK  Name = 
REMARK  6 active torsions:
REMARK  status: ('A' for Active; 'I' for Inactive)
REMARK    1  A    between atoms: O_1  and  C_2
REMARK    2  A    between atoms: C_2  and  C_4
REMARK    3  A    between atoms: C_5  and  N_6
REMARK    4  A    between atoms: C_7  and  C_9
REMARK    5  A    between atoms: C_9  and  O_10
REMARK    6  A    between atoms: O_10  and  C_11
REMARK                            x       y       z     vdW  Elec       q    Type
REMARK                         _______ _______ _______ _____ _____    ______ ____
ROOT
ATOM      1  N   UNL     1      10.479   2.975  22.479  0.00  0.00    -0.282 N 
ATOM      2  H   UNL     1      10.716   2.958  21.486  0.00  0.00    +0.155 HD
ATOM      3  C   UNL     1      10.356   1.747  23.110  0.00  0.00    +0.255 C 
ATOM      4  O   UNL     1      10.587   1.555  24.303  0.00  0.00    -0.272 OA
ENDROOT
BRANCH   1  10
ATOM      5  C   UNL     1       9.811   4.935  23.787  0.00  0.00    +0.080 A 
ATOM      6  C   UNL     1      10.148   6.086  24.515  0.00  0.00    +0.017 A 
ATOM      7  C   UNL     1      11.484   6.469  24.628  0.00  0.00    +0.001 A 
ATOM      8  C   UNL     1      12.480   5.711  24.015  0.00  0.00    +0.002 A 
ATOM      9  C   UNL     1      12.147   4.570  23.279  0.00  0.00    +0.024 A 
ATOM     10  C   UNL     1      10.812   4.166  23.168  0.00  0.00    +0.048 A 
BRANCH   5  11
ATOM     11  C   UNL     1       8.389   4.552  23.617  0.00  0.00    +0.339 C 
ATOM     12  O   UNL     1       7.715   4.121  24.532  0.00  0.00    -0.245 OA
BRANCH  11  13
ATOM     13  O   UNL     1       7.950   4.638  22.345  0.00  0.00    -0.477 OA
ATOM     14  H   UNL     1       7.469   5.460  22.129  0.00  0.00    +0.295 HD
ENDBRANCH  11  13
ENDBRANCH   5  11
ENDBRANCH   1  10
BRANCH   3  15
ATOM     15  C   UNL     1       9.916   0.616  22.184  0.00  0.00    +0.324 C 
BRANCH  15  16
ATOM     16  O   UNL     1      10.436  -0.576  22.762  0.00  0.00    -0.483 OA
BRANCH  16  17
ATOM     17  C   UNL     1       9.593  -1.633  22.931  0.00  0.00    +0.121 A 
ATOM     18  C   UNL     1       9.898  -2.430  24.039  0.00  0.00    +0.047 A 
ATOM     19  C   UNL     1       9.112  -3.538  24.361  0.00  0.00    +0.023 A 
ATOM     20  C   UNL     1       8.016  -3.853  23.564  0.00  0.00    +0.041 A 
ATOM     21 CL   UNL     1       7.032  -5.205  23.964  0.00  0.00    -0.084 Cl
ATOM     22  C   UNL     1       7.706  -3.070  22.452  0.00  0.00    +0.023 A 
ATOM     23  C   UNL     1       8.497  -1.958  22.131  0.00  0.00    +0.047 A 
ENDBRANCH  16  17
ENDBRANCH  15  16
ENDBRANCH   3  15
TORSDOF 6
ENDMDL
MODEL 8
REMARK VINA RESULT:      -6.2      1.865      2.224
REMARK  Name = 
REMARK  6 active torsions:
REMARK  status: ('A' for Active; 'I' for Inactive)
REMARK    1  A    between atoms: O_1  and  C_2
REMARK    2  A    between atoms: C_2  and  C_4
REMARK    3  A    between atoms: C_5  and  N_6
REMARK    4  A    between atoms: C_7  and  C_9
REMARK    5  A    between atoms: C_9  and  O_10
REMARK    6  A    between atoms: O_10  and  C_11
REMARK                            x       y       z     vdW  Elec       q    Type
REMARK                         _______ _______ _______ _____ _____    ______ ____
ROOT
ATOM      1  N   UNL     1       6.546  -4.179  24.356  0.00  0.00    -0.282 N 
ATOM      2  H   UNL     1       6.362  -3.183  24.489  0.00  0.00    +0.155 HD
ATOM      3  C   UNL     1       7.501  -4.513  23.410  0.00  0.00    +0.255 C 
ATOM      4  O   UNL     1       8.204  -5.523  23.460  0.00  0.00    -0.272 OA
ENDROOT
BRANCH   1  10
ATOM      5  C   UNL     1       6.948  -4.932  26.651  0.00  0.00    +0.080 A 
ATOM      6  C   UNL     1       6.591  -5.720  27.755  0.00  0.00    +0.017 A 
ATOM      7  C   UNL     1       5.505  -6.589  27.664  0.00  0.00    +0.001 A 
ATOM      8  C   UNL     1       4.780  -6.676  26.476  0.00  0.00    +0.002 A 
ATOM      9  C   UNL     1       5.140  -5.900  25.370  0.00  0.00    +0.024 A 
ATOM     10  C   UNL     1       6.220  -5.014  25.452  0.00  0.00    +0.048 A 
BRANCH   5  11
ATOM     11  C   UNL     1       8.135  -4.045  26.723  0.00  0.00    +0.339 C 
ATOM     12  O   UNL     1       8.077  -2.855  26.479  0.00  0.00    -0.245 OA
BRANCH  11  13
ATOM     13  O   UNL     1       9.286  -4.695  26.989  0.00  0.00    -0.477 OA
ATOM     14  H   UNL     1      10.046  -4.118  27.198  0.00  0.00    +0.295 HD
ENDBRANCH  11  13
ENDBRANCH   5  11
ENDBRANCH   1  10
BRANCH   3  15
ATOM     15  C   UNL     1       7.633  -3.500  22.276  0.00  0.00    +0.324 C 
BRANCH  15  16
ATOM     16  O   UNL     1       8.670  -2.610  22.676  0.00  0.00    -0.483 OA
BRANCH  16  17
ATOM     17  C   UNL     1       8.515  -1.280  22.421  0.00  0.00    +0.121 A 
ATOM     18  C   UNL     1       7.393  -0.712  23.034  0.00  0.00    +0.047 A 
ATOM     19  C   UNL     1       7.110   0.646  22.889  0.00  0.00    +0.023 A 
ATOM     20  C   UNL     1       7.954   1.442  22.119  0.00  0.00    +0.041 A 
ATOM     21 CL   UNL     1       7.622   3.120  21.949  0.00  0.00    -0.084 Cl
ATOM     22  C   UNL     1       9.071   0.885  21.496  0.00  0.00    +0.023 A 
ATOM     23  C   UNL     1       9.353  -0.480  21.644  0.00  0.00    +0.047 A 
ENDBRANCH  16  17
ENDBRANCH  15  16
ENDBRANCH   3  15
TORSDOF 6
ENDMDL
MODEL 9
REMARK VINA RESULT:      -6.2      2.202      3.240
REMARK  Name = 
REMARK  6 active torsions:
REMARK  status: ('A' for Active; 'I' for Inactive)
REMARK    1  A    between atoms: O_1  and  C_2
REMARK    2  A    between atoms: C_2  and  C_4
REMARK    3  A    between atoms: C_5  and  N_6
REMARK    4  A    between atoms: C_7  and  C_9
REMARK    5  A    between atoms: C_9  and  O_10
REMARK    6  A    between atoms: O_10  and  C_11
REMARK                            x       y       z     vdW  Elec       q    Type
REMARK                         _______ _______ _______ _____ _____    ______ ____
ROOT
ATOM      1  N   UNL     1       8.042  -2.551  23.396  0.00  0.00    -0.282 N 
ATOM      2  H   UNL     1       7.598  -1.665  23.147  0.00  0.00    +0.155 HD
ATOM      3  C   UNL     1       9.428  -2.580  23.371  0.00  0.00    +0.255 C 
ATOM      4  O   UNL     1      10.119  -3.306  24.085  0.00  0.00    -0.272 OA
ENDROOT
BRANCH   1  10
ATOM      5  C   UNL     1       6.544  -4.475  23.618  0.00  0.00    +0.080 A 
ATOM      6  C   UNL     1       5.819  -5.368  24.420  0.00  0.00    +0.017 A 
ATOM      7  C   UNL     1       5.816  -5.210  25.805  0.00  0.00    +0.001 A 
ATOM      8  C   UNL     1       6.529  -4.164  26.389  0.00  0.00    +0.002 A 
ATOM      9  C   UNL     1       7.244  -3.265  25.591  0.00  0.00    +0.024 A 
ATOM     10  C   UNL     1       7.266  -3.419  24.201  0.00  0.00    +0.048 A 
BRANCH   5  11
ATOM     11  C   UNL     1       6.509  -4.605  22.141  0.00  0.00    +0.339 C 
ATOM     12  O   UNL     1       7.263  -5.337  21.531  0.00  0.00    -0.245 OA
BRANCH  11  13
ATOM     13  O   UNL     1       5.635  -3.771  21.542  0.00  0.00    -0.477 OA
ATOM     14  H   UNL     1       4.708  -4.081  21.535  0.00  0.00    +0.295 HD
ENDBRANCH  11  13
ENDBRANCH   5  11
ENDBRANCH   1  10
BRANCH   3  15
ATOM     15  C   UNL     1      10.050  -1.605  22.376  0.00  0.00    +0.324 C 
BRANCH  15  16
ATOM     16  O   UNL     1      10.446  -0.474  23.143  0.00  0.00    -0.483 OA
BRANCH  16  17
ATOM     17  C   UNL     1       9.753   0.689  22.983  0.00  0.00    +0.121 A 
ATOM     18  C   UNL     1       9.943   1.609  24.019  0.00  0.00    +0.047 A 
ATOM     19  C   UNL     1       9.320   2.858  23.990  0.00  0.00    +0.023 A 
ATOM     20  C   UNL     1       8.495   3.185  22.918  0.00  0.00    +0.041 A 
ATOM     21 CL   UNL     1       7.738   4.728  22.865  0.00  0.00    -0.084 Cl
ATOM     22  C   UNL     1       8.292   2.273  21.883  0.00  0.00    +0.023 A 
ATOM     23  C   UNL     1       8.919   1.020  21.915  0.00  0.00    +0.047 A 
ENDBRANCH  16  17
ENDBRANCH  15  16
ENDBRANCH   3  15
TORSDOF 6
ENDMDL
