MODEL 1
REMARK VINA RESULT:      -3.3      0.000      0.000
REMARK  Name = 
REMARK  2 active torsions:
REMARK  status: ('A' for Active; 'I' for Inactive)
REMARK    1  A    between atoms: N_1  and  C_2
REMARK    2  A    between atoms: C_2  and  C_4
REMARK                            x       y       z     vdW  Elec       q    Type
REMARK                         _______ _______ _______ _____ _____    ______ ____
ROOT
ATOM      1  C   UNL     1       7.939  -5.260  25.820  0.00  0.00    +0.080 C 
ATOM      2  C   UNL     1       6.820  -5.054  25.116  0.00  0.00    +0.038 C 
ENDROOT
BRANCH   1   3
ATOM      3  C   UNL     1       9.252  -4.883  25.159  0.00  0.00    +0.255 C 
ATOM      4  O   UNL     1       9.369  -4.052  24.271  0.00  0.00    -0.269 OA
ATOM      5  N   UNL     1      10.325  -5.556  25.669  0.00  0.00    -0.324 N 
ATOM      6  H   UNL     1      11.237  -5.240  25.372  0.00  0.00    +0.145 HD
ATOM      7  H   UNL     1      10.234  -6.002  26.572  0.00  0.00    +0.145 HD
ENDBRANCH   1   3
BRANCH   1   8
ATOM      8  N   UNL     1       7.966  -5.808  27.097  0.00  0.00    -0.354 N 
ATOM      9  H   UNL     1       7.049  -5.733  27.535  0.00  0.00    +0.142 HD
ATOM     10  H   UNL     1       8.677  -5.370  27.679  0.00  0.00    +0.142 HD
ENDBRANCH   1   8
TORSDOF 2
ENDMDL
MODEL 2
REMARK VINA RESULT:      -3.3      6.758      7.282
REMARK  Name = 
REMARK  2 active torsions:
REMARK  status: ('A' for Active; 'I' for Inactive)
REMARK    1  A    between atoms: N_1  and  C_2
REMARK    2  A    between atoms: C_2  and  C_4
REMARK                            x       y       z     vdW  Elec       q    Type
REMARK                         _______ _______ _______ _____ _____    ______ ____
ROOT
ATOM      1  C   UNL     1       9.833   0.029  22.104  0.00  0.00    +0.080 C 
ATOM      2  C   UNL     1      10.403  -0.063  23.311  0.00  0.00    +0.038 C 
ENDROOT
BRANCH   1   3
ATOM      3  C   UNL     1       9.298   1.388  21.694  0.00  0.00    +0.255 C 
ATOM      4  O   UNL     1       8.142   1.610  21.366  0.00  0.00    -0.269 OA
ATOM      5  N   UNL     1      10.241   2.375  21.740  0.00  0.00    -0.324 N 
ATOM      6  H   UNL     1       9.908   3.321  21.622  0.00  0.00    +0.145 HD
ATOM      7  H   UNL     1      11.081   2.219  22.280  0.00  0.00    +0.145 HD
ENDBRANCH   1   3
BRANCH   1   8
ATOM      8  N   UNL     1       9.689  -1.039  21.227  0.00  0.00    -0.354 N 
ATOM      9  H   UNL     1       8.715  -1.338  21.188  0.00  0.00    +0.142 HD
ATOM     10  H   UNL     1      10.291  -1.819  21.483  0.00  0.00    +0.142 HD
ENDBRANCH   1   8
TORSDOF 2
ENDMDL
MODEL 3
REMARK VINA RESULT:      -3.2      6.427      7.013
REMARK  Name = 
REMARK  2 active torsions:
REMARK  status: ('A' for Active; 'I' for Inactive)
REMARK    1  A    between atoms: N_1  and  C_2
REMARK    2  A    between atoms: C_2  and  C_4
REMARK                            x       y       z     vdW  Elec       q    Type
REMARK                         _______ _______ _______ _____ _____    ______ ____
ROOT
ATOM      1  C   UNL     1      10.101   1.244  22.670  0.00  0.00    +0.080 C 
ATOM      2  C   UNL     1      10.506   1.769  23.832  0.00  0.00    +0.038 C 
ENDROOT
BRANCH   1   3
ATOM      3  C   UNL     1      10.031  -0.269  22.580  0.00  0.00    +0.255 C 
ATOM      4  O   UNL     1      10.167  -1.028  23.528  0.00  0.00    -0.269 OA
ATOM      5  N   UNL     1       9.775  -0.722  21.318  0.00  0.00    -0.324 N 
ATOM      6  H   UNL     1       9.571  -1.707  21.227  0.00  0.00    +0.145 HD
ATOM      7  H   UNL     1       9.387  -0.080  20.640  0.00  0.00    +0.145 HD
ENDBRANCH   1   3
BRANCH   1   8
ATOM      8  N   UNL     1       9.764   1.997  21.552  0.00  0.00    -0.354 N 
ATOM      9  H   UNL     1      10.356   1.744  20.762  0.00  0.00    +0.142 HD
ATOM     10  H   UNL     1       9.826   2.996  21.739  0.00  0.00    +0.142 HD
ENDBRANCH   1   8
TORSDOF 2
ENDMDL
MODEL 4
REMARK VINA RESULT:      -3.2      6.414      6.943
REMARK  Name = 
REMARK  2 active torsions:
REMARK  status: ('A' for Active; 'I' for Inactive)
REMARK    1  A    between atoms: N_1  and  C_2
REMARK    2  A    between atoms: C_2  and  C_4
REMARK                            x       y       z     vdW  Elec       q    Type
REMARK                         _______ _______ _______ _____ _____    ______ ____
ROOT
ATOM      1  C   UNL     1       9.960   0.890  22.140  0.00  0.00    +0.080 C 
ATOM      2  C   UNL     1       9.418  -0.089  21.406  0.00  0.00    +0.038 C 
ENDROOT
BRANCH   1   3
ATOM      3  C   UNL     1      10.426   0.529  23.538  0.00  0.00    +0.255 C 
ATOM      4  O   UNL     1      11.007   1.293  24.295  0.00  0.00    -0.269 OA
ATOM      5  N   UNL     1      10.115  -0.751  23.896  0.00  0.00    -0.324 N 
ATOM      6  H   UNL     1      10.267  -0.997  24.864  0.00  0.00    +0.145 HD
ATOM      7  H   UNL     1       9.399  -1.241  23.377  0.00  0.00    +0.145 HD
ENDBRANCH   1   3
BRANCH   1   8
ATOM      8  N   UNL     1      10.100   2.202  21.706  0.00  0.00    -0.354 N 
ATOM      9  H   UNL     1      10.454   2.225  20.750  0.00  0.00    +0.142 HD
ATOM     10  H   UNL     1      10.705   2.740  22.323  0.00  0.00    +0.142 HD
ENDBRANCH   1   8
TORSDOF 2
ENDMDL
MODEL 5
REMARK VINA RESULT:      -3.1      6.366      6.882
REMARK  Name = 
REMARK  2 active torsions:
REMARK  status: ('A' for Active; 'I' for Inactive)
REMARK    1  A    between atoms: N_1  and  C_2
REMARK    2  A    between atoms: C_2  and  C_4
REMARK                            x       y       z     vdW  Elec       q    Type
REMARK                         _______ _______ _______ _____ _____    ______ ____
ROOT
ATOM      1  C   UNL     1      10.258   0.378  23.355  0.00  0.00    +0.080 C 
ATOM      2  C   UNL     1      10.722   1.331  24.171  0.00  0.00    +0.038 C 
ENDROOT
BRANCH   1   3
ATOM      3  C   UNL     1       9.843   0.802  21.959  0.00  0.00    +0.255 C 
ATOM      4  O   UNL     1       9.327   0.064  21.133  0.00  0.00    -0.269 OA
ATOM      5  N   UNL     1      10.082   2.122  21.703  0.00  0.00    -0.324 N 
ATOM      6  H   UNL     1       9.692   2.492  20.849  0.00  0.00    +0.145 HD
ATOM      7  H   UNL     1      10.230   2.749  22.483  0.00  0.00    +0.145 HD
ENDBRANCH   1   3
BRANCH   1   8
ATOM      8  N   UNL     1      10.120  -0.957  23.717  0.00  0.00    -0.354 N 
ATOM      9  H   UNL     1       9.459  -1.049  24.487  0.00  0.00    +0.142 HD
ATOM     10  H   UNL     1      11.016  -1.374  23.963  0.00  0.00    +0.142 HD
ENDBRANCH   1   8
TORSDOF 2
ENDMDL
MODEL 6
REMARK VINA RESULT:      -3.1      6.449      6.973
REMARK  Name = 
REMARK  2 active torsions:
REMARK  status: ('A' for Active; 'I' for Inactive)
REMARK    1  A    between atoms: N_1  and  C_2
REMARK    2  A    between atoms: C_2  and  C_4
REMARK                            x       y       z     vdW  Elec       q    Type
REMARK                         _______ _______ _______ _____ _____    ______ ____
ROOT
ATOM      1  C   UNL     1       9.978  -0.158  22.564  0.00  0.00    +0.080 C 
ATOM      2  C   UNL     1      10.051  -0.841  23.712  0.00  0.00    +0.038 C 
ENDROOT
BRANCH   1   3
ATOM      3  C   UNL     1      10.123   1.350  22.644  0.00  0.00    +0.255 C 
ATOM      4  O   UNL     1      10.576   1.954  23.606  0.00  0.00    -0.269 OA
ATOM      5  N   UNL     1       9.711   1.992  21.513  0.00  0.00    -0.324 N 
ATOM      6  H   UNL     1       9.921   2.978  21.453  0.00  0.00    +0.145 HD
ATOM      7  H   UNL     1       9.623   1.461  20.657  0.00  0.00    +0.145 HD
ENDBRANCH   1   3
BRANCH   1   8
ATOM      8  N   UNL     1       9.761  -0.744  21.322  0.00  0.00    -0.354 N 
ATOM      9  H   UNL     1       9.731  -0.032  20.594  0.00  0.00    +0.142 HD
ATOM     10  H   UNL     1       8.909  -1.300  21.313  0.00  0.00    +0.142 HD
ENDBRANCH   1   8
TORSDOF 2
ENDMDL
MODEL 7
REMARK VINA RESULT:      -3.0      7.096      7.479
REMARK  Name = 
REMARK  2 active torsions:
REMARK  status: ('A' for Active; 'I' for Inactive)
REMARK    1  A    between atoms: N_1  and  C_2
REMARK    2  A    between atoms: C_2  and  C_4
REMARK                            x       y       z     vdW  Elec       q    Type
REMARK                         _______ _______ _______ _____ _____    ______ ____
ROOT
ATOM      1  C   UNL     1      10.147   1.050  23.824  0.00  0.00    +0.080 C 
ATOM      2  C   UNL     1      10.405  -0.133  23.257  0.00  0.00    +0.038 C 
ENDROOT
BRANCH   1   3
ATOM      3  C   UNL     1      10.410   2.290  22.990  0.00  0.00    +0.255 C 
ATOM      4  O   UNL     1      10.941   3.309  23.409  0.00  0.00    -0.269 OA
ATOM      5  N   UNL     1      10.011   2.161  21.692  0.00  0.00    -0.324 N 
ATOM      6  H   UNL     1      10.295   2.895  21.059  0.00  0.00    +0.145 HD
ATOM      7  H   UNL     1       9.853   1.233  21.322  0.00  0.00    +0.145 HD
ENDBRANCH   1   3
BRANCH   1   8
ATOM      8  N   UNL     1       9.675   1.205  25.122  0.00  0.00    -0.354 N 
ATOM      9  H   UNL     1      10.440   1.440  25.753  0.00  0.00    +0.142 HD
ATOM     10  H   UNL     1       9.188   0.372  25.447  0.00  0.00    +0.142 HD
ENDBRANCH   1   8
TORSDOF 2
ENDMDL
MODEL 8
REMARK VINA RESULT:      -2.9      5.534      6.088
REMARK  Name = 
REMARK  2 active torsions:
REMARK  status: ('A' for Active; 'I' for Inactive)
REMARK    1  A    between atoms: N_1  and  C_2
REMARK    2  A    between atoms: C_2  and  C_4
REMARK                            x       y       z     vdW  Elec       q    Type
REMARK                         _______ _______ _______ _____ _____    ______ ____
ROOT
ATOM      1  C   UNL     1      10.209  -0.502  23.440  0.00  0.00    +0.080 C 
ATOM      2  C   UNL     1      10.571   0.338  24.417  0.00  0.00    +0.038 C 
ENDROOT
BRANCH   1   3
ATOM      3  C   UNL     1       9.921   0.102  22.079  0.00  0.00    +0.255 C 
ATOM      4  O   UNL     1      10.020   1.291  21.811  0.00  0.00    -0.269 OA
ATOM      5  N   UNL     1       9.550  -0.823  21.146  0.00  0.00    -0.324 N 
ATOM      6  H   UNL     1       9.491  -0.500  20.191  0.00  0.00    +0.145 HD
ATOM      7  H   UNL     1       9.759  -1.797  21.318  0.00  0.00    +0.145 HD
ENDBRANCH   1   3
BRANCH   1   8
ATOM      8  N   UNL     1      10.065  -1.874  23.607  0.00  0.00    -0.354 N 
ATOM      9  H   UNL     1      10.596  -2.191  24.417  0.00  0.00    +0.142 HD
ATOM     10  H   UNL     1      10.346  -2.386  22.773  0.00  0.00    +0.142 HD
ENDBRANCH   1   8
TORSDOF 2
ENDMDL
MODEL 9
REMARK VINA RESULT:      -2.9     10.990     11.499
REMARK  Name = 
REMARK  2 active torsions:
REMARK  status: ('A' for Active; 'I' for Inactive)
REMARK    1  A    between atoms: N_1  and  C_2
REMARK    2  A    between atoms: C_2  and  C_4
REMARK                            x       y       z     vdW  Elec       q    Type
REMARK                         _______ _______ _______ _____ _____    ______ ____
ROOT
ATOM      1  C   UNL     1      12.248   5.720  23.702  0.00  0.00    +0.080 C 
ATOM      2  C   UNL     1      13.143   5.335  22.784  0.00  0.00    +0.038 C 
ENDROOT
BRANCH   1   3
ATOM      3  C   UNL     1      10.835   5.188  23.556  0.00  0.00    +0.255 C 
ATOM      4  O   UNL     1      10.508   4.024  23.736  0.00  0.00    -0.269 OA
ATOM      5  N   UNL     1       9.929   6.152  23.217  0.00  0.00    -0.324 N 
ATOM      6  H   UNL     1       8.955   5.886  23.252  0.00  0.00    +0.145 HD
ATOM      7  H   UNL     1      10.174   7.122  23.362  0.00  0.00    +0.145 HD
ENDBRANCH   1   3
BRANCH   1   8
ATOM      8  N   UNL     1      12.534   6.582  24.754  0.00  0.00    -0.354 N 
ATOM      9  H   UNL     1      13.412   6.319  25.200  0.00  0.00    +0.142 HD
ATOM     10  H   UNL     1      11.779   6.604  25.437  0.00  0.00    +0.142 HD
ENDBRANCH   1   8
TORSDOF 2
ENDMDL
