MODEL 1
REMARK VINA RESULT:      -5.1      0.000      0.000
REMARK  Name = 
REMARK  0 active torsions:
REMARK  status: ('A' for Active; 'I' for Inactive)
REMARK                            x       y       z     vdW  Elec       q    Type
REMARK                         _______ _______ _______ _____ _____    ______ ____
ROOT
ATOM      1 CL   UNL     1      10.619   3.440  23.559  0.00  0.00    -0.083 Cl
ATOM      2  C   UNL     1      10.219   1.807  23.185  0.00  0.00    +0.043 A 
ATOM      3  C   UNL     1       9.844   1.472  21.867  0.00  0.00    +0.024 A 
ATOM      4  C   UNL     1       9.513   0.154  21.532  0.00  0.00    +0.050 A 
ATOM      5  C   UNL     1       9.572  -0.784  22.539  0.00  0.00    +0.157 A 
ATOM      6  O   UNL     1       9.284  -2.134  22.411  0.00  0.00    -0.408 OA
ATOM      7  C   UNL     1       9.499  -2.608  23.712  0.00  0.00    +0.419 A 
ATOM      8  N   UNL     1       9.892  -1.593  24.553  0.00  0.00    -0.288 N 
ATOM      9  H   UNL     1      10.097  -1.725  25.530  0.00  0.00    +0.172 HD
ATOM     10  O   UNL     1       9.355  -3.774  24.046  0.00  0.00    -0.223 OA
ATOM     11  C   UNL     1       9.940  -0.441  23.823  0.00  0.00    +0.089 A 
ATOM     12  C   UNL     1      10.272   0.841  24.192  0.00  0.00    +0.049 A 
ENDROOT
TORSDOF 0
ENDMDL
MODEL 2
REMARK VINA RESULT:      -4.8      1.892      2.037
REMARK  Name = 
REMARK  0 active torsions:
REMARK  status: ('A' for Active; 'I' for Inactive)
REMARK                            x       y       z     vdW  Elec       q    Type
REMARK                         _______ _______ _______ _____ _____    ______ ____
ROOT
ATOM      1 CL   UNL     1       6.427   2.536  22.276  0.00  0.00    -0.083 Cl
ATOM      2  C   UNL     1       7.599   1.279  22.385  0.00  0.00    +0.043 A 
ATOM      3  C   UNL     1       8.740   1.325  21.556  0.00  0.00    +0.024 A 
ATOM      4  C   UNL     1       9.711   0.318  21.620  0.00  0.00    +0.050 A 
ATOM      5  C   UNL     1       9.499  -0.702  22.520  0.00  0.00    +0.157 A 
ATOM      6  O   UNL     1      10.337  -1.786  22.734  0.00  0.00    -0.408 OA
ATOM      7  C   UNL     1       9.655  -2.496  23.731  0.00  0.00    +0.419 A 
ATOM      8  N   UNL     1       8.485  -1.863  24.082  0.00  0.00    -0.288 N 
ATOM      9  H   UNL     1       7.850  -2.212  24.781  0.00  0.00    +0.172 HD
ATOM     10  O   UNL     1      10.057  -3.540  24.221  0.00  0.00    -0.223 OA
ATOM     11  C   UNL     1       8.378  -0.733  23.324  0.00  0.00    +0.089 A 
ATOM     12  C   UNL     1       7.403   0.235  23.291  0.00  0.00    +0.049 A 
ENDROOT
TORSDOF 0
ENDMDL
MODEL 3
REMARK VINA RESULT:      -4.8      1.079      1.121
REMARK  Name = 
REMARK  0 active torsions:
REMARK  status: ('A' for Active; 'I' for Inactive)
REMARK                            x       y       z     vdW  Elec       q    Type
REMARK                         _______ _______ _______ _____ _____    ______ ____
ROOT
ATOM      1 CL   UNL     1       8.828   3.814  24.587  0.00  0.00    -0.083 Cl
ATOM      2  C   UNL     1       9.243   2.261  23.970  0.00  0.00    +0.043 A 
ATOM      3  C   UNL     1       9.661   2.140  22.627  0.00  0.00    +0.024 A 
ATOM      4  C   UNL     1      10.005   0.891  22.097  0.00  0.00    +0.050 A 
ATOM      5  C   UNL     1       9.918  -0.196  22.938  0.00  0.00    +0.157 A 
ATOM      6  O   UNL     1      10.212  -1.508  22.606  0.00  0.00    -0.408 OA
ATOM      7  C   UNL     1       9.956  -2.184  23.806  0.00  0.00    +0.419 A 
ATOM      8  N   UNL     1       9.534  -1.315  24.786  0.00  0.00    -0.288 N 
ATOM      9  H   UNL     1       9.299  -1.601  25.722  0.00  0.00    +0.172 HD
ATOM     10  O   UNL     1      10.091  -3.389  23.954  0.00  0.00    -0.223 OA
ATOM     11  C   UNL     1       9.507  -0.061  24.248  0.00  0.00    +0.089 A 
ATOM     12  C   UNL     1       9.161   1.146  24.807  0.00  0.00    +0.049 A 
ENDROOT
TORSDOF 0
ENDMDL
MODEL 4
REMARK VINA RESULT:      -4.6      2.176      2.913
REMARK  Name = 
REMARK  0 active torsions:
REMARK  status: ('A' for Active; 'I' for Inactive)
REMARK                            x       y       z     vdW  Elec       q    Type
REMARK                         _______ _______ _______ _____ _____    ______ ____
ROOT
ATOM      1 CL   UNL     1       7.263   4.565  22.195  0.00  0.00    -0.083 Cl
ATOM      2  C   UNL     1       8.192   3.197  22.678  0.00  0.00    +0.043 A 
ATOM      3  C   UNL     1       8.767   3.173  23.966  0.00  0.00    +0.024 A 
ATOM      4  C   UNL     1       9.527   2.075  24.387  0.00  0.00    +0.050 A 
ATOM      5  C   UNL     1       9.682   1.037  23.495  0.00  0.00    +0.157 A 
ATOM      6  O   UNL     1      10.393  -0.130  23.720  0.00  0.00    -0.408 OA
ATOM      7  C   UNL     1      10.227  -0.818  22.511  0.00  0.00    +0.419 A 
ATOM      8  N   UNL     1       9.461  -0.093  21.628  0.00  0.00    -0.288 N 
ATOM      9  H   UNL     1       9.224  -0.411  20.703  0.00  0.00    +0.172 HD
ATOM     10  O   UNL     1      10.704  -1.918  22.280  0.00  0.00    -0.223 OA
ATOM     11  C   UNL     1       9.113   1.077  22.239  0.00  0.00    +0.089 A 
ATOM     12  C   UNL     1       8.361   2.135  21.788  0.00  0.00    +0.049 A 
ENDROOT
TORSDOF 0
ENDMDL
MODEL 5
REMARK VINA RESULT:      -4.6      6.433      7.407
REMARK  Name = 
REMARK  0 active torsions:
REMARK  status: ('A' for Active; 'I' for Inactive)
REMARK                            x       y       z     vdW  Elec       q    Type
REMARK                         _______ _______ _______ _____ _____    ______ ____
ROOT
ATOM      1 CL   UNL     1       5.212  -6.363  27.322  0.00  0.00    -0.083 Cl
ATOM      2  C   UNL     1       5.820  -5.945  25.765  0.00  0.00    +0.043 A 
ATOM      3  C   UNL     1       7.049  -5.259  25.665  0.00  0.00    +0.024 A 
ATOM      4  C   UNL     1       7.569  -4.906  24.414  0.00  0.00    +0.050 A 
ATOM      5  C   UNL     1       6.832  -5.258  23.305  0.00  0.00    +0.157 A 
ATOM      6  O   UNL     1       7.173  -5.001  21.986  0.00  0.00    -0.408 OA
ATOM      7  C   UNL     1       6.097  -5.560  21.286  0.00  0.00    +0.419 A 
ATOM      8  N   UNL     1       5.178  -6.115  22.147  0.00  0.00    -0.288 N 
ATOM      9  H   UNL     1       4.332  -6.568  21.843  0.00  0.00    +0.172 HD
ATOM     10  O   UNL     1       5.997  -5.553  20.069  0.00  0.00    -0.223 OA
ATOM     11  C   UNL     1       5.632  -5.928  23.420  0.00  0.00    +0.089 A 
ATOM     12  C   UNL     1       5.088  -6.293  24.628  0.00  0.00    +0.049 A 
ENDROOT
TORSDOF 0
ENDMDL
MODEL 6
REMARK VINA RESULT:      -4.6      3.352      4.483
REMARK  Name = 
REMARK  0 active torsions:
REMARK  status: ('A' for Active; 'I' for Inactive)
REMARK                            x       y       z     vdW  Elec       q    Type
REMARK                         _______ _______ _______ _____ _____    ______ ____
ROOT
ATOM      1 CL   UNL     1       7.708  -3.781  26.633  0.00  0.00    -0.083 Cl
ATOM      2  C   UNL     1       8.596  -2.689  25.642  0.00  0.00    +0.043 A 
ATOM      3  C   UNL     1       9.203  -3.166  24.460  0.00  0.00    +0.024 A 
ATOM      4  C   UNL     1       9.931  -2.302  23.634  0.00  0.00    +0.050 A 
ATOM      5  C   UNL     1      10.024  -0.985  24.025  0.00  0.00    +0.157 A 
ATOM      6  O   UNL     1      10.696   0.020  23.348  0.00  0.00    -0.408 OA
ATOM      7  C   UNL     1      10.473   1.133  24.170  0.00  0.00    +0.419 A 
ATOM      8  N   UNL     1       9.712   0.797  25.267  0.00  0.00    -0.288 N 
ATOM      9  H   UNL     1       9.440   1.454  25.979  0.00  0.00    +0.172 HD
ATOM     10  O   UNL     1      10.902   2.252  23.935  0.00  0.00    -0.223 OA
ATOM     11  C   UNL     1       9.425  -0.534  25.183  0.00  0.00    +0.089 A 
ATOM     12  C   UNL     1       8.702  -1.349  26.021  0.00  0.00    +0.049 A 
ENDROOT
TORSDOF 0
ENDMDL
MODEL 7
REMARK VINA RESULT:      -4.5      3.149      3.936
REMARK  Name = 
REMARK  0 active torsions:
REMARK  status: ('A' for Active; 'I' for Inactive)
REMARK                            x       y       z     vdW  Elec       q    Type
REMARK                         _______ _______ _______ _____ _____    ______ ____
ROOT
ATOM      1 CL   UNL     1      10.089  -0.810  21.985  0.00  0.00    -0.083 Cl
ATOM      2  C   UNL     1       9.176  -2.028  22.790  0.00  0.00    +0.043 A 
ATOM      3  C   UNL     1       7.944  -2.443  22.241  0.00  0.00    +0.024 A 
ATOM      4  C   UNL     1       7.179  -3.431  22.872  0.00  0.00    +0.050 A 
ATOM      5  C   UNL     1       7.681  -3.968  24.036  0.00  0.00    +0.157 A 
ATOM      6  O   UNL     1       7.079  -4.951  24.806  0.00  0.00    -0.408 OA
ATOM      7  C   UNL     1       7.998  -5.117  25.850  0.00  0.00    +0.419 A 
ATOM      8  N   UNL     1       9.079  -4.278  25.699  0.00  0.00    -0.288 N 
ATOM      9  H   UNL     1       9.851  -4.243  26.343  0.00  0.00    +0.172 HD
ATOM     10  O   UNL     1       7.851  -5.906  26.770  0.00  0.00    -0.223 OA
ATOM     11  C   UNL     1       8.887  -3.551  24.560  0.00  0.00    +0.089 A 
ATOM     12  C   UNL     1       9.668  -2.585  23.972  0.00  0.00    +0.049 A 
ENDROOT
TORSDOF 0
ENDMDL
MODEL 8
REMARK VINA RESULT:      -4.4      1.692      2.486
REMARK  Name = 
REMARK  0 active torsions:
REMARK  status: ('A' for Active; 'I' for Inactive)
REMARK                            x       y       z     vdW  Elec       q    Type
REMARK                         _______ _______ _______ _____ _____    ______ ____
ROOT
ATOM      1 CL   UNL     1      10.180   1.815  21.889  0.00  0.00    -0.083 Cl
ATOM      2  C   UNL     1       9.762   0.340  22.673  0.00  0.00    +0.043 A 
ATOM      3  C   UNL     1      10.184   0.120  24.001  0.00  0.00    +0.024 A 
ATOM      4  C   UNL     1       9.860  -1.070  24.665  0.00  0.00    +0.050 A 
ATOM      5  C   UNL     1       9.120  -1.998  23.967  0.00  0.00    +0.157 A 
ATOM      6  O   UNL     1       8.701  -3.230  24.444  0.00  0.00    -0.408 OA
ATOM      7  C   UNL     1       8.003  -3.752  23.347  0.00  0.00    +0.419 A 
ATOM      8  N   UNL     1       8.014  -2.875  22.287  0.00  0.00    -0.288 N 
ATOM      9  H   UNL     1       7.568  -3.061  21.404  0.00  0.00    +0.172 HD
ATOM     10  O   UNL     1       7.459  -4.845  23.342  0.00  0.00    -0.223 OA
ATOM     11  C   UNL     1       8.715  -1.768  22.669  0.00  0.00    +0.089 A 
ATOM     12  C   UNL     1       9.012  -0.615  21.983  0.00  0.00    +0.049 A 
ENDROOT
TORSDOF 0
ENDMDL
MODEL 9
REMARK VINA RESULT:      -4.4      3.602      4.416
REMARK  Name = 
REMARK  0 active torsions:
REMARK  status: ('A' for Active; 'I' for Inactive)
REMARK                            x       y       z     vdW  Elec       q    Type
REMARK                         _______ _______ _______ _____ _____    ______ ____
ROOT
ATOM      1 CL   UNL     1       9.938  -2.592  23.736  0.00  0.00    -0.083 Cl
ATOM      2  C   UNL     1       9.760  -0.894  23.515  0.00  0.00    +0.043 A 
ATOM      3  C   UNL     1       9.999  -0.335  22.241  0.00  0.00    +0.024 A 
ATOM      4  C   UNL     1       9.862   1.043  22.030  0.00  0.00    +0.050 A 
ATOM      5  C   UNL     1       9.487   1.811  23.110  0.00  0.00    +0.157 A 
ATOM      6  O   UNL     1       9.299   3.184  23.106  0.00  0.00    -0.408 OA
ATOM      7  C   UNL     1       8.935   3.438  24.435  0.00  0.00    +0.419 A 
ATOM      8  N   UNL     1       8.911   2.278  25.175  0.00  0.00    -0.288 N 
ATOM      9  H   UNL     1       8.673   2.244  26.152  0.00  0.00    +0.172 HD
ATOM     10  O   UNL     1       8.674   4.548  24.871  0.00  0.00    -0.223 OA
ATOM     11  C   UNL     1       9.258   1.248  24.349  0.00  0.00    +0.089 A 
ATOM     12  C   UNL     1       9.381  -0.098  24.597  0.00  0.00    +0.049 A 
ENDROOT
TORSDOF 0
ENDMDL
