MODEL 1
REMARK VINA RESULT:      -5.0      0.000      0.000
REMARK  Name = 
REMARK  7 active torsions:
REMARK  status: ('A' for Active; 'I' for Inactive)
REMARK    1  A    between atoms: C_1  and  C_2
REMARK    2  A    between atoms: C_3  and  C_4
REMARK    3  A    between atoms: C_4  and  CA_5
REMARK    4  A    between atoms: CA_5  and  N_7
REMARK    5  A    between atoms: CA_5  and  C_8
REMARK    6  A    between atoms: C_8  and  O_9
REMARK    7  A    between atoms: C_11  and  O_12
REMARK                            x       y       z     vdW  Elec       q    Type
REMARK                         _______ _______ _______ _____ _____    ______ ____
ROOT
ATOM      1  C   UNL     1       6.932  -4.490  25.099  0.00  0.00    +0.074 C 
ENDROOT
BRANCH   1   7
ATOM      2  C   UNL     1       4.536  -6.712  24.213  0.00  0.00    +0.089 C 
ATOM      3  C   UNL     1       5.335  -5.728  23.456  0.00  0.00    +0.141 A 
ATOM      4  O   UNL     1       5.028  -5.655  22.130  0.00  0.00    -0.356 OA
ATOM      5  N   UNL     1       5.805  -4.683  21.528  0.00  0.00    -0.040 NA
ATOM      6  C   UNL     1       6.562  -4.207  22.506  0.00  0.00    +0.256 A 
ATOM      7  C   UNL     1       6.330  -4.813  23.759  0.00  0.00    +0.059 A 
BRANCH   6   8
ATOM      8  O   UNL     1       7.436  -3.253  22.175  0.00  0.00    -0.490 OA
ATOM      9  H   UNL     1       7.910  -3.529  21.367  0.00  0.00    +0.294 HD
ENDBRANCH   6   8
ENDBRANCH   1   7
BRANCH   1  10
ATOM     10  CA  UNL     1       8.087  -5.380  25.581  0.00  0.00    +0.165 C 
BRANCH  10  11
ATOM     11  N   UNL     1       8.128  -5.598  27.066  0.00  0.00    -0.318 NA
ATOM     12  H1  UNL     1       8.090  -4.664  27.500  0.00  0.00    +0.119 HD
ATOM     13  H2  UNL     1       7.217  -5.993  27.342  0.00  0.00    +0.119 HD
ENDBRANCH  10  11
BRANCH  10  14
ATOM     14  C   UNL     1       9.423  -4.832  25.070  0.00  0.00    +0.322 C 
ATOM     15  OXT UNL     1       9.524  -3.844  24.358  0.00  0.00    -0.249 OA
BRANCH  14  16
ATOM     16  O   UNL     1      10.484  -5.567  25.477  0.00  0.00    -0.480 OA
ATOM     17  H   UNL     1      10.184  -6.304  26.051  0.00  0.00    +0.295 HD
ENDBRANCH  14  16
ENDBRANCH  10  14
ENDBRANCH   1  10
TORSDOF 6
ENDMDL
MODEL 2
REMARK VINA RESULT:      -4.9      3.471      4.716
REMARK  Name = 
REMARK  7 active torsions:
REMARK  status: ('A' for Active; 'I' for Inactive)
REMARK    1  A    between atoms: C_1  and  C_2
REMARK    2  A    between atoms: C_3  and  C_4
REMARK    3  A    between atoms: C_4  and  CA_5
REMARK    4  A    between atoms: CA_5  and  N_7
REMARK    5  A    between atoms: CA_5  and  C_8
REMARK    6  A    between atoms: C_8  and  O_9
REMARK    7  A    between atoms: C_11  and  O_12
REMARK                            x       y       z     vdW  Elec       q    Type
REMARK                         _______ _______ _______ _____ _____    ______ ____
ROOT
ATOM      1  C   UNL     1       8.779  -3.467  24.164  0.00  0.00    +0.074 C 
ENDROOT
BRANCH   1   7
ATOM      2  C   UNL     1       8.662  -1.058  26.540  0.00  0.00    +0.089 C 
ATOM      3  C   UNL     1       9.254  -1.120  25.189  0.00  0.00    +0.141 A 
ATOM      4  O   UNL     1       9.936   0.001  24.822  0.00  0.00    -0.356 OA
ATOM      5  N   UNL     1      10.476  -0.177  23.562  0.00  0.00    -0.040 NA
ATOM      6  C   UNL     1      10.097  -1.396  23.206  0.00  0.00    +0.256 A 
ATOM      7  C   UNL     1       9.320  -2.063  24.176  0.00  0.00    +0.059 A 
BRANCH   6   8
ATOM      8  O   UNL     1      10.478  -1.810  21.994  0.00  0.00    -0.490 OA
ATOM      9  H   UNL     1      10.863  -2.704  22.076  0.00  0.00    +0.294 HD
ENDBRANCH   6   8
ENDBRANCH   1   7
BRANCH   1  10
ATOM     10  CA  UNL     1       9.187  -4.384  25.328  0.00  0.00    +0.165 C 
BRANCH  10  11
ATOM     11  N   UNL     1      10.344  -5.293  25.028  0.00  0.00    -0.318 NA
ATOM     12  H1  UNL     1      10.133  -6.194  25.483  0.00  0.00    +0.119 HD
ATOM     13  H2  UNL     1      10.284  -5.544  24.030  0.00  0.00    +0.119 HD
ENDBRANCH  10  11
BRANCH  10  14
ATOM     14  C   UNL     1       7.975  -5.182  25.818  0.00  0.00    +0.322 C 
ATOM     15  OXT UNL     1       6.899  -5.209  25.239  0.00  0.00    -0.249 OA
BRANCH  14  16
ATOM     16  O   UNL     1       8.214  -5.845  26.974  0.00  0.00    -0.480 OA
ATOM     17  H   UNL     1       7.529  -5.620  27.640  0.00  0.00    +0.295 HD
ENDBRANCH  14  16
ENDBRANCH  10  14
ENDBRANCH   1  10
TORSDOF 6
ENDMDL
MODEL 3
REMARK VINA RESULT:      -4.8      5.832      6.996
REMARK  Name = 
REMARK  7 active torsions:
REMARK  status: ('A' for Active; 'I' for Inactive)
REMARK    1  A    between atoms: C_1  and  C_2
REMARK    2  A    between atoms: C_3  and  C_4
REMARK    3  A    between atoms: C_4  and  CA_5
REMARK    4  A    between atoms: CA_5  and  N_7
REMARK    5  A    between atoms: CA_5  and  C_8
REMARK    6  A    between atoms: C_8  and  O_9
REMARK    7  A    between atoms: C_11  and  O_12
REMARK                            x       y       z     vdW  Elec       q    Type
REMARK                         _______ _______ _______ _____ _____    ______ ____
ROOT
ATOM      1  C   UNL     1      10.557   0.901  23.854  0.00  0.00    +0.074 C 
ENDROOT
BRANCH   1   7
ATOM      2  C   UNL     1       8.918  -0.671  26.365  0.00  0.00    +0.089 C 
ATOM      3  C   UNL     1       9.299  -1.073  24.997  0.00  0.00    +0.141 A 
ATOM      4  O   UNL     1       8.874  -2.317  24.637  0.00  0.00    -0.356 OA
ATOM      5  N   UNL     1       9.252  -2.576  23.332  0.00  0.00    -0.040 NA
ATOM      6  C   UNL     1       9.900  -1.485  22.950  0.00  0.00    +0.256 A 
ATOM      7  C   UNL     1       9.977  -0.484  23.941  0.00  0.00    +0.059 A 
BRANCH   6   8
ATOM      8  O   UNL     1      10.397  -1.490  21.710  0.00  0.00    -0.490 OA
ATOM      9  H   UNL     1      11.275  -1.918  21.727  0.00  0.00    +0.294 HD
ENDBRANCH   6   8
ENDBRANCH   1   7
BRANCH   1  10
ATOM     10  CA  UNL     1       9.759   1.945  23.057  0.00  0.00    +0.165 C 
BRANCH  10  11
ATOM     11  N   UNL     1       9.917   1.843  21.567  0.00  0.00    -0.318 NA
ATOM     12  H1  UNL     1       9.880   2.807  21.202  0.00  0.00    +0.119 HD
ATOM     13  H2  UNL     1      10.898   1.587  21.380  0.00  0.00    +0.119 HD
ENDBRANCH  10  11
BRANCH  10  14
ATOM     14  C   UNL     1      10.098   3.355  23.549  0.00  0.00    +0.322 C 
ATOM     15  OXT UNL     1       9.393   3.995  24.315  0.00  0.00    -0.249 OA
BRANCH  14  16
ATOM     16  O   UNL     1      11.257   3.828  23.034  0.00  0.00    -0.480 OA
ATOM     17  H   UNL     1      11.202   3.865  22.055  0.00  0.00    +0.295 HD
ENDBRANCH  14  16
ENDBRANCH  10  14
ENDBRANCH   1  10
TORSDOF 6
ENDMDL
MODEL 4
REMARK VINA RESULT:      -4.8      5.130      6.327
REMARK  Name = 
REMARK  7 active torsions:
REMARK  status: ('A' for Active; 'I' for Inactive)
REMARK    1  A    between atoms: C_1  and  C_2
REMARK    2  A    between atoms: C_3  and  C_4
REMARK    3  A    between atoms: C_4  and  CA_5
REMARK    4  A    between atoms: CA_5  and  N_7
REMARK    5  A    between atoms: CA_5  and  C_8
REMARK    6  A    between atoms: C_8  and  O_9
REMARK    7  A    between atoms: C_11  and  O_12
REMARK                            x       y       z     vdW  Elec       q    Type
REMARK                         _______ _______ _______ _____ _____    ______ ____
ROOT
ATOM      1  C   UNL     1      10.744   0.532  24.207  0.00  0.00    +0.074 C 
ENDROOT
BRANCH   1   7
ATOM      2  C   UNL     1       8.733  -1.034  26.435  0.00  0.00    +0.089 C 
ATOM      3  C   UNL     1       9.132  -1.334  25.046  0.00  0.00    +0.141 A 
ATOM      4  O   UNL     1       8.545  -2.445  24.519  0.00  0.00    -0.356 OA
ATOM      5  N   UNL     1       8.959  -2.611  23.211  0.00  0.00    -0.040 NA
ATOM      6  C   UNL     1       9.788  -1.601  22.992  0.00  0.00    +0.256 A 
ATOM      7  C   UNL     1       9.955  -0.744  24.100  0.00  0.00    +0.059 A 
BRANCH   6   8
ATOM      8  O   UNL     1      10.354  -1.544  21.783  0.00  0.00    -0.490 OA
ATOM      9  H   UNL     1      11.151  -0.982  21.837  0.00  0.00    +0.294 HD
ENDBRANCH   6   8
ENDBRANCH   1   7
BRANCH   1  10
ATOM     10  CA  UNL     1       9.982   1.847  23.981  0.00  0.00    +0.165 C 
BRANCH  10  11
ATOM     11  N   UNL     1       8.960   2.164  25.035  0.00  0.00    -0.318 NA
ATOM     12  H1  UNL     1       9.297   3.006  25.525  0.00  0.00    +0.119 HD
ATOM     13  H2  UNL     1       8.124   2.525  24.551  0.00  0.00    +0.119 HD
ENDBRANCH  10  11
BRANCH  10  14
ATOM     14  C   UNL     1       9.352   1.857  22.585  0.00  0.00    +0.322 C 
ATOM     15  OXT UNL     1       8.170   1.630  22.371  0.00  0.00    -0.249 OA
BRANCH  14  16
ATOM     16  O   UNL     1      10.245   2.130  21.606  0.00  0.00    -0.480 OA
ATOM     17  H   UNL     1       9.801   2.117  20.731  0.00  0.00    +0.295 HD
ENDBRANCH  14  16
ENDBRANCH  10  14
ENDBRANCH   1  10
TORSDOF 6
ENDMDL
MODEL 5
REMARK VINA RESULT:      -4.8      2.899      4.193
REMARK  Name = 
REMARK  7 active torsions:
REMARK  status: ('A' for Active; 'I' for Inactive)
REMARK    1  A    between atoms: C_1  and  C_2
REMARK    2  A    between atoms: C_3  and  C_4
REMARK    3  A    between atoms: C_4  and  CA_5
REMARK    4  A    between atoms: CA_5  and  N_7
REMARK    5  A    between atoms: CA_5  and  C_8
REMARK    6  A    between atoms: C_8  and  O_9
REMARK    7  A    between atoms: C_11  and  O_12
REMARK                            x       y       z     vdW  Elec       q    Type
REMARK                         _______ _______ _______ _____ _____    ______ ____
ROOT
ATOM      1  C   UNL     1       8.632  -2.988  25.930  0.00  0.00    +0.074 C 
ENDROOT
BRANCH   1   7
ATOM      2  C   UNL     1      10.214  -0.207  24.821  0.00  0.00    +0.089 C 
ATOM      3  C   UNL     1       9.467  -1.285  24.144  0.00  0.00    +0.141 A 
ATOM      4  O   UNL     1       9.432  -1.178  22.786  0.00  0.00    -0.356 OA
ATOM      5  N   UNL     1       8.742  -2.251  22.254  0.00  0.00    -0.040 NA
ATOM      6  C   UNL     1       8.375  -2.967  23.308  0.00  0.00    +0.256 A 
ATOM      7  C   UNL     1       8.792  -2.427  24.543  0.00  0.00    +0.059 A 
BRANCH   6   8
ATOM      8  O   UNL     1       7.659  -4.068  23.062  0.00  0.00    -0.490 OA
ATOM      9  H   UNL     1       6.780  -3.802  22.730  0.00  0.00    +0.294 HD
ENDBRANCH   6   8
ENDBRANCH   1   7
BRANCH   1  10
ATOM     10  CA  UNL     1       9.086  -4.439  26.155  0.00  0.00    +0.165 C 
BRANCH  10  11
ATOM     11  N   UNL     1       9.986  -4.983  25.083  0.00  0.00    -0.318 NA
ATOM     12  H1  UNL     1       9.994  -6.007  25.200  0.00  0.00    +0.119 HD
ATOM     13  H2  UNL     1       9.489  -4.879  24.185  0.00  0.00    +0.119 HD
ENDBRANCH  10  11
BRANCH  10  14
ATOM     14  C   UNL     1       7.869  -5.345  26.362  0.00  0.00    +0.322 C 
ATOM     15  OXT UNL     1       6.984  -5.494  25.532  0.00  0.00    -0.249 OA
BRANCH  14  16
ATOM     16  O   UNL     1       7.866  -5.955  27.570  0.00  0.00    -0.480 OA
ATOM     17  H   UNL     1       7.842  -5.285  28.286  0.00  0.00    +0.295 HD
ENDBRANCH  14  16
ENDBRANCH  10  14
ENDBRANCH   1  10
TORSDOF 6
ENDMDL
MODEL 6
REMARK VINA RESULT:      -4.7      2.328      3.853
REMARK  Name = 
REMARK  7 active torsions:
REMARK  status: ('A' for Active; 'I' for Inactive)
REMARK    1  A    between atoms: C_1  and  C_2
REMARK    2  A    between atoms: C_3  and  C_4
REMARK    3  A    between atoms: C_4  and  CA_5
REMARK    4  A    between atoms: CA_5  and  N_7
REMARK    5  A    between atoms: CA_5  and  C_8
REMARK    6  A    between atoms: C_8  and  O_9
REMARK    7  A    between atoms: C_11  and  O_12
REMARK                            x       y       z     vdW  Elec       q    Type
REMARK                         _______ _______ _______ _____ _____    ______ ____
ROOT
ATOM      1  C   UNL     1       7.457  -4.746  24.304  0.00  0.00    +0.074 C 
ENDROOT
BRANCH   1   7
ATOM      2  C   UNL     1       4.664  -6.303  25.418  0.00  0.00    +0.089 C 
ATOM      3  C   UNL     1       5.934  -5.917  26.063  0.00  0.00    +0.141 A 
ATOM      4  O   UNL     1       6.040  -6.297  27.368  0.00  0.00    -0.356 OA
ATOM      5  N   UNL     1       7.275  -5.920  27.861  0.00  0.00    -0.040 NA
ATOM      6  C   UNL     1       7.871  -5.317  26.843  0.00  0.00    +0.256 A 
ATOM      7  C   UNL     1       7.094  -5.271  25.666  0.00  0.00    +0.059 A 
BRANCH   6   8
ATOM      8  O   UNL     1       9.094  -4.830  27.070  0.00  0.00    -0.490 OA
ATOM      9  H   UNL     1       9.750  -5.425  26.658  0.00  0.00    +0.294 HD
ENDBRANCH   6   8
ENDBRANCH   1   7
BRANCH   1  10
ATOM     10  CA  UNL     1       7.811  -3.254  24.201  0.00  0.00    +0.165 C 
BRANCH  10  11
ATOM     11  N   UNL     1       7.091  -2.517  23.109  0.00  0.00    -0.318 NA
ATOM     12  H1  UNL     1       6.302  -3.115  22.824  0.00  0.00    +0.119 HD
ATOM     13  H2  UNL     1       6.603  -1.722  23.547  0.00  0.00    +0.119 HD
ENDBRANCH  10  11
BRANCH  10  14
ATOM     14  C   UNL     1       9.328  -3.081  24.073  0.00  0.00    +0.322 C 
ATOM     15  OXT UNL     1      10.140  -3.924  24.423  0.00  0.00    -0.249 OA
BRANCH  14  16
ATOM     16  O   UNL     1       9.678  -1.886  23.543  0.00  0.00    -0.480 OA
ATOM     17  H   UNL     1       9.045  -1.631  22.838  0.00  0.00    +0.295 HD
ENDBRANCH  14  16
ENDBRANCH  10  14
ENDBRANCH   1  10
TORSDOF 6
ENDMDL
MODEL 7
REMARK VINA RESULT:      -4.7      5.475      6.917
REMARK  Name = 
REMARK  7 active torsions:
REMARK  status: ('A' for Active; 'I' for Inactive)
REMARK    1  A    between atoms: C_1  and  C_2
REMARK    2  A    between atoms: C_3  and  C_4
REMARK    3  A    between atoms: C_4  and  CA_5
REMARK    4  A    between atoms: CA_5  and  N_7
REMARK    5  A    between atoms: CA_5  and  C_8
REMARK    6  A    between atoms: C_8  and  O_9
REMARK    7  A    between atoms: C_11  and  O_12
REMARK                            x       y       z     vdW  Elec       q    Type
REMARK                         _______ _______ _______ _____ _____    ______ ____
ROOT
ATOM      1  C   UNL     1      10.681   1.080  24.427  0.00  0.00    +0.074 C 
ENDROOT
BRANCH   1   7
ATOM      2  C   UNL     1      10.306  -1.583  22.371  0.00  0.00    +0.089 C 
ATOM      3  C   UNL     1       9.817  -1.276  23.730  0.00  0.00    +0.141 A 
ATOM      4  O   UNL     1       9.099  -2.279  24.309  0.00  0.00    -0.356 OA
ATOM      5  N   UNL     1       8.723  -1.901  25.585  0.00  0.00    -0.040 NA
ATOM      6  C   UNL     1       9.218  -0.681  25.731  0.00  0.00    +0.256 A 
ATOM      7  C   UNL     1       9.924  -0.208  24.605  0.00  0.00    +0.059 A 
BRANCH   6   8
ATOM      8  O   UNL     1       8.969  -0.071  26.894  0.00  0.00    -0.490 OA
ATOM      9  H   UNL     1       9.781   0.385  27.188  0.00  0.00    +0.294 HD
ENDBRANCH   6   8
ENDBRANCH   1   7
BRANCH   1  10
ATOM     10  CA  UNL     1       9.864   2.327  24.054  0.00  0.00    +0.165 C 
BRANCH  10  11
ATOM     11  N   UNL     1       8.790   2.686  25.041  0.00  0.00    -0.318 NA
ATOM     12  H1  UNL     1       9.254   2.780  25.956  0.00  0.00    +0.119 HD
ATOM     13  H2  UNL     1       8.511   3.659  24.847  0.00  0.00    +0.119 HD
ENDBRANCH  10  11
BRANCH  10  14
ATOM     14  C   UNL     1       9.285   2.174  22.644  0.00  0.00    +0.322 C 
ATOM     15  OXT UNL     1       8.101   1.981  22.413  0.00  0.00    -0.249 OA
BRANCH  14  16
ATOM     16  O   UNL     1      10.227   2.261  21.676  0.00  0.00    -0.480 OA
ATOM     17  H   UNL     1       9.800   2.338  20.796  0.00  0.00    +0.295 HD
ENDBRANCH  14  16
ENDBRANCH  10  14
ENDBRANCH   1  10
TORSDOF 6
ENDMDL
MODEL 8
REMARK VINA RESULT:      -4.7      2.679      4.120
REMARK  Name = 
REMARK  7 active torsions:
REMARK  status: ('A' for Active; 'I' for Inactive)
REMARK    1  A    between atoms: C_1  and  C_2
REMARK    2  A    between atoms: C_3  and  C_4
REMARK    3  A    between atoms: C_4  and  CA_5
REMARK    4  A    between atoms: CA_5  and  N_7
REMARK    5  A    between atoms: CA_5  and  C_8
REMARK    6  A    between atoms: C_8  and  O_9
REMARK    7  A    between atoms: C_11  and  O_12
REMARK                            x       y       z     vdW  Elec       q    Type
REMARK                         _______ _______ _______ _____ _____    ______ ____
ROOT
ATOM      1  C   UNL     1       6.612  -5.184  24.903  0.00  0.00    +0.074 C 
ENDROOT
BRANCH   1   7
ATOM      2  C   UNL     1       7.473  -2.470  23.073  0.00  0.00    +0.089 C 
ATOM      3  C   UNL     1       8.253  -3.477  23.819  0.00  0.00    +0.141 A 
ATOM      4  O   UNL     1       9.598  -3.260  23.817  0.00  0.00    -0.356 OA
ATOM      5  N   UNL     1      10.225  -4.236  24.570  0.00  0.00    -0.040 NA
ATOM      6  C   UNL     1       9.240  -5.014  24.995  0.00  0.00    +0.256 A 
ATOM      7  C   UNL     1       7.959  -4.606  24.565  0.00  0.00    +0.059 A 
BRANCH   6   8
ATOM      8  O   UNL     1       9.589  -6.066  25.740  0.00  0.00    -0.490 OA
ATOM      9  H   UNL     1       9.978  -5.743  26.576  0.00  0.00    +0.294 HD
ENDBRANCH   6   8
ENDBRANCH   1   7
BRANCH   1  10
ATOM     10  CA  UNL     1       6.051  -4.881  26.301  0.00  0.00    +0.165 C 
BRANCH  10  11
ATOM     11  N   UNL     1       6.545  -3.598  26.906  0.00  0.00    -0.318 NA
ATOM     12  H1  UNL     1       5.877  -2.865  26.623  0.00  0.00    +0.119 HD
ATOM     13  H2  UNL     1       6.376  -3.654  27.922  0.00  0.00    +0.119 HD
ENDBRANCH  10  11
BRANCH  10  14
ATOM     14  C   UNL     1       6.307  -6.064  27.240  0.00  0.00    +0.322 C 
ATOM     15  OXT UNL     1       5.498  -6.956  27.445  0.00  0.00    -0.249 OA
BRANCH  14  16
ATOM     16  O   UNL     1       7.522  -6.012  27.833  0.00  0.00    -0.480 OA
ATOM     17  H   UNL     1       8.091  -6.739  27.502  0.00  0.00    +0.295 HD
ENDBRANCH  14  16
ENDBRANCH  10  14
ENDBRANCH   1  10
TORSDOF 6
ENDMDL
MODEL 9
REMARK VINA RESULT:      -4.6      2.040      4.682
REMARK  Name = 
REMARK  7 active torsions:
REMARK  status: ('A' for Active; 'I' for Inactive)
REMARK    1  A    between atoms: C_1  and  C_2
REMARK    2  A    between atoms: C_3  and  C_4
REMARK    3  A    between atoms: C_4  and  CA_5
REMARK    4  A    between atoms: CA_5  and  N_7
REMARK    5  A    between atoms: CA_5  and  C_8
REMARK    6  A    between atoms: C_8  and  O_9
REMARK    7  A    between atoms: C_11  and  O_12
REMARK                            x       y       z     vdW  Elec       q    Type
REMARK                         _______ _______ _______ _____ _____    ______ ____
ROOT
ATOM      1  C   UNL     1       6.156  -4.418  24.604  0.00  0.00    +0.074 C 
ENDROOT
BRANCH   1   7
ATOM      2  C   UNL     1       8.291  -2.567  22.739  0.00  0.00    +0.089 C 
ATOM      3  C   UNL     1       8.485  -3.577  23.798  0.00  0.00    +0.141 A 
ATOM      4  O   UNL     1       9.787  -3.792  24.138  0.00  0.00    -0.356 OA
ATOM      5  N   UNL     1       9.852  -4.724  25.156  0.00  0.00    -0.040 NA
ATOM      6  C   UNL     1       8.589  -5.049  25.392  0.00  0.00    +0.256 A 
ATOM      7  C   UNL     1       7.659  -4.371  24.577  0.00  0.00    +0.059 A 
BRANCH   6   8
ATOM      8  O   UNL     1       8.376  -5.969  26.337  0.00  0.00    -0.490 OA
ATOM      9  H   UNL     1       9.044  -6.675  26.243  0.00  0.00    +0.294 HD
ENDBRANCH   6   8
ENDBRANCH   1   7
BRANCH   1  10
ATOM     10  CA  UNL     1       5.475  -5.531  23.792  0.00  0.00    +0.165 C 
BRANCH  10  11
ATOM     11  N   UNL     1       4.413  -5.051  22.845  0.00  0.00    -0.318 NA
ATOM     12  H1  UNL     1       4.005  -5.893  22.412  0.00  0.00    +0.119 HD
ATOM     13  H2  UNL     1       3.627  -4.708  23.417  0.00  0.00    +0.119 HD
ENDBRANCH  10  11
BRANCH  10  14
ATOM     14  C   UNL     1       4.925  -6.608  24.733  0.00  0.00    +0.322 C 
ATOM     15  OXT UNL     1       4.166  -7.497  24.378  0.00  0.00    -0.249 OA
BRANCH  14  16
ATOM     16  O   UNL     1       5.357  -6.464  26.008  0.00  0.00    -0.480 OA
ATOM     17  H   UNL     1       4.638  -6.102  26.569  0.00  0.00    +0.295 HD
ENDBRANCH  14  16
ENDBRANCH  10  14
ENDBRANCH   1  10
TORSDOF 6
ENDMDL
