MODEL 1
REMARK VINA RESULT:      -5.6      0.000      0.000
REMARK  Name = 
REMARK  10 active torsions:
REMARK  status: ('A' for Active; 'I' for Inactive)
REMARK    1  A    between atoms: N_1  and  CA_2
REMARK    2  A    between atoms: CA_2  and  CB_4
REMARK    3  A    between atoms: CA_2  and  C_19
REMARK    4  A    between atoms: CB_4  and  SG_5
REMARK    5  A    between atoms: SG_5  and  C_6
REMARK    6  A    between atoms: C_9  and  CA_13
REMARK    7  A    between atoms: CA_13  and  N_15
REMARK    8  A    between atoms: CA_13  and  C_16
REMARK    9  A    between atoms: C_16  and  O_17
REMARK   10  A    between atoms: C_19  and  O_20
REMARK                            x       y       z     vdW  Elec       q    Type
REMARK                         _______ _______ _______ _____ _____    ______ ____
ROOT
ATOM      1  C   UNL     1       9.590  -2.407  23.768  0.00  0.00    +0.141 C 
ATOM      2  N   UNL     1      10.517  -2.084  22.684  0.00  0.00    -0.188 NA
ATOM      3  H   UNL     1      11.471  -2.252  23.017  0.00  0.00    +0.155 HD
ATOM      4  O   UNL     1      10.542  -0.626  22.543  0.00  0.00    -0.293 OA
ATOM      5  C   UNL     1       9.542  -0.046  23.404  0.00  0.00    +0.172 C 
ATOM      6  C   UNL     1       9.354  -1.093  24.482  0.00  0.00    +0.067 C 
ENDROOT
BRANCH   1   7
ATOM      7  SG  UNL     1       8.028  -3.100  23.125  0.00  0.00    -0.138 S 
BRANCH   7   8
ATOM      8  CB  UNL     1       8.053  -4.747  23.933  0.00  0.00    +0.100 C 
BRANCH   8   9
ATOM      9  CA  UNL     1       8.951  -4.730  25.180  0.00  0.00    +0.171 C 
BRANCH   9  10
ATOM     10  N   UNL     1       9.902  -5.888  25.268  0.00  0.00    -0.318 NA
ATOM     11  H1  UNL     1      10.285  -5.904  26.219  0.00  0.00    +0.119 HD
ATOM     12  H2  UNL     1       9.316  -6.735  25.246  0.00  0.00    +0.119 HD
ENDBRANCH   9  10
BRANCH   9  13
ATOM     13  C   UNL     1       8.091  -4.733  26.451  0.00  0.00    +0.323 C 
ATOM     14  OXT UNL     1       7.470  -3.781  26.894  0.00  0.00    -0.249 OA
BRANCH  13  15
ATOM     15  O   UNL     1       8.130  -5.950  27.057  0.00  0.00    -0.480 OA
ATOM     16  H   UNL     1       7.458  -5.917  27.784  0.00  0.00    +0.295 HD
ENDBRANCH  13  15
ENDBRANCH   9  13
ENDBRANCH   8   9
ENDBRANCH   7   8
ENDBRANCH   1   7
BRANCH   5  17
ATOM     17  CA  UNL     1       8.293   0.312  22.572  0.00  0.00    +0.192 C 
BRANCH  17  18
ATOM     18  N   UNL     1       7.097   0.390  23.452  0.00  0.00    -0.316 NA
ATOM     19  H1  UNL     1       7.011  -0.510  23.937  0.00  0.00    +0.119 HD
ATOM     20  H2  UNL     1       7.255   1.085  24.180  0.00  0.00    +0.119 HD
ENDBRANCH  17  18
BRANCH  17  21
ATOM     21  C   UNL     1       8.448   1.649  21.813  0.00  0.00    +0.324 C 
ATOM     22  OXT UNL     1       7.493   2.352  21.498  0.00  0.00    -0.249 OA
BRANCH  21  23
ATOM     23  O   UNL     1       9.701   1.955  21.410  0.00  0.00    -0.479 OA
ATOM     24  H   UNL     1      10.391   1.335  21.728  0.00  0.00    +0.295 HD
ENDBRANCH  21  23
ENDBRANCH  17  21
ENDBRANCH   5  17
TORSDOF 10
ENDMDL
MODEL 2
REMARK VINA RESULT:      -5.6      2.073      6.435
REMARK  Name = 
REMARK  10 active torsions:
REMARK  status: ('A' for Active; 'I' for Inactive)
REMARK    1  A    between atoms: N_1  and  CA_2
REMARK    2  A    between atoms: CA_2  and  CB_4
REMARK    3  A    between atoms: CA_2  and  C_19
REMARK    4  A    between atoms: CB_4  and  SG_5
REMARK    5  A    between atoms: SG_5  and  C_6
REMARK    6  A    between atoms: C_9  and  CA_13
REMARK    7  A    between atoms: CA_13  and  N_15
REMARK    8  A    between atoms: CA_13  and  C_16
REMARK    9  A    between atoms: C_16  and  O_17
REMARK   10  A    between atoms: C_19  and  O_20
REMARK                            x       y       z     vdW  Elec       q    Type
REMARK                         _______ _______ _______ _____ _____    ______ ____
ROOT
ATOM      1  C   UNL     1       9.245  -2.548  23.784  0.00  0.00    +0.141 C 
ATOM      2  N   UNL     1      10.100  -3.657  24.204  0.00  0.00    -0.188 NA
ATOM      3  H   UNL     1      10.654  -3.959  23.397  0.00  0.00    +0.155 HD
ATOM      4  O   UNL     1       9.244  -4.830  24.389  0.00  0.00    -0.293 OA
ATOM      5  C   UNL     1       7.864  -4.441  24.245  0.00  0.00    +0.172 C 
ATOM      6  C   UNL     1       7.936  -3.195  23.387  0.00  0.00    +0.067 C 
ENDROOT
BRANCH   1   7
ATOM      7  SG  UNL     1       9.005  -1.342  25.134  0.00  0.00    -0.138 S 
BRANCH   7   8
ATOM      8  CB  UNL     1       8.765   0.190  24.156  0.00  0.00    +0.100 C 
BRANCH   8   9
ATOM      9  CA  UNL     1      10.063   0.586  23.434  0.00  0.00    +0.171 C 
BRANCH   9  10
ATOM     10  N   UNL     1      10.713   1.827  23.977  0.00  0.00    -0.318 NA
ATOM     11  H1  UNL     1      11.594   1.962  23.470  0.00  0.00    +0.119 HD
ATOM     12  H2  UNL     1      10.138   2.614  23.643  0.00  0.00    +0.119 HD
ENDBRANCH   9  10
BRANCH   9  13
ATOM     13  C   UNL     1       9.791   0.815  21.942  0.00  0.00    +0.323 C 
ATOM     14  OXT UNL     1       9.387  -0.024  21.154  0.00  0.00    -0.249 OA
BRANCH  13  15
ATOM     15  O   UNL     1      10.091   2.094  21.587  0.00  0.00    -0.480 OA
ATOM     16  H   UNL     1      11.068   2.112  21.425  0.00  0.00    +0.295 HD
ENDBRANCH  13  15
ENDBRANCH   9  13
ENDBRANCH   8   9
ENDBRANCH   7   8
ENDBRANCH   1   7
BRANCH   5  17
ATOM     17  CA  UNL     1       7.228  -4.275  25.641  0.00  0.00    +0.192 C 
BRANCH  17  18
ATOM     18  N   UNL     1       5.788  -4.645  25.595  0.00  0.00    -0.316 NA
ATOM     19  H1  UNL     1       5.436  -4.399  24.663  0.00  0.00    +0.119 HD
ATOM     20  H2  UNL     1       5.694  -5.657  25.671  0.00  0.00    +0.119 HD
ENDBRANCH  17  18
BRANCH  17  21
ATOM     21  C   UNL     1       7.933  -5.128  26.720  0.00  0.00    +0.324 C 
ATOM     22  OXT UNL     1       7.386  -6.066  27.292  0.00  0.00    -0.249 OA
BRANCH  21  23
ATOM     23  O   UNL     1       9.165  -4.712  27.087  0.00  0.00    -0.479 OA
ATOM     24  H   UNL     1       9.768  -5.431  27.370  0.00  0.00    +0.295 HD
ENDBRANCH  21  23
ENDBRANCH  17  21
ENDBRANCH   5  17
TORSDOF 10
ENDMDL
MODEL 3
REMARK VINA RESULT:      -5.5      2.073      2.459
REMARK  Name = 
REMARK  10 active torsions:
REMARK  status: ('A' for Active; 'I' for Inactive)
REMARK    1  A    between atoms: N_1  and  CA_2
REMARK    2  A    between atoms: CA_2  and  CB_4
REMARK    3  A    between atoms: CA_2  and  C_19
REMARK    4  A    between atoms: CB_4  and  SG_5
REMARK    5  A    between atoms: SG_5  and  C_6
REMARK    6  A    between atoms: C_9  and  CA_13
REMARK    7  A    between atoms: CA_13  and  N_15
REMARK    8  A    between atoms: CA_13  and  C_16
REMARK    9  A    between atoms: C_16  and  O_17
REMARK   10  A    between atoms: C_19  and  O_20
REMARK                            x       y       z     vdW  Elec       q    Type
REMARK                         _______ _______ _______ _____ _____    ______ ____
ROOT
ATOM      1  C   UNL     1       9.002  -0.398  25.779  0.00  0.00    +0.141 C 
ATOM      2  N   UNL     1      10.262   0.177  25.310  0.00  0.00    -0.188 NA
ATOM      3  H   UNL     1      10.707   0.661  26.096  0.00  0.00    +0.155 HD
ATOM      4  O   UNL     1       9.935   1.317  24.451  0.00  0.00    -0.293 OA
ATOM      5  C   UNL     1       8.509   1.370  24.251  0.00  0.00    +0.172 C 
ATOM      6  C   UNL     1       7.955   0.648  25.462  0.00  0.00    +0.067 C 
ENDROOT
BRANCH   1   7
ATOM      7  SG  UNL     1       8.637  -1.978  24.939  0.00  0.00    -0.138 S 
BRANCH   7   8
ATOM      8  CB  UNL     1       8.682  -3.120  26.373  0.00  0.00    +0.100 C 
BRANCH   8   9
ATOM      9  CA  UNL     1       8.142  -4.506  25.985  0.00  0.00    +0.171 C 
BRANCH   9  10
ATOM     10  N   UNL     1       8.158  -5.506  27.105  0.00  0.00    -0.318 NA
ATOM     11  H1  UNL     1       9.138  -5.668  27.362  0.00  0.00    +0.119 HD
ATOM     12  H2  UNL     1       7.786  -5.012  27.929  0.00  0.00    +0.119 HD
ENDBRANCH   9  10
BRANCH   9  13
ATOM     13  C   UNL     1       8.961  -5.088  24.826  0.00  0.00    +0.323 C 
ATOM     14  OXT UNL     1       8.524  -5.399  23.730  0.00  0.00    -0.249 OA
BRANCH  13  15
ATOM     15  O   UNL     1      10.263  -5.247  25.187  0.00  0.00    -0.480 OA
ATOM     16  H   UNL     1      10.309  -6.109  25.674  0.00  0.00    +0.295 HD
ENDBRANCH  13  15
ENDBRANCH   9  13
ENDBRANCH   8   9
ENDBRANCH   7   8
ENDBRANCH   1   7
BRANCH   5  17
ATOM     17  CA  UNL     1       8.160   0.766  22.874  0.00  0.00    +0.192 C 
BRANCH  17  18
ATOM     18  N   UNL     1       7.018   1.500  22.268  0.00  0.00    -0.316 NA
ATOM     19  H1  UNL     1       6.525   0.848  21.648  0.00  0.00    +0.119 HD
ATOM     20  H2  UNL     1       6.351   1.753  22.995  0.00  0.00    +0.119 HD
ENDBRANCH  17  18
BRANCH  17  21
ATOM     21  C   UNL     1       9.354   0.794  21.894  0.00  0.00    +0.324 C 
ATOM     22  OXT UNL     1       9.928  -0.222  21.513  0.00  0.00    -0.249 OA
BRANCH  21  23
ATOM     23  O   UNL     1       9.812   2.020  21.559  0.00  0.00    -0.479 OA
ATOM     24  H   UNL     1      10.689   2.019  21.120  0.00  0.00    +0.295 HD
ENDBRANCH  21  23
ENDBRANCH  17  21
ENDBRANCH   5  17
TORSDOF 10
ENDMDL
MODEL 4
REMARK VINA RESULT:      -5.5      2.157      6.127
REMARK  Name = 
REMARK  10 active torsions:
REMARK  status: ('A' for Active; 'I' for Inactive)
REMARK    1  A    between atoms: N_1  and  CA_2
REMARK    2  A    between atoms: CA_2  and  CB_4
REMARK    3  A    between atoms: CA_2  and  C_19
REMARK    4  A    between atoms: CB_4  and  SG_5
REMARK    5  A    between atoms: SG_5  and  C_6
REMARK    6  A    between atoms: C_9  and  CA_13
REMARK    7  A    between atoms: CA_13  and  N_15
REMARK    8  A    between atoms: CA_13  and  C_16
REMARK    9  A    between atoms: C_16  and  O_17
REMARK   10  A    between atoms: C_19  and  O_20
REMARK                            x       y       z     vdW  Elec       q    Type
REMARK                         _______ _______ _______ _____ _____    ______ ____
ROOT
ATOM      1  C   UNL     1       6.611  -2.812  23.404  0.00  0.00    +0.141 C 
ATOM      2  N   UNL     1       7.411  -3.736  22.601  0.00  0.00    -0.188 NA
ATOM      3  H   UNL     1       6.846  -4.039  21.801  0.00  0.00    +0.155 HD
ATOM      4  O   UNL     1       7.511  -4.994  23.344  0.00  0.00    -0.293 OA
ATOM      5  C   UNL     1       6.926  -4.825  24.650  0.00  0.00    +0.172 C 
ATOM      6  C   UNL     1       5.955  -3.679  24.456  0.00  0.00    +0.067 C 
ENDROOT
BRANCH   1   7
ATOM      7  SG  UNL     1       7.650  -1.518  24.165  0.00  0.00    -0.138 S 
BRANCH   7   8
ATOM      8  CB  UNL     1       7.687  -0.294  22.800  0.00  0.00    +0.100 C 
BRANCH   8   9
ATOM      9  CA  UNL     1       9.027  -0.352  22.050  0.00  0.00    +0.171 C 
BRANCH   9  10
ATOM     10  N   UNL     1       9.842  -1.578  22.344  0.00  0.00    -0.318 NA
ATOM     11  H1  UNL     1       9.419  -2.361  21.834  0.00  0.00    +0.119 HD
ATOM     12  H2  UNL     1      10.737  -1.446  21.852  0.00  0.00    +0.119 HD
ENDBRANCH   9  10
BRANCH   9  13
ATOM     13  C   UNL     1       9.883   0.873  22.399  0.00  0.00    +0.323 C 
ATOM     14  OXT UNL     1      10.548   1.012  23.412  0.00  0.00    -0.249 OA
BRANCH  13  15
ATOM     15  O   UNL     1       9.784   1.823  21.430  0.00  0.00    -0.480 OA
ATOM     16  H   UNL     1       9.077   2.449  21.731  0.00  0.00    +0.295 HD
ENDBRANCH  13  15
ENDBRANCH   9  13
ENDBRANCH   8   9
ENDBRANCH   7   8
ENDBRANCH   1   7
BRANCH   5  17
ATOM     17  CA  UNL     1       8.045  -4.606  25.690  0.00  0.00    +0.192 C 
BRANCH  17  18
ATOM     18  N   UNL     1       7.880  -5.551  26.826  0.00  0.00    -0.316 NA
ATOM     19  H1  UNL     1       6.873  -5.675  26.980  0.00  0.00    +0.119 HD
ATOM     20  H2  UNL     1       8.236  -6.468  26.561  0.00  0.00    +0.119 HD
ENDBRANCH  17  18
BRANCH  17  21
ATOM     21  C   UNL     1       9.458  -4.784  25.088  0.00  0.00    +0.324 C 
ATOM     22  OXT UNL     1      10.050  -3.885  24.500  0.00  0.00    -0.249 OA
BRANCH  21  23
ATOM     23  O   UNL     1       9.970  -6.033  25.148  0.00  0.00    -0.479 OA
ATOM     24  H   UNL     1      10.945  -6.076  25.052  0.00  0.00    +0.295 HD
ENDBRANCH  21  23
ENDBRANCH  17  21
ENDBRANCH   5  17
TORSDOF 10
ENDMDL
MODEL 5
REMARK VINA RESULT:      -5.4      2.023      2.330
REMARK  Name = 
REMARK  10 active torsions:
REMARK  status: ('A' for Active; 'I' for Inactive)
REMARK    1  A    between atoms: N_1  and  CA_2
REMARK    2  A    between atoms: CA_2  and  CB_4
REMARK    3  A    between atoms: CA_2  and  C_19
REMARK    4  A    between atoms: CB_4  and  SG_5
REMARK    5  A    between atoms: SG_5  and  C_6
REMARK    6  A    between atoms: C_9  and  CA_13
REMARK    7  A    between atoms: CA_13  and  N_15
REMARK    8  A    between atoms: CA_13  and  C_16
REMARK    9  A    between atoms: C_16  and  O_17
REMARK   10  A    between atoms: C_19  and  O_20
REMARK                            x       y       z     vdW  Elec       q    Type
REMARK                         _______ _______ _______ _____ _____    ______ ____
ROOT
ATOM      1  C   UNL     1       8.930  -2.386  23.141  0.00  0.00    +0.141 C 
ATOM      2  N   UNL     1       8.463  -1.725  21.924  0.00  0.00    -0.188 NA
ATOM      3  H   UNL     1       8.671  -2.336  21.127  0.00  0.00    +0.155 HD
ATOM      4  O   UNL     1       9.373  -0.613  21.647  0.00  0.00    -0.293 OA
ATOM      5  C   UNL     1      10.300  -0.470  22.741  0.00  0.00    +0.172 C 
ATOM      6  C   UNL     1      10.330  -1.853  23.361  0.00  0.00    +0.067 C 
ENDROOT
BRANCH   1   7
ATOM      7  SG  UNL     1       7.847  -2.009  24.562  0.00  0.00    -0.138 S 
BRANCH   7   8
ATOM      8  CB  UNL     1       8.675  -2.997  25.867  0.00  0.00    +0.100 C 
BRANCH   8   9
ATOM      9  CA  UNL     1       8.187  -4.454  25.841  0.00  0.00    +0.171 C 
BRANCH   9  10
ATOM     10  N   UNL     1       8.195  -5.128  27.183  0.00  0.00    -0.318 NA
ATOM     11  H1  UNL     1       7.421  -4.735  27.731  0.00  0.00    +0.119 HD
ATOM     12  H2  UNL     1       7.884  -6.095  27.014  0.00  0.00    +0.119 HD
ENDBRANCH   9  10
BRANCH   9  13
ATOM     13  C   UNL     1       9.059  -5.288  24.894  0.00  0.00    +0.323 C 
ATOM     14  OXT UNL     1       8.717  -5.723  23.807  0.00  0.00    -0.249 OA
BRANCH  13  15
ATOM     15  O   UNL     1      10.284  -5.516  25.441  0.00  0.00    -0.480 OA
ATOM     16  H   UNL     1      10.858  -5.844  24.703  0.00  0.00    +0.295 HD
ENDBRANCH  13  15
ENDBRANCH   9  13
ENDBRANCH   8   9
ENDBRANCH   7   8
ENDBRANCH   1   7
BRANCH   5  17
ATOM     17  CA  UNL     1       9.839   0.681  23.659  0.00  0.00    +0.192 C 
BRANCH  17  18
ATOM     18  N   UNL     1      10.510   0.581  24.982  0.00  0.00    -0.316 NA
ATOM     19  H1  UNL     1      10.778   1.531  25.266  0.00  0.00    +0.119 HD
ATOM     20  H2  UNL     1       9.842   0.260  25.680  0.00  0.00    +0.119 HD
ENDBRANCH  17  18
BRANCH  17  21
ATOM     21  C   UNL     1      10.125   2.074  23.053  0.00  0.00    +0.324 C 
ATOM     22  OXT UNL     1      10.253   3.085  23.736  0.00  0.00    -0.249 OA
BRANCH  21  23
ATOM     23  O   UNL     1      10.115   2.142  21.703  0.00  0.00    -0.479 OA
ATOM     24  H   UNL     1      10.252   1.281  21.254  0.00  0.00    +0.295 HD
ENDBRANCH  21  23
ENDBRANCH  17  21
ENDBRANCH   5  17
TORSDOF 10
ENDMDL
MODEL 6
REMARK VINA RESULT:      -5.3      2.955      3.404
REMARK  Name = 
REMARK  10 active torsions:
REMARK  status: ('A' for Active; 'I' for Inactive)
REMARK    1  A    between atoms: N_1  and  CA_2
REMARK    2  A    between atoms: CA_2  and  CB_4
REMARK    3  A    between atoms: CA_2  and  C_19
REMARK    4  A    between atoms: CB_4  and  SG_5
REMARK    5  A    between atoms: SG_5  and  C_6
REMARK    6  A    between atoms: C_9  and  CA_13
REMARK    7  A    between atoms: CA_13  and  N_15
REMARK    8  A    between atoms: CA_13  and  C_16
REMARK    9  A    between atoms: C_16  and  O_17
REMARK   10  A    between atoms: C_19  and  O_20
REMARK                            x       y       z     vdW  Elec       q    Type
REMARK                         _______ _______ _______ _____ _____    ______ ____
ROOT
ATOM      1  C   UNL     1       8.996  -2.186  22.889  0.00  0.00    +0.141 C 
ATOM      2  N   UNL     1       9.698  -1.715  21.697  0.00  0.00    -0.188 NA
ATOM      3  H   UNL     1      10.373  -2.433  21.416  0.00  0.00    +0.155 HD
ATOM      4  O   UNL     1      10.609  -0.646  22.112  0.00  0.00    -0.293 OA
ATOM      5  C   UNL     1      10.380  -0.338  23.501  0.00  0.00    +0.172 C 
ATOM      6  C   UNL     1       9.778  -1.614  24.052  0.00  0.00    +0.067 C 
ENDROOT
BRANCH   1   7
ATOM      7  SG  UNL     1       7.262  -1.614  22.912  0.00  0.00    -0.138 S 
BRANCH   7   8
ATOM      8  CB  UNL     1       6.429  -3.142  23.491  0.00  0.00    +0.100 C 
BRANCH   8   9
ATOM      9  CA  UNL     1       5.540  -3.733  22.386  0.00  0.00    +0.171 C 
BRANCH   9  10
ATOM     10  N   UNL     1       4.253  -4.324  22.884  0.00  0.00    -0.318 NA
ATOM     11  H1  UNL     1       3.495  -3.690  22.610  0.00  0.00    +0.119 HD
ATOM     12  H2  UNL     1       4.078  -5.152  22.297  0.00  0.00    +0.119 HD
ENDBRANCH   9  10
BRANCH   9  13
ATOM     13  C   UNL     1       6.298  -4.831  21.628  0.00  0.00    +0.323 C 
ATOM     14  OXT UNL     1       5.991  -5.286  20.539  0.00  0.00    -0.249 OA
BRANCH  13  15
ATOM     15  O   UNL     1       7.363  -5.270  22.351  0.00  0.00    -0.480 OA
ATOM     16  H   UNL     1       8.162  -4.841  21.951  0.00  0.00    +0.295 HD
ENDBRANCH  13  15
ENDBRANCH   9  13
ENDBRANCH   8   9
ENDBRANCH   7   8
ENDBRANCH   1   7
BRANCH   5  17
ATOM     17  CA  UNL     1       9.509   0.932  23.609  0.00  0.00    +0.192 C 
BRANCH  17  18
ATOM     18  N   UNL     1       9.393   1.353  25.030  0.00  0.00    -0.316 NA
ATOM     19  H1  UNL     1      10.082   0.817  25.569  0.00  0.00    +0.119 HD
ATOM     20  H2  UNL     1       9.668   2.330  25.120  0.00  0.00    +0.119 HD
ENDBRANCH  17  18
BRANCH  17  21
ATOM     21  C   UNL     1      10.070   2.109  22.779  0.00  0.00    +0.324 C 
ATOM     22  OXT UNL     1      10.666   3.056  23.282  0.00  0.00    -0.249 OA
BRANCH  21  23
ATOM     23  O   UNL     1       9.770   2.095  21.461  0.00  0.00    -0.479 OA
ATOM     24  H   UNL     1      10.320   1.485  20.927  0.00  0.00    +0.295 HD
ENDBRANCH  21  23
ENDBRANCH  17  21
ENDBRANCH   5  17
TORSDOF 10
ENDMDL
MODEL 7
REMARK VINA RESULT:      -5.3      2.830      3.436
REMARK  Name = 
REMARK  10 active torsions:
REMARK  status: ('A' for Active; 'I' for Inactive)
REMARK    1  A    between atoms: N_1  and  CA_2
REMARK    2  A    between atoms: CA_2  and  CB_4
REMARK    3  A    between atoms: CA_2  and  C_19
REMARK    4  A    between atoms: CB_4  and  SG_5
REMARK    5  A    between atoms: SG_5  and  C_6
REMARK    6  A    between atoms: C_9  and  CA_13
REMARK    7  A    between atoms: CA_13  and  N_15
REMARK    8  A    between atoms: CA_13  and  C_16
REMARK    9  A    between atoms: C_16  and  O_17
REMARK   10  A    between atoms: C_19  and  O_20
REMARK                            x       y       z     vdW  Elec       q    Type
REMARK                         _______ _______ _______ _____ _____    ______ ____
ROOT
ATOM      1  C   UNL     1       8.331  -3.628  25.201  0.00  0.00    +0.141 C 
ATOM      2  N   UNL     1       9.433  -4.068  24.347  0.00  0.00    -0.188 NA
ATOM      3  H   UNL     1      10.154  -4.485  24.943  0.00  0.00    +0.155 HD
ATOM      4  O   UNL     1      10.136  -2.872  23.881  0.00  0.00    -0.293 OA
ATOM      5  C   UNL     1       9.410  -1.699  24.297  0.00  0.00    +0.172 C 
ATOM      6  C   UNL     1       8.630  -2.176  25.504  0.00  0.00    +0.067 C 
ENDROOT
BRANCH   1   7
ATOM      7  SG  UNL     1       6.721  -3.811  24.359  0.00  0.00    -0.138 S 
BRANCH   7   8
ATOM      8  CB  UNL     1       7.157  -5.080  23.108  0.00  0.00    +0.100 C 
BRANCH   8   9
ATOM      9  CA  UNL     1       6.038  -5.224  22.064  0.00  0.00    +0.171 C 
BRANCH   9  10
ATOM     10  N   UNL     1       5.736  -3.961  21.309  0.00  0.00    -0.318 NA
ATOM     11  H1  UNL     1       5.907  -4.146  20.315  0.00  0.00    +0.119 HD
ATOM     12  H2  UNL     1       4.713  -3.850  21.346  0.00  0.00    +0.119 HD
ENDBRANCH   9  10
BRANCH   9  13
ATOM     13  C   UNL     1       4.741  -5.688  22.739  0.00  0.00    +0.323 C 
ATOM     14  OXT UNL     1       3.694  -5.062  22.776  0.00  0.00    -0.249 OA
BRANCH  13  15
ATOM     15  O   UNL     1       4.911  -6.900  23.332  0.00  0.00    -0.480 OA
ATOM     16  H   UNL     1       5.046  -6.717  24.296  0.00  0.00    +0.295 HD
ENDBRANCH  13  15
ENDBRANCH   9  13
ENDBRANCH   8   9
ENDBRANCH   7   8
ENDBRANCH   1   7
BRANCH   5  17
ATOM     17  CA  UNL     1       8.578  -1.163  23.112  0.00  0.00    +0.192 C 
BRANCH  17  18
ATOM     18  N   UNL     1       7.730  -0.025  23.557  0.00  0.00    -0.316 NA
ATOM     19  H1  UNL     1       6.843  -0.082  23.043  0.00  0.00    +0.119 HD
ATOM     20  H2  UNL     1       7.490  -0.142  24.540  0.00  0.00    +0.119 HD
ENDBRANCH  17  18
BRANCH  17  21
ATOM     21  C   UNL     1       9.459  -0.702  21.929  0.00  0.00    +0.324 C 
ATOM     22  OXT UNL     1       9.311   0.380  21.369  0.00  0.00    -0.249 OA
BRANCH  21  23
ATOM     23  O   UNL     1      10.341  -1.614  21.462  0.00  0.00    -0.479 OA
ATOM     24  H   UNL     1      11.089  -1.799  22.068  0.00  0.00    +0.295 HD
ENDBRANCH  21  23
ENDBRANCH  17  21
ENDBRANCH   5  17
TORSDOF 10
ENDMDL
MODEL 8
REMARK VINA RESULT:      -5.3      2.716      5.746
REMARK  Name = 
REMARK  10 active torsions:
REMARK  status: ('A' for Active; 'I' for Inactive)
REMARK    1  A    between atoms: N_1  and  CA_2
REMARK    2  A    between atoms: CA_2  and  CB_4
REMARK    3  A    between atoms: CA_2  and  C_19
REMARK    4  A    between atoms: CB_4  and  SG_5
REMARK    5  A    between atoms: SG_5  and  C_6
REMARK    6  A    between atoms: C_9  and  CA_13
REMARK    7  A    between atoms: CA_13  and  N_15
REMARK    8  A    between atoms: CA_13  and  C_16
REMARK    9  A    between atoms: C_16  and  O_17
REMARK   10  A    between atoms: C_19  and  O_20
REMARK                            x       y       z     vdW  Elec       q    Type
REMARK                         _______ _______ _______ _____ _____    ______ ____
ROOT
ATOM      1  C   UNL     1       9.459  -2.193  24.380  0.00  0.00    +0.141 C 
ATOM      2  N   UNL     1       8.183  -1.611  24.794  0.00  0.00    -0.188 NA
ATOM      3  H   UNL     1       8.223  -1.436  25.803  0.00  0.00    +0.155 HD
ATOM      4  O   UNL     1       7.177  -2.674  24.750  0.00  0.00    -0.293 OA
ATOM      5  C   UNL     1       7.760  -3.859  24.175  0.00  0.00    +0.172 C 
ATOM      6  C   UNL     1       9.241  -3.690  24.441  0.00  0.00    +0.067 C 
ENDROOT
BRANCH   1   7
ATOM      7  SG  UNL     1       9.920  -1.659  22.696  0.00  0.00    -0.138 S 
BRANCH   7   8
ATOM      8  CB  UNL     1      10.183   0.133  22.990  0.00  0.00    +0.100 C 
BRANCH   8   9
ATOM      9  CA  UNL     1       9.461   0.973  21.924  0.00  0.00    +0.171 C 
BRANCH   9  10
ATOM     10  N   UNL     1      10.151   2.264  21.590  0.00  0.00    -0.318 NA
ATOM     11  H1  UNL     1      10.738   2.518  22.392  0.00  0.00    +0.119 HD
ATOM     12  H2  UNL     1      10.845   2.032  20.865  0.00  0.00    +0.119 HD
ENDBRANCH   9  10
BRANCH   9  13
ATOM     13  C   UNL     1       8.038   1.309  22.390  0.00  0.00    +0.323 C 
ATOM     14  OXT UNL     1       7.187   0.501  22.721  0.00  0.00    -0.249 OA
BRANCH  13  15
ATOM     15  O   UNL     1       7.826   2.653  22.360  0.00  0.00    -0.480 OA
ATOM     16  H   UNL     1       8.558   3.035  21.814  0.00  0.00    +0.295 HD
ENDBRANCH  13  15
ENDBRANCH   9  13
ENDBRANCH   8   9
ENDBRANCH   7   8
ENDBRANCH   1   7
BRANCH   5  17
ATOM     17  CA  UNL     1       7.338  -3.972  22.694  0.00  0.00    +0.192 C 
BRANCH  17  18
ATOM     18  N   UNL     1       7.271  -5.401  22.289  0.00  0.00    -0.316 NA
ATOM     19  H1  UNL     1       7.716  -5.483  21.368  0.00  0.00    +0.119 HD
ATOM     20  H2  UNL     1       7.837  -5.962  22.923  0.00  0.00    +0.119 HD
ENDBRANCH  17  18
BRANCH  17  21
ATOM     21  C   UNL     1       5.974  -3.303  22.413  0.00  0.00    +0.324 C 
ATOM     22  OXT UNL     1       4.977  -3.936  22.079  0.00  0.00    -0.249 OA
BRANCH  21  23
ATOM     23  O   UNL     1       5.963  -1.952  22.446  0.00  0.00    -0.479 OA
ATOM     24  H   UNL     1       6.051  -1.569  23.344  0.00  0.00    +0.295 HD
ENDBRANCH  21  23
ENDBRANCH  17  21
ENDBRANCH   5  17
TORSDOF 10
ENDMDL
MODEL 9
REMARK VINA RESULT:      -5.3      2.678      5.680
REMARK  Name = 
REMARK  10 active torsions:
REMARK  status: ('A' for Active; 'I' for Inactive)
REMARK    1  A    between atoms: N_1  and  CA_2
REMARK    2  A    between atoms: CA_2  and  CB_4
REMARK    3  A    between atoms: CA_2  and  C_19
REMARK    4  A    between atoms: CB_4  and  SG_5
REMARK    5  A    between atoms: SG_5  and  C_6
REMARK    6  A    between atoms: C_9  and  CA_13
REMARK    7  A    between atoms: CA_13  and  N_15
REMARK    8  A    between atoms: CA_13  and  C_16
REMARK    9  A    between atoms: C_16  and  O_17
REMARK   10  A    between atoms: C_19  and  O_20
REMARK                            x       y       z     vdW  Elec       q    Type
REMARK                         _______ _______ _______ _____ _____    ______ ____
ROOT
ATOM      1  C   UNL     1      10.055  -1.871  23.534  0.00  0.00    +0.141 C 
ATOM      2  N   UNL     1       9.820  -3.225  24.033  0.00  0.00    -0.188 NA
ATOM      3  H   UNL     1      10.537  -3.842  23.638  0.00  0.00    +0.155 HD
ATOM      4  O   UNL     1       8.628  -3.744  23.359  0.00  0.00    -0.293 OA
ATOM      5  C   UNL     1       8.030  -2.695  22.572  0.00  0.00    +0.172 C 
ATOM      6  C   UNL     1       9.186  -1.755  22.300  0.00  0.00    +0.067 C 
ENDROOT
BRANCH   1   7
ATOM      7  SG  UNL     1       9.608  -0.614  24.780  0.00  0.00    -0.138 S 
BRANCH   7   8
ATOM      8  CB  UNL     1      10.758   0.732  24.303  0.00  0.00    +0.100 C 
BRANCH   8   9
ATOM      9  CA  UNL     1       9.991   2.037  24.035  0.00  0.00    +0.171 C 
BRANCH   9  10
ATOM     10  N   UNL     1       8.890   2.315  25.018  0.00  0.00    -0.318 NA
ATOM     11  H1  UNL     1       8.629   1.422  25.451  0.00  0.00    +0.119 HD
ATOM     12  H2  UNL     1       9.332   2.823  25.798  0.00  0.00    +0.119 HD
ENDBRANCH   9  10
BRANCH   9  13
ATOM     13  C   UNL     1       9.368   2.006  22.633  0.00  0.00    +0.323 C 
ATOM     14  OXT UNL     1       8.206   1.737  22.375  0.00  0.00    -0.249 OA
BRANCH  13  15
ATOM     15  O   UNL     1      10.300   2.293  21.684  0.00  0.00    -0.480 OA
ATOM     16  H   UNL     1      10.883   2.991  22.075  0.00  0.00    +0.295 HD
ENDBRANCH  13  15
ENDBRANCH   9  13
ENDBRANCH   8   9
ENDBRANCH   7   8
ENDBRANCH   1   7
BRANCH   5  17
ATOM     17  CA  UNL     1       6.829  -2.101  23.337  0.00  0.00    +0.192 C 
BRANCH  17  18
ATOM     18  N   UNL     1       6.573  -0.708  22.884  0.00  0.00    -0.316 NA
ATOM     19  H1  UNL     1       6.657  -0.695  21.861  0.00  0.00    +0.119 HD
ATOM     20  H2  UNL     1       5.607  -0.455  23.087  0.00  0.00    +0.119 HD
ENDBRANCH  17  18
BRANCH  17  21
ATOM     21  C   UNL     1       5.539  -2.934  23.157  0.00  0.00    +0.324 C 
ATOM     22  OXT UNL     1       4.809  -3.243  24.093  0.00  0.00    -0.249 OA
BRANCH  21  23
ATOM     23  O   UNL     1       5.313  -3.406  21.911  0.00  0.00    -0.479 OA
ATOM     24  H   UNL     1       5.554  -2.785  21.193  0.00  0.00    +0.295 HD
ENDBRANCH  21  23
ENDBRANCH  17  21
ENDBRANCH   5  17
TORSDOF 10
ENDMDL
