MODEL 1
REMARK VINA RESULT:      -6.8      0.000      0.000
REMARK  Name = 
REMARK  15 active torsions:
REMARK  status: ('A' for Active; 'I' for Inactive)
REMARK    1  A    between atoms: C_1  and  C_2
REMARK    2  A    between atoms: C_2  and  C_3
REMARK    3  A    between atoms: C_2  and  C_4
REMARK    4  A    between atoms: C_4  and  C_5
REMARK    5  A    between atoms: C_5  and  N_7
REMARK    6  A    between atoms: C_5  and  C_18
REMARK    7  A    between atoms: N_7  and  S_8
REMARK    8  A    between atoms: S_8  and  C_11
REMARK    9  A    between atoms: C_11  and  C_12
REMARK   10  A    between atoms: C_24  and  C_26
REMARK   11  A    between atoms: N_28  and  C_29
REMARK   12  A    between atoms: C_29  and  C_30
REMARK   13  A    between atoms: C_30  and  C_31
REMARK   14  A    between atoms: C_31  and  C_32
REMARK   15  A    between atoms: C_32  and  N_33
REMARK                            x       y       z     vdW  Elec       q    Type
REMARK                         _______ _______ _______ _____ _____    ______ ____
ROOT
ATOM      1  C   UNL     1       8.249  -1.707  25.757  0.00  0.00    +0.235 C 
ATOM      2  N   UNL     1       7.914  -3.046  25.532  0.00  0.00    -0.289 N 
ATOM      3  C   UNL     1       8.088  -3.717  24.246  0.00  0.00    +0.162 C 
ATOM      4  C   UNL     1       8.506  -5.160  24.556  0.00  0.00    +0.033 C 
ATOM      5  C   UNL     1       8.894  -5.136  26.026  0.00  0.00    +0.021 C 
ATOM      6  C   UNL     1       8.036  -4.028  26.608  0.00  0.00    +0.108 C 
ATOM      7  O   UNL     1       8.807  -1.399  26.813  0.00  0.00    -0.274 OA
ENDROOT
BRANCH   3   8
ATOM      8  C   UNL     1       6.813  -3.667  23.406  0.00  0.00    +0.234 C 
ATOM      9  N   UNL     1       5.738  -4.325  23.962  0.00  0.00    -0.314 N 
ATOM     10  H   UNL     1       5.774  -4.479  24.962  0.00  0.00    +0.149 HD
ATOM     11  O   UNL     1       6.823  -3.178  22.279  0.00  0.00    -0.274 OA
BRANCH   9  12
ATOM     12  C   UNL     1       4.470  -4.511  23.287  0.00  0.00    +0.104 C 
BRANCH  12  13
ATOM     13  C   UNL     1       3.781  -5.856  23.549  0.00  0.00    +0.022 C 
BRANCH  13  14
ATOM     14  C   UNL     1       4.625  -6.856  24.350  0.00  0.00    +0.042 C 
BRANCH  14  15
ATOM     15  C   UNL     1       4.260  -6.852  25.827  0.00  0.00    +0.243 C 
BRANCH  15  16
ATOM     16  N   UNL     1       5.465  -6.599  26.608  0.00  0.00    -0.114 NA
ATOM     17  C   UNL     1       5.417  -6.869  27.861  0.00  0.00    +0.376 C 
ATOM     18  N   UNL     1       6.485  -6.595  28.634  0.00  0.00    -0.289 N 
ATOM     19  H   UNL     1       6.719  -7.279  29.337  0.00  0.00    +0.255 HD
ATOM     20  H   UNL     1       7.286  -6.341  28.066  0.00  0.00    +0.255 HD
ATOM     21  N   UNL     1       4.391  -7.375  28.578  0.00  0.00    -0.289 N 
ATOM     22  H   UNL     1       4.626  -7.895  29.409  0.00  0.00    +0.255 HD
ATOM     23  H   UNL     1       3.634  -7.789  28.050  0.00  0.00    +0.255 HD
ENDBRANCH  15  16
ENDBRANCH  14  15
ENDBRANCH  13  14
ENDBRANCH  12  13
ENDBRANCH   9  12
ENDBRANCH   3   8
BRANCH   1  24
ATOM     24  C   UNL     1       7.876  -0.621  24.696  0.00  0.00    +0.162 C 
BRANCH  24  25
ATOM     25  N   UNL     1       8.415  -0.871  23.316  0.00  0.00    -0.182 NA
ATOM     26  H   UNL     1       7.845  -0.377  22.629  0.00  0.00    +0.148 HD
BRANCH  25  27
ATOM     27  S   UNL     1      10.050  -0.595  22.937  0.00  0.00    +0.034 S 
ATOM     28  O   UNL     1      10.610  -1.743  22.270  0.00  0.00    -0.158 OA
ATOM     29  O   UNL     1      10.631  -0.061  24.151  0.00  0.00    -0.158 OA
BRANCH  27  30
ATOM     30  C   UNL     1       9.803   0.738  21.754  0.00  0.00    +0.220 C 
BRANCH  30  31
ATOM     31  C   UNL     1       8.911   1.869  22.202  0.00  0.00    -0.025 A 
ATOM     32  C   UNL     1       7.626   2.106  21.701  0.00  0.00    +0.005 A 
ATOM     33  C   UNL     1       6.902   3.239  22.097  0.00  0.00    +0.000 A 
ATOM     34  C   UNL     1       7.462   4.166  22.975  0.00  0.00    +0.000 A 
ATOM     35  C   UNL     1       8.748   3.962  23.462  0.00  0.00    +0.000 A 
ATOM     36  C   UNL     1       9.464   2.828  23.076  0.00  0.00    +0.005 A 
ENDBRANCH  30  31
ENDBRANCH  27  30
ENDBRANCH  25  27
ENDBRANCH  24  25
BRANCH  24  37
ATOM     37  C   UNL     1       6.347  -0.419  24.480  0.00  0.00    +0.032 C 
BRANCH  37  39
ATOM     38  C   UNL     1       4.793   0.433  26.292  0.00  0.00    +0.007 C 
ATOM     39  C   UNL     1       5.748   0.833  25.162  0.00  0.00    -0.015 C 
ATOM     40  C   UNL     1       6.823   1.764  25.715  0.00  0.00    +0.007 C 
ENDBRANCH  37  39
ENDBRANCH  24  37
ENDBRANCH   1  24
TORSDOF 13
ENDMDL
MODEL 2
REMARK VINA RESULT:      -6.7      2.575      7.798
REMARK  Name = 
REMARK  15 active torsions:
REMARK  status: ('A' for Active; 'I' for Inactive)
REMARK    1  A    between atoms: C_1  and  C_2
REMARK    2  A    between atoms: C_2  and  C_3
REMARK    3  A    between atoms: C_2  and  C_4
REMARK    4  A    between atoms: C_4  and  C_5
REMARK    5  A    between atoms: C_5  and  N_7
REMARK    6  A    between atoms: C_5  and  C_18
REMARK    7  A    between atoms: N_7  and  S_8
REMARK    8  A    between atoms: S_8  and  C_11
REMARK    9  A    between atoms: C_11  and  C_12
REMARK   10  A    between atoms: C_24  and  C_26
REMARK   11  A    between atoms: N_28  and  C_29
REMARK   12  A    between atoms: C_29  and  C_30
REMARK   13  A    between atoms: C_30  and  C_31
REMARK   14  A    between atoms: C_31  and  C_32
REMARK   15  A    between atoms: C_32  and  N_33
REMARK                            x       y       z     vdW  Elec       q    Type
REMARK                         _______ _______ _______ _____ _____    ______ ____
ROOT
ATOM      1  C   UNL     1       8.796  -2.706  23.958  0.00  0.00    +0.235 C 
ATOM      2  N   UNL     1       8.992  -1.321  23.922  0.00  0.00    -0.289 N 
ATOM      3  C   UNL     1       8.262  -0.381  24.769  0.00  0.00    +0.162 C 
ATOM      4  C   UNL     1       9.249   0.733  25.140  0.00  0.00    +0.033 C 
ATOM      5  C   UNL     1      10.613   0.174  24.764  0.00  0.00    +0.021 C 
ATOM      6  C   UNL     1      10.311  -0.771  23.616  0.00  0.00    +0.108 C 
ATOM      7  O   UNL     1       9.776  -3.451  23.897  0.00  0.00    -0.274 OA
ENDROOT
BRANCH   3   8
ATOM      8  C   UNL     1       7.027   0.174  24.062  0.00  0.00    +0.234 C 
ATOM      9  N   UNL     1       6.448   1.255  24.690  0.00  0.00    -0.314 N 
ATOM     10  H   UNL     1       7.039   1.773  25.328  0.00  0.00    +0.149 HD
ATOM     11  O   UNL     1       6.550  -0.402  23.088  0.00  0.00    -0.274 OA
BRANCH   9  12
ATOM     12  C   UNL     1       5.202   1.861  24.267  0.00  0.00    +0.104 C 
BRANCH  12  13
ATOM     13  C   UNL     1       5.347   3.088  23.360  0.00  0.00    +0.022 C 
BRANCH  13  14
ATOM     14  C   UNL     1       6.607   3.925  23.619  0.00  0.00    +0.042 C 
BRANCH  14  15
ATOM     15  C   UNL     1       7.530   3.951  22.411  0.00  0.00    +0.243 C 
BRANCH  15  16
ATOM     16  N   UNL     1       7.541   2.627  21.798  0.00  0.00    -0.114 NA
ATOM     17  C   UNL     1       8.683   2.070  21.631  0.00  0.00    +0.376 C 
ATOM     18  N   UNL     1       8.748   0.874  21.014  0.00  0.00    -0.289 N 
ATOM     19  H   UNL     1       9.399   0.206  21.395  0.00  0.00    +0.255 HD
ATOM     20  H   UNL     1       7.821   0.480  20.895  0.00  0.00    +0.255 HD
ATOM     21  N   UNL     1       9.908   2.536  21.956  0.00  0.00    -0.289 N 
ATOM     22  H   UNL     1      10.624   1.852  22.140  0.00  0.00    +0.255 HD
ATOM     23  H   UNL     1       9.936   3.322  22.592  0.00  0.00    +0.255 HD
ENDBRANCH  15  16
ENDBRANCH  14  15
ENDBRANCH  13  14
ENDBRANCH  12  13
ENDBRANCH   9  12
ENDBRANCH   3   8
BRANCH   1  24
ATOM     24  C   UNL     1       7.346  -3.286  24.027  0.00  0.00    +0.162 C 
BRANCH  24  25
ATOM     25  N   UNL     1       7.127  -4.545  23.237  0.00  0.00    -0.182 NA
ATOM     26  H   UNL     1       7.087  -5.346  23.868  0.00  0.00    +0.148 HD
BRANCH  25  27
ATOM     27  S   UNL     1       5.847  -4.686  22.127  0.00  0.00    +0.034 S 
ATOM     28  O   UNL     1       6.281  -5.394  20.949  0.00  0.00    -0.158 OA
ATOM     29  O   UNL     1       5.269  -3.361  22.050  0.00  0.00    -0.158 OA
BRANCH  27  30
ATOM     30  C   UNL     1       4.783  -5.747  23.118  0.00  0.00    +0.220 C 
BRANCH  30  31
ATOM     31  C   UNL     1       3.495  -5.130  23.605  0.00  0.00    -0.025 A 
ATOM     32  C   UNL     1       3.413  -4.179  24.629  0.00  0.00    +0.005 A 
ATOM     33  C   UNL     1       2.169  -3.731  25.091  0.00  0.00    +0.000 A 
ATOM     34  C   UNL     1       0.988  -4.246  24.558  0.00  0.00    +0.000 A 
ATOM     35  C   UNL     1       1.048  -5.212  23.559  0.00  0.00    +0.000 A 
ATOM     36  C   UNL     1       2.289  -5.650  23.092  0.00  0.00    +0.005 A 
ENDBRANCH  30  31
ENDBRANCH  27  30
ENDBRANCH  25  27
ENDBRANCH  24  25
BRANCH  24  37
ATOM     37  C   UNL     1       6.854  -3.644  25.462  0.00  0.00    +0.032 C 
BRANCH  37  39
ATOM     38  C   UNL     1       8.450  -5.165  26.713  0.00  0.00    +0.007 C 
ATOM     39  C   UNL     1       7.144  -5.094  25.912  0.00  0.00    -0.015 C 
ATOM     40  C   UNL     1       6.009  -5.682  26.745  0.00  0.00    +0.007 C 
ENDBRANCH  37  39
ENDBRANCH  24  37
ENDBRANCH   1  24
TORSDOF 13
ENDMDL
MODEL 3
REMARK VINA RESULT:      -6.7      2.083      3.295
REMARK  Name = 
REMARK  15 active torsions:
REMARK  status: ('A' for Active; 'I' for Inactive)
REMARK    1  A    between atoms: C_1  and  C_2
REMARK    2  A    between atoms: C_2  and  C_3
REMARK    3  A    between atoms: C_2  and  C_4
REMARK    4  A    between atoms: C_4  and  C_5
REMARK    5  A    between atoms: C_5  and  N_7
REMARK    6  A    between atoms: C_5  and  C_18
REMARK    7  A    between atoms: N_7  and  S_8
REMARK    8  A    between atoms: S_8  and  C_11
REMARK    9  A    between atoms: C_11  and  C_12
REMARK   10  A    between atoms: C_24  and  C_26
REMARK   11  A    between atoms: N_28  and  C_29
REMARK   12  A    between atoms: C_29  and  C_30
REMARK   13  A    between atoms: C_30  and  C_31
REMARK   14  A    between atoms: C_31  and  C_32
REMARK   15  A    between atoms: C_32  and  N_33
REMARK                            x       y       z     vdW  Elec       q    Type
REMARK                         _______ _______ _______ _____ _____    ______ ____
ROOT
ATOM      1  C   UNL     1       8.614  -0.952  25.821  0.00  0.00    +0.235 C 
ATOM      2  N   UNL     1       8.436  -2.286  25.442  0.00  0.00    -0.289 N 
ATOM      3  C   UNL     1       9.071  -2.883  24.269  0.00  0.00    +0.162 C 
ATOM      4  C   UNL     1       9.422  -4.328  24.647  0.00  0.00    +0.033 C 
ATOM      5  C   UNL     1       9.280  -4.370  26.161  0.00  0.00    +0.021 C 
ATOM      6  C   UNL     1       8.226  -3.320  26.454  0.00  0.00    +0.108 C 
ATOM      7  O   UNL     1       8.760  -0.684  27.015  0.00  0.00    -0.274 OA
ENDROOT
BRANCH   3   8
ATOM      8  C   UNL     1       8.162  -2.826  23.043  0.00  0.00    +0.234 C 
ATOM      9  N   UNL     1       7.205  -3.816  22.997  0.00  0.00    -0.314 N 
ATOM     10  H   UNL     1       6.973  -4.259  23.877  0.00  0.00    +0.149 HD
ATOM     11  O   UNL     1       8.379  -2.025  22.138  0.00  0.00    -0.274 OA
BRANCH   9  12
ATOM     12  C   UNL     1       6.319  -4.028  21.870  0.00  0.00    +0.104 C 
BRANCH  12  13
ATOM     13  C   UNL     1       5.886  -5.481  21.644  0.00  0.00    +0.022 C 
BRANCH  13  14
ATOM     14  C   UNL     1       5.877  -6.347  22.910  0.00  0.00    +0.042 C 
BRANCH  14  15
ATOM     15  C   UNL     1       4.790  -5.918  23.883  0.00  0.00    +0.243 C 
BRANCH  15  16
ATOM     16  N   UNL     1       5.273  -6.115  25.245  0.00  0.00    -0.114 NA
ATOM     17  C   UNL     1       4.636  -6.955  25.975  0.00  0.00    +0.376 C 
ATOM     18  N   UNL     1       5.008  -7.125  27.259  0.00  0.00    -0.289 N 
ATOM     19  H   UNL     1       5.002  -8.071  27.608  0.00  0.00    +0.255 HD
ATOM     20  H   UNL     1       5.888  -6.655  27.444  0.00  0.00    +0.255 HD
ATOM     21  N   UNL     1       3.563  -7.710  25.657  0.00  0.00    -0.289 N 
ATOM     22  H   UNL     1       3.446  -8.574  26.162  0.00  0.00    +0.255 HD
ATOM     23  H   UNL     1       3.347  -7.791  24.672  0.00  0.00    +0.255 HD
ENDBRANCH  15  16
ENDBRANCH  14  15
ENDBRANCH  13  14
ENDBRANCH  12  13
ENDBRANCH   9  12
ENDBRANCH   3   8
BRANCH   1  24
ATOM     24  C   UNL     1       8.579   0.177  24.740  0.00  0.00    +0.162 C 
BRANCH  24  25
ATOM     25  N   UNL     1       7.674   1.333  25.058  0.00  0.00    -0.182 NA
ATOM     26  H   UNL     1       8.197   2.207  25.003  0.00  0.00    +0.148 HD
BRANCH  25  27
ATOM     27  S   UNL     1       6.197   1.554  24.244  0.00  0.00    +0.034 S 
ATOM     28  O   UNL     1       5.166   0.749  24.850  0.00  0.00    -0.158 OA
ATOM     29  O   UNL     1       6.523   1.442  22.838  0.00  0.00    -0.158 OA
BRANCH  27  30
ATOM     30  C   UNL     1       5.945   3.286  24.665  0.00  0.00    +0.220 C 
BRANCH  30  31
ATOM     31  C   UNL     1       7.115   4.206  24.419  0.00  0.00    -0.025 A 
ATOM     32  C   UNL     1       7.991   4.654  25.415  0.00  0.00    +0.005 A 
ATOM     33  C   UNL     1       8.991   5.589  25.120  0.00  0.00    +0.000 A 
ATOM     34  C   UNL     1       9.113   6.114  23.835  0.00  0.00    +0.000 A 
ATOM     35  C   UNL     1       8.235   5.704  22.838  0.00  0.00    +0.000 A 
ATOM     36  C   UNL     1       7.245   4.763  23.130  0.00  0.00    +0.005 A 
ENDBRANCH  30  31
ENDBRANCH  27  30
ENDBRANCH  25  27
ENDBRANCH  24  25
BRANCH  24  37
ATOM     37  C   UNL     1       9.958   0.840  24.445  0.00  0.00    +0.032 C 
BRANCH  37  39
ATOM     38  C   UNL     1      11.108   2.943  23.621  0.00  0.00    +0.007 C 
ATOM     39  C   UNL     1       9.925   1.991  23.413  0.00  0.00    -0.015 C 
ATOM     40  C   UNL     1       9.934   1.482  21.974  0.00  0.00    +0.007 C 
ENDBRANCH  37  39
ENDBRANCH  24  37
ENDBRANCH   1  24
TORSDOF 13
ENDMDL
MODEL 4
REMARK VINA RESULT:      -6.7      2.725      6.209
REMARK  Name = 
REMARK  15 active torsions:
REMARK  status: ('A' for Active; 'I' for Inactive)
REMARK    1  A    between atoms: C_1  and  C_2
REMARK    2  A    between atoms: C_2  and  C_3
REMARK    3  A    between atoms: C_2  and  C_4
REMARK    4  A    between atoms: C_4  and  C_5
REMARK    5  A    between atoms: C_5  and  N_7
REMARK    6  A    between atoms: C_5  and  C_18
REMARK    7  A    between atoms: N_7  and  S_8
REMARK    8  A    between atoms: S_8  and  C_11
REMARK    9  A    between atoms: C_11  and  C_12
REMARK   10  A    between atoms: C_24  and  C_26
REMARK   11  A    between atoms: N_28  and  C_29
REMARK   12  A    between atoms: C_29  and  C_30
REMARK   13  A    between atoms: C_30  and  C_31
REMARK   14  A    between atoms: C_31  and  C_32
REMARK   15  A    between atoms: C_32  and  N_33
REMARK                            x       y       z     vdW  Elec       q    Type
REMARK                         _______ _______ _______ _____ _____    ______ ____
ROOT
ATOM      1  C   UNL     1       5.706  -5.325  26.089  0.00  0.00    +0.235 C 
ATOM      2  N   UNL     1       4.951  -4.423  26.846  0.00  0.00    -0.289 N 
ATOM      3  C   UNL     1       4.026  -3.455  26.260  0.00  0.00    +0.162 C 
ATOM      4  C   UNL     1       2.835  -3.349  27.220  0.00  0.00    +0.033 C 
ATOM      5  C   UNL     1       2.985  -4.546  28.146  0.00  0.00    +0.021 C 
ATOM      6  C   UNL     1       4.482  -4.791  28.180  0.00  0.00    +0.108 C 
ATOM      7  O   UNL     1       5.826  -6.486  26.487  0.00  0.00    -0.274 OA
ENDROOT
BRANCH   3   8
ATOM      8  C   UNL     1       4.694  -2.099  26.037  0.00  0.00    +0.234 C 
ATOM      9  N   UNL     1       4.839  -1.342  27.179  0.00  0.00    -0.314 N 
ATOM     10  H   UNL     1       4.812  -1.843  28.058  0.00  0.00    +0.149 HD
ATOM     11  O   UNL     1       4.950  -1.705  24.903  0.00  0.00    -0.274 OA
BRANCH   9  12
ATOM     12  C   UNL     1       5.331   0.021  27.185  0.00  0.00    +0.104 C 
BRANCH  12  13
ATOM     13  C   UNL     1       6.855   0.166  27.251  0.00  0.00    +0.022 C 
BRANCH  13  14
ATOM     14  C   UNL     1       7.437   1.202  26.281  0.00  0.00    +0.042 C 
BRANCH  14  15
ATOM     15  C   UNL     1       6.365   1.818  25.396  0.00  0.00    +0.243 C 
BRANCH  15  16
ATOM     16  N   UNL     1       6.973   2.229  24.136  0.00  0.00    -0.114 NA
ATOM     17  C   UNL     1       6.856   1.429  23.141  0.00  0.00    +0.376 C 
ATOM     18  N   UNL     1       7.454   1.738  21.974  0.00  0.00    -0.289 N 
ATOM     19  H   UNL     1       6.931   1.542  21.135  0.00  0.00    +0.255 HD
ATOM     20  H   UNL     1       7.807   2.689  21.991  0.00  0.00    +0.255 HD
ATOM     21  N   UNL     1       6.227   0.235  23.084  0.00  0.00    -0.289 N 
ATOM     22  H   UNL     1       5.879  -0.056  22.185  0.00  0.00    +0.255 HD
ATOM     23  H   UNL     1       5.593   0.025  23.844  0.00  0.00    +0.255 HD
ENDBRANCH  15  16
ENDBRANCH  14  15
ENDBRANCH  13  14
ENDBRANCH  12  13
ENDBRANCH   9  12
ENDBRANCH   3   8
BRANCH   1  24
ATOM     24  C   UNL     1       6.419  -4.842  24.784  0.00  0.00    +0.162 C 
BRANCH  24  25
ATOM     25  N   UNL     1       7.867  -5.228  24.673  0.00  0.00    -0.182 NA
ATOM     26  H   UNL     1       8.131  -5.298  23.690  0.00  0.00    +0.148 HD
BRANCH  25  27
ATOM     27  S   UNL     1       9.083  -4.357  25.482  0.00  0.00    +0.034 S 
ATOM     28  O   UNL     1      10.326  -4.440  24.756  0.00  0.00    -0.158 OA
ATOM     29  O   UNL     1       8.981  -4.768  26.866  0.00  0.00    -0.158 OA
BRANCH  27  30
ATOM     30  C   UNL     1       8.373  -2.715  25.290  0.00  0.00    +0.220 C 
BRANCH  30  31
ATOM     31  C   UNL     1       8.939  -1.871  24.174  0.00  0.00    -0.025 A 
ATOM     32  C   UNL     1       8.807  -2.172  22.813  0.00  0.00    +0.005 A 
ATOM     33  C   UNL     1       9.450  -1.392  21.843  0.00  0.00    +0.000 A 
ATOM     34  C   UNL     1      10.256  -0.318  22.218  0.00  0.00    +0.000 A 
ATOM     35  C   UNL     1      10.422  -0.021  23.566  0.00  0.00    +0.000 A 
ATOM     36  C   UNL     1       9.773  -0.792  24.532  0.00  0.00    +0.005 A 
ENDBRANCH  30  31
ENDBRANCH  27  30
ENDBRANCH  25  27
ENDBRANCH  24  25
BRANCH  24  37
ATOM     37  C   UNL     1       5.782  -5.362  23.462  0.00  0.00    +0.032 C 
BRANCH  37  39
ATOM     38  C   UNL     1       6.202  -5.676  20.982  0.00  0.00    +0.007 C 
ATOM     39  C   UNL     1       6.333  -4.716  22.169  0.00  0.00    -0.015 C 
ATOM     40  C   UNL     1       5.636  -3.401  21.834  0.00  0.00    +0.007 C 
ENDBRANCH  37  39
ENDBRANCH  24  37
ENDBRANCH   1  24
TORSDOF 13
ENDMDL
MODEL 5
REMARK VINA RESULT:      -6.5      2.877      7.256
REMARK  Name = 
REMARK  15 active torsions:
REMARK  status: ('A' for Active; 'I' for Inactive)
REMARK    1  A    between atoms: C_1  and  C_2
REMARK    2  A    between atoms: C_2  and  C_3
REMARK    3  A    between atoms: C_2  and  C_4
REMARK    4  A    between atoms: C_4  and  C_5
REMARK    5  A    between atoms: C_5  and  N_7
REMARK    6  A    between atoms: C_5  and  C_18
REMARK    7  A    between atoms: N_7  and  S_8
REMARK    8  A    between atoms: S_8  and  C_11
REMARK    9  A    between atoms: C_11  and  C_12
REMARK   10  A    between atoms: C_24  and  C_26
REMARK   11  A    between atoms: N_28  and  C_29
REMARK   12  A    between atoms: C_29  and  C_30
REMARK   13  A    between atoms: C_30  and  C_31
REMARK   14  A    between atoms: C_31  and  C_32
REMARK   15  A    between atoms: C_32  and  N_33
REMARK                            x       y       z     vdW  Elec       q    Type
REMARK                         _______ _______ _______ _____ _____    ______ ____
ROOT
ATOM      1  C   UNL     1       4.973  -5.830  24.932  0.00  0.00    +0.235 C 
ATOM      2  N   UNL     1       5.424  -5.000  25.963  0.00  0.00    -0.289 N 
ATOM      3  C   UNL     1       4.631  -3.910  26.527  0.00  0.00    +0.162 C 
ATOM      4  C   UNL     1       4.943  -3.870  28.028  0.00  0.00    +0.033 C 
ATOM      5  C   UNL     1       5.647  -5.190  28.305  0.00  0.00    +0.021 C 
ATOM      6  C   UNL     1       6.325  -5.520  26.989  0.00  0.00    +0.108 C 
ATOM      7  O   UNL     1       5.205  -7.039  24.993  0.00  0.00    -0.274 OA
ENDROOT
BRANCH   3   8
ATOM      8  C   UNL     1       4.942  -2.576  25.851  0.00  0.00    +0.234 C 
ATOM      9  N   UNL     1       5.913  -1.830  26.481  0.00  0.00    -0.314 N 
ATOM     10  H   UNL     1       6.540  -2.335  27.094  0.00  0.00    +0.149 HD
ATOM     11  O   UNL     1       4.272  -2.185  24.899  0.00  0.00    -0.274 OA
BRANCH   9  12
ATOM     12  C   UNL     1       6.279  -0.485  26.087  0.00  0.00    +0.104 C 
BRANCH  12  13
ATOM     13  C   UNL     1       7.767  -0.273  25.786  0.00  0.00    +0.022 C 
BRANCH  13  14
ATOM     14  C   UNL     1       8.048   0.620  24.571  0.00  0.00    +0.042 C 
BRANCH  14  15
ATOM     15  C   UNL     1       9.481   1.129  24.560  0.00  0.00    +0.243 C 
BRANCH  15  16
ATOM     16  N   UNL     1       9.463   2.581  24.419  0.00  0.00    -0.114 NA
ATOM     17  C   UNL     1       9.773   3.061  23.272  0.00  0.00    +0.376 C 
ATOM     18  N   UNL     1       9.830   4.397  23.111  0.00  0.00    -0.289 N 
ATOM     19  H   UNL     1       9.462   4.762  22.247  0.00  0.00    +0.255 HD
ATOM     20  H   UNL     1       9.448   4.874  23.921  0.00  0.00    +0.255 HD
ATOM     21  N   UNL     1      10.114   2.403  22.143  0.00  0.00    -0.289 N 
ATOM     22  H   UNL     1       9.929   2.867  21.268  0.00  0.00    +0.255 HD
ATOM     23  H   UNL     1       9.907   1.413  22.120  0.00  0.00    +0.255 HD
ENDBRANCH  15  16
ENDBRANCH  14  15
ENDBRANCH  13  14
ENDBRANCH  12  13
ENDBRANCH   9  12
ENDBRANCH   3   8
BRANCH   1  24
ATOM     24  C   UNL     1       4.227  -5.213  23.704  0.00  0.00    +0.162 C 
BRANCH  24  25
ATOM     25  N   UNL     1       4.617  -5.786  22.371  0.00  0.00    -0.182 NA
ATOM     26  H   UNL     1       3.850  -5.673  21.709  0.00  0.00    +0.148 HD
BRANCH  25  27
ATOM     27  S   UNL     1       6.056  -5.321  21.592  0.00  0.00    +0.034 S 
ATOM     28  O   UNL     1       5.834  -5.179  20.175  0.00  0.00    -0.158 OA
ATOM     29  O   UNL     1       7.071  -6.209  22.119  0.00  0.00    -0.158 OA
BRANCH  27  30
ATOM     30  C   UNL     1       6.227  -3.698  22.349  0.00  0.00    +0.220 C 
BRANCH  30  31
ATOM     31  C   UNL     1       7.610  -3.329  22.826  0.00  0.00    -0.025 A 
ATOM     32  C   UNL     1       8.170  -3.761  24.034  0.00  0.00    +0.005 A 
ATOM     33  C   UNL     1       9.422  -3.290  24.450  0.00  0.00    +0.000 A 
ATOM     34  C   UNL     1      10.120  -2.359  23.683  0.00  0.00    +0.000 A 
ATOM     35  C   UNL     1       9.569  -1.897  22.493  0.00  0.00    +0.000 A 
ATOM     36  C   UNL     1       8.326  -2.374  22.073  0.00  0.00    +0.005 A 
ENDBRANCH  30  31
ENDBRANCH  27  30
ENDBRANCH  25  27
ENDBRANCH  24  25
BRANCH  24  37
ATOM     37  C   UNL     1       2.676  -5.357  23.744  0.00  0.00    +0.032 C 
BRANCH  37  39
ATOM     38  C   UNL     1       1.968  -7.789  23.824  0.00  0.00    +0.007 C 
ATOM     39  C   UNL     1       2.107  -6.547  22.937  0.00  0.00    -0.015 C 
ATOM     40  C   UNL     1       0.757  -6.227  22.302  0.00  0.00    +0.007 C 
ENDBRANCH  37  39
ENDBRANCH  24  37
ENDBRANCH   1  24
TORSDOF 13
ENDMDL
MODEL 6
REMARK VINA RESULT:      -6.4      2.809      8.480
REMARK  Name = 
REMARK  15 active torsions:
REMARK  status: ('A' for Active; 'I' for Inactive)
REMARK    1  A    between atoms: C_1  and  C_2
REMARK    2  A    between atoms: C_2  and  C_3
REMARK    3  A    between atoms: C_2  and  C_4
REMARK    4  A    between atoms: C_4  and  C_5
REMARK    5  A    between atoms: C_5  and  N_7
REMARK    6  A    between atoms: C_5  and  C_18
REMARK    7  A    between atoms: N_7  and  S_8
REMARK    8  A    between atoms: S_8  and  C_11
REMARK    9  A    between atoms: C_11  and  C_12
REMARK   10  A    between atoms: C_24  and  C_26
REMARK   11  A    between atoms: N_28  and  C_29
REMARK   12  A    between atoms: C_29  and  C_30
REMARK   13  A    between atoms: C_30  and  C_31
REMARK   14  A    between atoms: C_31  and  C_32
REMARK   15  A    between atoms: C_32  and  N_33
REMARK                            x       y       z     vdW  Elec       q    Type
REMARK                         _______ _______ _______ _____ _____    ______ ____
ROOT
ATOM      1  C   UNL     1       9.054  -1.054  22.318  0.00  0.00    +0.235 C 
ATOM      2  N   UNL     1       8.881   0.275  22.716  0.00  0.00    -0.289 N 
ATOM      3  C   UNL     1       8.998   0.724  24.102  0.00  0.00    +0.162 C 
ATOM      4  C   UNL     1       9.640   2.116  24.060  0.00  0.00    +0.033 C 
ATOM      5  C   UNL     1      10.186   2.241  22.645  0.00  0.00    +0.021 C 
ATOM      6  C   UNL     1       9.257   1.369  21.822  0.00  0.00    +0.108 C 
ATOM      7  O   UNL     1       9.680  -1.292  21.283  0.00  0.00    -0.274 OA
ENDROOT
BRANCH   3   8
ATOM      8  C   UNL     1       7.641   0.751  24.803  0.00  0.00    +0.234 C 
ATOM      9  N   UNL     1       6.657   1.425  24.115  0.00  0.00    -0.314 N 
ATOM     10  H   UNL     1       6.803   1.542  23.121  0.00  0.00    +0.149 HD
ATOM     11  O   UNL     1       7.514   0.304  25.940  0.00  0.00    -0.274 OA
BRANCH   9  12
ATOM     12  C   UNL     1       5.333   1.682  24.646  0.00  0.00    +0.104 C 
BRANCH  12  13
ATOM     13  C   UNL     1       4.723   3.033  24.257  0.00  0.00    +0.022 C 
BRANCH  13  14
ATOM     14  C   UNL     1       5.414   3.725  23.075  0.00  0.00    +0.042 C 
BRANCH  14  15
ATOM     15  C   UNL     1       5.658   5.202  23.344  0.00  0.00    +0.243 C 
BRANCH  15  16
ATOM     16  N   UNL     1       7.074   5.399  23.634  0.00  0.00    -0.114 NA
ATOM     17  C   UNL     1       7.808   5.848  22.684  0.00  0.00    +0.376 C 
ATOM     18  N   UNL     1       9.133   5.989  22.885  0.00  0.00    -0.289 N 
ATOM     19  H   UNL     1       9.561   6.815  22.500  0.00  0.00    +0.255 HD
ATOM     20  H   UNL     1       9.363   5.859  23.865  0.00  0.00    +0.255 HD
ATOM     21  N   UNL     1       7.452   6.184  21.425  0.00  0.00    -0.289 N 
ATOM     22  H   UNL     1       8.016   6.876  20.959  0.00  0.00    +0.255 HD
ATOM     23  H   UNL     1       6.461   6.297  21.254  0.00  0.00    +0.255 HD
ENDBRANCH  15  16
ENDBRANCH  14  15
ENDBRANCH  13  14
ENDBRANCH  12  13
ENDBRANCH   9  12
ENDBRANCH   3   8
BRANCH   1  24
ATOM     24  C   UNL     1       8.419  -2.209  23.159  0.00  0.00    +0.162 C 
BRANCH  24  25
ATOM     25  N   UNL     1       7.799  -3.314  22.351  0.00  0.00    -0.182 NA
ATOM     26  H   UNL     1       8.298  -4.188  22.522  0.00  0.00    +0.148 HD
BRANCH  25  27
ATOM     27  S   UNL     1       6.131  -3.639  22.424  0.00  0.00    +0.034 S 
ATOM     28  O   UNL     1       5.543  -3.533  21.113  0.00  0.00    -0.158 OA
ATOM     29  O   UNL     1       5.646  -2.858  23.542  0.00  0.00    -0.158 OA
BRANCH  27  30
ATOM     30  C   UNL     1       6.242  -5.370  22.905  0.00  0.00    +0.220 C 
BRANCH  30  31
ATOM     31  C   UNL     1       5.244  -5.840  23.934  0.00  0.00    -0.025 A 
ATOM     32  C   UNL     1       3.880  -6.027  23.681  0.00  0.00    +0.005 A 
ATOM     33  C   UNL     1       3.001  -6.368  24.718  0.00  0.00    +0.000 A 
ATOM     34  C   UNL     1       3.465  -6.497  26.026  0.00  0.00    +0.000 A 
ATOM     35  C   UNL     1       4.811  -6.288  26.302  0.00  0.00    +0.000 A 
ATOM     36  C   UNL     1       5.689  -5.959  25.267  0.00  0.00    +0.005 A 
ENDBRANCH  30  31
ENDBRANCH  27  30
ENDBRANCH  25  27
ENDBRANCH  24  25
BRANCH  24  37
ATOM     37  C   UNL     1       9.408  -2.941  24.114  0.00  0.00    +0.032 C 
BRANCH  37  39
ATOM     38  C   UNL     1       9.748  -5.051  25.476  0.00  0.00    +0.007 C 
ATOM     39  C   UNL     1       8.756  -3.950  25.086  0.00  0.00    -0.015 C 
ATOM     40  C   UNL     1       8.225  -3.280  26.350  0.00  0.00    +0.007 C 
ENDBRANCH  37  39
ENDBRANCH  24  37
ENDBRANCH   1  24
TORSDOF 13
ENDMDL
MODEL 7
REMARK VINA RESULT:      -6.4      2.613      6.299
REMARK  Name = 
REMARK  15 active torsions:
REMARK  status: ('A' for Active; 'I' for Inactive)
REMARK    1  A    between atoms: C_1  and  C_2
REMARK    2  A    between atoms: C_2  and  C_3
REMARK    3  A    between atoms: C_2  and  C_4
REMARK    4  A    between atoms: C_4  and  C_5
REMARK    5  A    between atoms: C_5  and  N_7
REMARK    6  A    between atoms: C_5  and  C_18
REMARK    7  A    between atoms: N_7  and  S_8
REMARK    8  A    between atoms: S_8  and  C_11
REMARK    9  A    between atoms: C_11  and  C_12
REMARK   10  A    between atoms: C_24  and  C_26
REMARK   11  A    between atoms: N_28  and  C_29
REMARK   12  A    between atoms: C_29  and  C_30
REMARK   13  A    between atoms: C_30  and  C_31
REMARK   14  A    between atoms: C_31  and  C_32
REMARK   15  A    between atoms: C_32  and  N_33
REMARK                            x       y       z     vdW  Elec       q    Type
REMARK                         _______ _______ _______ _____ _____    ______ ____
ROOT
ATOM      1  C   UNL     1       5.006  -4.014  23.965  0.00  0.00    +0.235 C 
ATOM      2  N   UNL     1       6.079  -4.366  23.140  0.00  0.00    -0.289 N 
ATOM      3  C   UNL     1       7.067  -5.383  23.492  0.00  0.00    +0.162 C 
ATOM      4  C   UNL     1       7.434  -6.107  22.190  0.00  0.00    +0.033 C 
ATOM      5  C   UNL     1       6.355  -5.687  21.204  0.00  0.00    +0.021 C 
ATOM      6  C   UNL     1       5.942  -4.309  21.686  0.00  0.00    +0.108 C 
ATOM      7  O   UNL     1       3.899  -3.822  23.458  0.00  0.00    -0.274 OA
ENDROOT
BRANCH   3   8
ATOM      8  C   UNL     1       8.295  -4.771  24.162  0.00  0.00    +0.234 C 
ATOM      9  N   UNL     1       8.623  -3.511  23.709  0.00  0.00    -0.314 N 
ATOM     10  H   UNL     1       7.883  -2.991  23.256  0.00  0.00    +0.149 HD
ATOM     11  O   UNL     1       8.977  -5.429  24.943  0.00  0.00    -0.274 OA
BRANCH   9  12
ATOM     12  C   UNL     1       9.815  -2.795  24.113  0.00  0.00    +0.104 C 
BRANCH  12  13
ATOM     13  C   UNL     1      10.243  -1.658  23.178  0.00  0.00    +0.022 C 
BRANCH  13  14
ATOM     14  C   UNL     1       9.460  -1.591  21.861  0.00  0.00    +0.042 C 
BRANCH  14  15
ATOM     15  C   UNL     1       9.090  -0.162  21.492  0.00  0.00    +0.243 C 
BRANCH  15  16
ATOM     16  N   UNL     1      10.045   0.747  22.115  0.00  0.00    -0.114 NA
ATOM     17  C   UNL     1       9.741   1.992  22.131  0.00  0.00    +0.376 C 
ATOM     18  N   UNL     1      10.620   2.877  22.640  0.00  0.00    -0.289 N 
ATOM     19  H   UNL     1      10.235   3.622  23.200  0.00  0.00    +0.255 HD
ATOM     20  H   UNL     1      11.381   2.399  23.111  0.00  0.00    +0.255 HD
ATOM     21  N   UNL     1       8.635   2.600  21.652  0.00  0.00    -0.289 N 
ATOM     22  H   UNL     1       8.364   3.467  22.087  0.00  0.00    +0.255 HD
ATOM     23  H   UNL     1       7.850   1.999  21.437  0.00  0.00    +0.255 HD
ENDBRANCH  15  16
ENDBRANCH  14  15
ENDBRANCH  13  14
ENDBRANCH  12  13
ENDBRANCH   9  12
ENDBRANCH   3   8
BRANCH   1  24
ATOM     24  C   UNL     1       5.231  -3.827  25.501  0.00  0.00    +0.162 C 
BRANCH  24  25
ATOM     25  N   UNL     1       5.151  -2.407  25.986  0.00  0.00    -0.182 NA
ATOM     26  H   UNL     1       4.508  -2.348  26.776  0.00  0.00    +0.148 HD
BRANCH  25  27
ATOM     27  S   UNL     1       6.550  -1.524  26.380  0.00  0.00    +0.034 S 
ATOM     28  O   UNL     1       7.653  -2.417  26.630  0.00  0.00    -0.158 OA
ATOM     29  O   UNL     1       6.116  -0.556  27.365  0.00  0.00    -0.158 OA
BRANCH  27  30
ATOM     30  C   UNL     1       6.775  -0.705  24.794  0.00  0.00    +0.220 C 
BRANCH  30  31
ATOM     31  C   UNL     1       6.803   0.803  24.821  0.00  0.00    -0.025 A 
ATOM     32  C   UNL     1       5.829   1.621  24.237  0.00  0.00    +0.005 A 
ATOM     33  C   UNL     1       5.983   3.014  24.219  0.00  0.00    +0.000 A 
ATOM     34  C   UNL     1       7.123   3.608  24.756  0.00  0.00    +0.000 A 
ATOM     35  C   UNL     1       8.115   2.810  25.316  0.00  0.00    +0.000 A 
ATOM     36  C   UNL     1       7.957   1.424  25.344  0.00  0.00    +0.005 A 
ENDBRANCH  30  31
ENDBRANCH  27  30
ENDBRANCH  25  27
ENDBRANCH  24  25
BRANCH  24  37
ATOM     37  C   UNL     1       4.225  -4.598  26.407  0.00  0.00    +0.032 C 
BRANCH  37  39
ATOM     38  C   UNL     1       4.986  -6.827  27.346  0.00  0.00    +0.007 C 
ATOM     39  C   UNL     1       4.215  -6.133  26.217  0.00  0.00    -0.015 C 
ATOM     40  C   UNL     1       2.800  -6.701  26.149  0.00  0.00    +0.007 C 
ENDBRANCH  37  39
ENDBRANCH  24  37
ENDBRANCH   1  24
TORSDOF 13
ENDMDL
MODEL 8
REMARK VINA RESULT:      -6.3      2.449      5.243
REMARK  Name = 
REMARK  15 active torsions:
REMARK  status: ('A' for Active; 'I' for Inactive)
REMARK    1  A    between atoms: C_1  and  C_2
REMARK    2  A    between atoms: C_2  and  C_3
REMARK    3  A    between atoms: C_2  and  C_4
REMARK    4  A    between atoms: C_4  and  C_5
REMARK    5  A    between atoms: C_5  and  N_7
REMARK    6  A    between atoms: C_5  and  C_18
REMARK    7  A    between atoms: N_7  and  S_8
REMARK    8  A    between atoms: S_8  and  C_11
REMARK    9  A    between atoms: C_11  and  C_12
REMARK   10  A    between atoms: C_24  and  C_26
REMARK   11  A    between atoms: N_28  and  C_29
REMARK   12  A    between atoms: C_29  and  C_30
REMARK   13  A    between atoms: C_30  and  C_31
REMARK   14  A    between atoms: C_31  and  C_32
REMARK   15  A    between atoms: C_32  and  N_33
REMARK                            x       y       z     vdW  Elec       q    Type
REMARK                         _______ _______ _______ _____ _____    ______ ____
ROOT
ATOM      1  C   UNL     1       6.744  -5.014  25.723  0.00  0.00    +0.235 C 
ATOM      2  N   UNL     1       5.777  -4.708  26.685  0.00  0.00    -0.289 N 
ATOM      3  C   UNL     1       4.344  -4.658  26.402  0.00  0.00    +0.162 C 
ATOM      4  C   UNL     1       3.631  -5.200  27.648  0.00  0.00    +0.033 C 
ATOM      5  C   UNL     1       4.733  -5.869  28.456  0.00  0.00    +0.021 C 
ATOM      6  C   UNL     1       5.979  -5.088  28.082  0.00  0.00    +0.108 C 
ATOM      7  O   UNL     1       7.682  -5.752  26.030  0.00  0.00    -0.274 OA
ENDROOT
BRANCH   3   8
ATOM      8  C   UNL     1       3.884  -3.242  26.061  0.00  0.00    +0.234 C 
ATOM      9  N   UNL     1       3.608  -2.453  27.156  0.00  0.00    -0.314 N 
ATOM     10  H   UNL     1       4.030  -2.736  28.032  0.00  0.00    +0.149 HD
ATOM     11  O   UNL     1       3.672  -2.915  24.897  0.00  0.00    -0.274 OA
BRANCH   9  12
ATOM     12  C   UNL     1       3.042  -1.123  27.069  0.00  0.00    +0.104 C 
BRANCH  12  13
ATOM     13  C   UNL     1       3.536  -0.131  28.128  0.00  0.00    +0.022 C 
BRANCH  13  14
ATOM     14  C   UNL     1       5.043  -0.200  28.409  0.00  0.00    +0.042 C 
BRANCH  14  15
ATOM     15  C   UNL     1       5.866   0.065  27.159  0.00  0.00    +0.243 C 
BRANCH  15  16
ATOM     16  N   UNL     1       6.615  -1.141  26.825  0.00  0.00    -0.114 NA
ATOM     17  C   UNL     1       7.891  -1.086  26.936  0.00  0.00    +0.376 C 
ATOM     18  N   UNL     1       8.630  -2.155  26.580  0.00  0.00    -0.289 N 
ATOM     19  H   UNL     1       9.413  -2.379  27.174  0.00  0.00    +0.255 HD
ATOM     20  H   UNL     1       8.037  -2.961  26.409  0.00  0.00    +0.255 HD
ATOM     21  N   UNL     1       8.662  -0.052  27.336  0.00  0.00    -0.289 N 
ATOM     22  H   UNL     1       9.552  -0.278  27.751  0.00  0.00    +0.255 HD
ATOM     23  H   UNL     1       8.187   0.709  27.803  0.00  0.00    +0.255 HD
ENDBRANCH  15  16
ENDBRANCH  14  15
ENDBRANCH  13  14
ENDBRANCH  12  13
ENDBRANCH   9  12
ENDBRANCH   3   8
BRANCH   1  24
ATOM     24  C   UNL     1       6.648  -4.386  24.294  0.00  0.00    +0.162 C 
BRANCH  24  25
ATOM     25  N   UNL     1       7.343  -3.063  24.135  0.00  0.00    -0.182 NA
ATOM     26  H   UNL     1       8.342  -3.213  23.994  0.00  0.00    +0.148 HD
BRANCH  25  27
ATOM     27  S   UNL     1       6.818  -1.916  22.994  0.00  0.00    +0.034 S 
ATOM     28  O   UNL     1       6.474  -0.680  23.649  0.00  0.00    -0.158 OA
ATOM     29  O   UNL     1       5.871  -2.624  22.158  0.00  0.00    -0.158 OA
BRANCH  27  30
ATOM     30  C   UNL     1       8.373  -1.725  22.109  0.00  0.00    +0.220 C 
BRANCH  30  31
ATOM     31  C   UNL     1       9.239  -0.563  22.529  0.00  0.00    -0.025 A 
ATOM     32  C   UNL     1       9.927  -0.491  23.746  0.00  0.00    +0.005 A 
ATOM     33  C   UNL     1      10.628   0.668  24.103  0.00  0.00    +0.000 A 
ATOM     34  C   UNL     1      10.628   1.783  23.266  0.00  0.00    +0.000 A 
ATOM     35  C   UNL     1       9.928   1.741  22.066  0.00  0.00    +0.000 A 
ATOM     36  C   UNL     1       9.238   0.581  21.705  0.00  0.00    +0.005 A 
ENDBRANCH  30  31
ENDBRANCH  27  30
ENDBRANCH  25  27
ENDBRANCH  24  25
BRANCH  24  37
ATOM     37  C   UNL     1       7.237  -5.268  23.153  0.00  0.00    +0.032 C 
BRANCH  37  39
ATOM     38  C   UNL     1       4.785  -5.861  22.907  0.00  0.00    +0.007 C 
ATOM     39  C   UNL     1       6.200  -6.107  22.371  0.00  0.00    -0.015 C 
ATOM     40  C   UNL     1       6.230  -5.818  20.873  0.00  0.00    +0.007 C 
ENDBRANCH  37  39
ENDBRANCH  24  37
ENDBRANCH   1  24
TORSDOF 13
ENDMDL
MODEL 9
REMARK VINA RESULT:      -6.1      3.601      8.055
REMARK  Name = 
REMARK  15 active torsions:
REMARK  status: ('A' for Active; 'I' for Inactive)
REMARK    1  A    between atoms: C_1  and  C_2
REMARK    2  A    between atoms: C_2  and  C_3
REMARK    3  A    between atoms: C_2  and  C_4
REMARK    4  A    between atoms: C_4  and  C_5
REMARK    5  A    between atoms: C_5  and  N_7
REMARK    6  A    between atoms: C_5  and  C_18
REMARK    7  A    between atoms: N_7  and  S_8
REMARK    8  A    between atoms: S_8  and  C_11
REMARK    9  A    between atoms: C_11  and  C_12
REMARK   10  A    between atoms: C_24  and  C_26
REMARK   11  A    between atoms: N_28  and  C_29
REMARK   12  A    between atoms: C_29  and  C_30
REMARK   13  A    between atoms: C_30  and  C_31
REMARK   14  A    between atoms: C_31  and  C_32
REMARK   15  A    between atoms: C_32  and  N_33
REMARK                            x       y       z     vdW  Elec       q    Type
REMARK                         _______ _______ _______ _____ _____    ______ ____
ROOT
ATOM      1  C   UNL     1       9.837   1.085  24.547  0.00  0.00    +0.235 C 
ATOM      2  N   UNL     1       9.704   2.240  23.771  0.00  0.00    -0.289 N 
ATOM      3  C   UNL     1       8.590   3.177  23.902  0.00  0.00    +0.162 C 
ATOM      4  C   UNL     1       9.166   4.580  23.673  0.00  0.00    +0.033 C 
ATOM      5  C   UNL     1      10.673   4.393  23.770  0.00  0.00    +0.021 C 
ATOM      6  C   UNL     1      10.889   2.963  23.312  0.00  0.00    +0.108 C 
ATOM      7  O   UNL     1      10.950   0.781  24.981  0.00  0.00    -0.274 OA
ENDROOT
BRANCH   3   8
ATOM      8  C   UNL     1       7.466   2.861  22.917  0.00  0.00    +0.234 C 
ATOM      9  N   UNL     1       6.240   3.384  23.264  0.00  0.00    -0.314 N 
ATOM     10  H   UNL     1       6.250   4.164  23.909  0.00  0.00    +0.149 HD
ATOM     11  O   UNL     1       7.656   2.098  21.974  0.00  0.00    -0.274 OA
BRANCH   9  12
ATOM     12  C   UNL     1       5.013   3.107  22.545  0.00  0.00    +0.104 C 
BRANCH  12  13
ATOM     13  C   UNL     1       3.832   4.021  22.891  0.00  0.00    +0.022 C 
BRANCH  13  14
ATOM     14  C   UNL     1       2.458   3.346  22.796  0.00  0.00    +0.042 C 
BRANCH  14  15
ATOM     15  C   UNL     1       1.548   4.048  21.800  0.00  0.00    +0.243 C 
BRANCH  15  16
ATOM     16  N   UNL     1       1.806   3.512  20.469  0.00  0.00    -0.114 NA
ATOM     17  C   UNL     1       2.143   4.348  19.557  0.00  0.00    +0.376 C 
ATOM     18  N   UNL     1       2.332   3.908  18.298  0.00  0.00    -0.289 N 
ATOM     19  H   UNL     1       3.110   4.304  17.794  0.00  0.00    +0.255 HD
ATOM     20  H   UNL     1       2.333   2.894  18.267  0.00  0.00    +0.255 HD
ATOM     21  N   UNL     1       2.309   5.684  19.653  0.00  0.00    -0.289 N 
ATOM     22  H   UNL     1       2.945   6.115  19.002  0.00  0.00    +0.255 HD
ATOM     23  H   UNL     1       2.381   6.062  20.589  0.00  0.00    +0.255 HD
ENDBRANCH  15  16
ENDBRANCH  14  15
ENDBRANCH  13  14
ENDBRANCH  12  13
ENDBRANCH   9  12
ENDBRANCH   3   8
BRANCH   1  24
ATOM     24  C   UNL     1       8.592   0.178  24.816  0.00  0.00    +0.162 C 
BRANCH  24  25
ATOM     25  N   UNL     1       8.154  -0.660  23.648  0.00  0.00    -0.182 NA
ATOM     26  H   UNL     1       7.536  -0.116  23.046  0.00  0.00    +0.148 HD
BRANCH  25  27
ATOM     27  S   UNL     1       9.281  -1.460  22.656  0.00  0.00    +0.034 S 
ATOM     28  O   UNL     1      10.182  -2.250  23.458  0.00  0.00    -0.158 OA
ATOM     29  O   UNL     1       9.764  -0.446  21.743  0.00  0.00    -0.158 OA
BRANCH  27  30
ATOM     30  C   UNL     1       8.124  -2.539  21.797  0.00  0.00    +0.220 C 
BRANCH  30  31
ATOM     31  C   UNL     1       7.194  -3.345  22.669  0.00  0.00    -0.025 A 
ATOM     32  C   UNL     1       7.520  -4.581  23.240  0.00  0.00    +0.005 A 
ATOM     33  C   UNL     1       6.562  -5.314  23.953  0.00  0.00    +0.000 A 
ATOM     34  C   UNL     1       5.258  -4.839  24.083  0.00  0.00    +0.000 A 
ATOM     35  C   UNL     1       4.907  -3.626  23.499  0.00  0.00    +0.000 A 
ATOM     36  C   UNL     1       5.864  -2.891  22.798  0.00  0.00    +0.005 A 
ENDBRANCH  30  31
ENDBRANCH  27  30
ENDBRANCH  25  27
ENDBRANCH  24  25
BRANCH  24  37
ATOM     37  C   UNL     1       8.769  -0.846  25.976  0.00  0.00    +0.032 C 
BRANCH  37  39
ATOM     38  C   UNL     1       8.442  -3.305  26.497  0.00  0.00    +0.007 C 
ATOM     39  C   UNL     1       7.777  -2.031  25.962  0.00  0.00    -0.015 C 
ATOM     40  C   UNL     1       6.516  -1.744  26.772  0.00  0.00    +0.007 C 
ENDBRANCH  37  39
ENDBRANCH  24  37
ENDBRANCH   1  24
TORSDOF 13
ENDMDL
