MODEL 1
REMARK VINA RESULT:      -5.3      0.000      0.000
REMARK  Name = 
REMARK  6 active torsions:
REMARK  status: ('A' for Active; 'I' for Inactive)
REMARK    1  A    between atoms: C_2  and  O_3
REMARK    2  A    between atoms: C_2  and  C_4
REMARK    3  A    between atoms: C_2  and  C_7
REMARK    4  A    between atoms: C_4  and  O_5
REMARK    5  A    between atoms: C_7  and  O_9
REMARK    6  A    between atoms: C_7  and  C_10
REMARK                            x       y       z     vdW  Elec       q    Type
REMARK                         _______ _______ _______ _____ _____    ______ ____
ROOT
ATOM      1  C   UNL     1      10.083  -1.712  22.633  0.00  0.00    +0.184 C 
ENDROOT
BRANCH   1   2
ATOM      2  C   UNL     1      10.199  -0.211  22.892  0.00  0.00    -0.016 A 
ATOM      3  C   UNL     1      10.612   0.295  24.139  0.00  0.00    +0.009 A 
ATOM      4  C   UNL     1      10.724   1.671  24.358  0.00  0.00    +0.039 A 
ATOM      5  C   UNL     1      10.439   2.554  23.327  0.00  0.00    +0.123 A 
ATOM      6  F   UNL     1      10.565   3.872  23.529  0.00  0.00    -0.205 F 
ATOM      7  C   UNL     1      10.016   2.088  22.092  0.00  0.00    +0.039 A 
ATOM      8  C   UNL     1       9.874   0.714  21.882  0.00  0.00    +0.009 A 
ENDBRANCH   1   2
BRANCH   1   9
ATOM      9  O   UNL     1       9.562  -1.924  21.307  0.00  0.00    -0.384 OA
ATOM     10  H   UNL     1      10.299  -2.097  20.699  0.00  0.00    +0.210 HD
ENDBRANCH   1   9
BRANCH   1  11
ATOM     11  C   UNL     1       9.241  -2.494  23.672  0.00  0.00    +0.256 C 
BRANCH  11  12
ATOM     12  C   UNL     1       7.934  -2.991  23.075  0.00  0.00    +0.337 C 
ATOM     13  O   UNL     1       7.718  -4.143  22.726  0.00  0.00    -0.248 OA
BRANCH  12  14
ATOM     14  O   UNL     1       7.009  -2.002  22.977  0.00  0.00    -0.479 OA
ATOM     15  H   UNL     1       6.728  -1.909  22.035  0.00  0.00    +0.295 HD
ENDBRANCH  12  14
ENDBRANCH  11  12
BRANCH  11  16
ATOM     16  O   UNL     1       9.963  -3.597  24.246  0.00  0.00    -0.378 OA
ATOM     17  H   UNL     1       9.552  -4.415  23.905  0.00  0.00    +0.211 HD
ENDBRANCH  11  16
ENDBRANCH   1  11
TORSDOF 6
ENDMDL
MODEL 2
REMARK VINA RESULT:      -5.2      2.338      3.415
REMARK  Name = 
REMARK  6 active torsions:
REMARK  status: ('A' for Active; 'I' for Inactive)
REMARK    1  A    between atoms: C_2  and  O_3
REMARK    2  A    between atoms: C_2  and  C_4
REMARK    3  A    between atoms: C_2  and  C_7
REMARK    4  A    between atoms: C_4  and  O_5
REMARK    5  A    between atoms: C_7  and  O_9
REMARK    6  A    between atoms: C_7  and  C_10
REMARK                            x       y       z     vdW  Elec       q    Type
REMARK                         _______ _______ _______ _____ _____    ______ ____
ROOT
ATOM      1  C   UNL     1       8.634  -3.979  24.097  0.00  0.00    +0.184 C 
ENDROOT
BRANCH   1   2
ATOM      2  C   UNL     1       9.075  -2.629  23.533  0.00  0.00    -0.016 A 
ATOM      3  C   UNL     1       9.803  -1.705  24.305  0.00  0.00    +0.009 A 
ATOM      4  C   UNL     1      10.210  -0.479  23.771  0.00  0.00    +0.039 A 
ATOM      5  C   UNL     1       9.904  -0.171  22.454  0.00  0.00    +0.123 A 
ATOM      6  F   UNL     1      10.310   0.995  21.934  0.00  0.00    -0.205 F 
ATOM      7  C   UNL     1       9.176  -1.054  21.671  0.00  0.00    +0.039 A 
ATOM      8  C   UNL     1       8.742  -2.266  22.214  0.00  0.00    +0.009 A 
ENDBRANCH   1   2
BRANCH   1   9
ATOM      9  O   UNL     1       7.205  -3.972  24.276  0.00  0.00    -0.384 OA
ATOM     10  H   UNL     1       6.930  -3.103  24.609  0.00  0.00    +0.210 HD
ENDBRANCH   1   9
BRANCH   1  11
ATOM     11  C   UNL     1       9.338  -4.401  25.411  0.00  0.00    +0.256 C 
BRANCH  11  12
ATOM     12  C   UNL     1       8.336  -4.659  26.526  0.00  0.00    +0.337 C 
ATOM     13  O   UNL     1       7.763  -3.790  27.167  0.00  0.00    -0.248 OA
BRANCH  12  14
ATOM     14  O   UNL     1       8.132  -5.986  26.731  0.00  0.00    -0.479 OA
ATOM     15  H   UNL     1       8.811  -6.502  26.234  0.00  0.00    +0.295 HD
ENDBRANCH  12  14
ENDBRANCH  11  12
BRANCH  11  16
ATOM     16  O   UNL     1      10.179  -5.554  25.238  0.00  0.00    -0.378 OA
ATOM     17  H   UNL     1       9.613  -6.271  24.892  0.00  0.00    +0.211 HD
ENDBRANCH  11  16
ENDBRANCH   1  11
TORSDOF 6
ENDMDL
MODEL 3
REMARK VINA RESULT:      -5.0      2.107      3.431
REMARK  Name = 
REMARK  6 active torsions:
REMARK  status: ('A' for Active; 'I' for Inactive)
REMARK    1  A    between atoms: C_2  and  O_3
REMARK    2  A    between atoms: C_2  and  C_4
REMARK    3  A    between atoms: C_2  and  C_7
REMARK    4  A    between atoms: C_4  and  O_5
REMARK    5  A    between atoms: C_7  and  O_9
REMARK    6  A    between atoms: C_7  and  C_10
REMARK                            x       y       z     vdW  Elec       q    Type
REMARK                         _______ _______ _______ _____ _____    ______ ____
ROOT
ATOM      1  C   UNL     1       8.280  -2.951  24.721  0.00  0.00    +0.184 C 
ENDROOT
BRANCH   1   2
ATOM      2  C   UNL     1       8.855  -1.822  23.867  0.00  0.00    -0.016 A 
ATOM      3  C   UNL     1       8.777  -1.843  22.462  0.00  0.00    +0.009 A 
ATOM      4  C   UNL     1       9.298  -0.798  21.694  0.00  0.00    +0.039 A 
ATOM      5  C   UNL     1       9.891   0.286  22.326  0.00  0.00    +0.123 A 
ATOM      6  F   UNL     1      10.372   1.298  21.592  0.00  0.00    -0.205 F 
ATOM      7  C   UNL     1       9.996   0.330  23.707  0.00  0.00    +0.039 A 
ATOM      8  C   UNL     1       9.504  -0.729  24.473  0.00  0.00    +0.009 A 
ENDBRANCH   1   2
BRANCH   1   9
ATOM      9  O   UNL     1       8.721  -2.786  26.082  0.00  0.00    -0.384 OA
ATOM     10  H   UNL     1       8.788  -3.658  26.503  0.00  0.00    +0.210 HD
ENDBRANCH   1   9
BRANCH   1  11
ATOM     11  C   UNL     1       8.603  -4.381  24.222  0.00  0.00    +0.256 C 
BRANCH  11  12
ATOM     12  C   UNL     1       8.998  -5.299  25.367  0.00  0.00    +0.337 C 
ATOM     13  O   UNL     1       8.217  -5.798  26.166  0.00  0.00    -0.248 OA
BRANCH  12  14
ATOM     14  O   UNL     1      10.338  -5.520  25.406  0.00  0.00    -0.479 OA
ATOM     15  H   UNL     1      10.627  -5.927  24.554  0.00  0.00    +0.295 HD
ENDBRANCH  12  14
ENDBRANCH  11  12
BRANCH  11  16
ATOM     16  O   UNL     1       7.515  -4.965  23.485  0.00  0.00    -0.378 OA
ATOM     17  H   UNL     1       7.804  -5.035  22.555  0.00  0.00    +0.211 HD
ENDBRANCH  11  16
ENDBRANCH   1  11
TORSDOF 6
ENDMDL
MODEL 4
REMARK VINA RESULT:      -5.0      3.383      5.438
REMARK  Name = 
REMARK  6 active torsions:
REMARK  status: ('A' for Active; 'I' for Inactive)
REMARK    1  A    between atoms: C_2  and  O_3
REMARK    2  A    between atoms: C_2  and  C_4
REMARK    3  A    between atoms: C_2  and  C_7
REMARK    4  A    between atoms: C_4  and  O_5
REMARK    5  A    between atoms: C_7  and  O_9
REMARK    6  A    between atoms: C_7  and  C_10
REMARK                            x       y       z     vdW  Elec       q    Type
REMARK                         _______ _______ _______ _____ _____    ______ ____
ROOT
ATOM      1  C   UNL     1       8.811  -0.950  21.902  0.00  0.00    +0.184 C 
ENDROOT
BRANCH   1   2
ATOM      2  C   UNL     1       8.685  -2.199  22.774  0.00  0.00    -0.016 A 
ATOM      3  C   UNL     1       7.674  -3.154  22.559  0.00  0.00    +0.009 A 
ATOM      4  C   UNL     1       7.578  -4.297  23.357  0.00  0.00    +0.039 A 
ATOM      5  C   UNL     1       8.504  -4.504  24.371  0.00  0.00    +0.123 A 
ATOM      6  F   UNL     1       8.426  -5.609  25.124  0.00  0.00    -0.205 F 
ATOM      7  C   UNL     1       9.503  -3.575  24.617  0.00  0.00    +0.039 A 
ATOM      8  C   UNL     1       9.580  -2.417  23.839  0.00  0.00    +0.009 A 
ENDBRANCH   1   2
BRANCH   1   9
ATOM      9  O   UNL     1      10.098  -0.952  21.256  0.00  0.00    -0.384 OA
ATOM     10  H   UNL     1      10.788  -1.106  21.922  0.00  0.00    +0.210 HD
ENDBRANCH   1   9
BRANCH   1  11
ATOM     11  C   UNL     1       8.583   0.391  22.643  0.00  0.00    +0.256 C 
BRANCH  11  12
ATOM     12  C   UNL     1       9.833   1.256  22.632  0.00  0.00    +0.337 C 
ATOM     13  O   UNL     1      10.698   1.249  23.498  0.00  0.00    -0.248 OA
BRANCH  12  14
ATOM     14  O   UNL     1       9.896   2.049  21.531  0.00  0.00    -0.479 OA
ATOM     15  H   UNL     1       9.089   1.908  20.980  0.00  0.00    +0.295 HD
ENDBRANCH  12  14
ENDBRANCH  11  12
BRANCH  11  16
ATOM     16  O   UNL     1       7.475   1.134  22.107  0.00  0.00    -0.378 OA
ATOM     17  H   UNL     1       7.540   1.081  21.134  0.00  0.00    +0.211 HD
ENDBRANCH  11  16
ENDBRANCH   1  11
TORSDOF 6
ENDMDL
MODEL 5
REMARK VINA RESULT:      -4.9      3.713      5.992
REMARK  Name = 
REMARK  6 active torsions:
REMARK  status: ('A' for Active; 'I' for Inactive)
REMARK    1  A    between atoms: C_2  and  O_3
REMARK    2  A    between atoms: C_2  and  C_4
REMARK    3  A    between atoms: C_2  and  C_7
REMARK    4  A    between atoms: C_4  and  O_5
REMARK    5  A    between atoms: C_7  and  O_9
REMARK    6  A    between atoms: C_7  and  C_10
REMARK                            x       y       z     vdW  Elec       q    Type
REMARK                         _______ _______ _______ _____ _____    ______ ____
ROOT
ATOM      1  C   UNL     1       8.270  -1.382  22.899  0.00  0.00    +0.184 C 
ENDROOT
BRANCH   1   2
ATOM      2  C   UNL     1       7.700  -2.795  22.789  0.00  0.00    -0.016 A 
ATOM      3  C   UNL     1       6.628  -3.096  21.928  0.00  0.00    +0.009 A 
ATOM      4  C   UNL     1       6.124  -4.397  21.830  0.00  0.00    +0.039 A 
ATOM      5  C   UNL     1       6.698  -5.412  22.582  0.00  0.00    +0.123 A 
ATOM      6  F   UNL     1       6.230  -6.662  22.474  0.00  0.00    -0.205 F 
ATOM      7  C   UNL     1       7.746  -5.145  23.450  0.00  0.00    +0.039 A 
ATOM      8  C   UNL     1       8.228  -3.839  23.571  0.00  0.00    +0.009 A 
ENDBRANCH   1   2
BRANCH   1   9
ATOM      9  O   UNL     1       7.186  -0.442  23.022  0.00  0.00    -0.384 OA
ATOM     10  H   UNL     1       7.382   0.343  22.486  0.00  0.00    +0.210 HD
ENDBRANCH   1   9
BRANCH   1  11
ATOM     11  C   UNL     1       9.213  -0.964  21.743  0.00  0.00    +0.256 C 
BRANCH  11  12
ATOM     12  C   UNL     1       9.490   0.531  21.758  0.00  0.00    +0.337 C 
ATOM     13  O   UNL     1      10.320   1.082  22.466  0.00  0.00    -0.248 OA
BRANCH  12  14
ATOM     14  O   UNL     1       8.707   1.203  20.874  0.00  0.00    -0.479 OA
ATOM     15  H   UNL     1       8.358   2.021  21.302  0.00  0.00    +0.295 HD
ENDBRANCH  12  14
ENDBRANCH  11  12
BRANCH  11  16
ATOM     16  O   UNL     1      10.456  -1.687  21.760  0.00  0.00    -0.378 OA
ATOM     17  H   UNL     1      11.109  -1.145  21.277  0.00  0.00    +0.211 HD
ENDBRANCH  11  16
ENDBRANCH   1  11
TORSDOF 6
ENDMDL
MODEL 6
REMARK VINA RESULT:      -4.9      3.476      5.121
REMARK  Name = 
REMARK  6 active torsions:
REMARK  status: ('A' for Active; 'I' for Inactive)
REMARK    1  A    between atoms: C_2  and  O_3
REMARK    2  A    between atoms: C_2  and  C_4
REMARK    3  A    between atoms: C_2  and  C_7
REMARK    4  A    between atoms: C_4  and  O_5
REMARK    5  A    between atoms: C_7  and  O_9
REMARK    6  A    between atoms: C_7  and  C_10
REMARK                            x       y       z     vdW  Elec       q    Type
REMARK                         _______ _______ _______ _____ _____    ______ ____
ROOT
ATOM      1  C   UNL     1      10.218  -0.385  23.405  0.00  0.00    +0.184 C 
ENDROOT
BRANCH   1   2
ATOM      2  C   UNL     1       9.626  -1.419  24.362  0.00  0.00    -0.016 A 
ATOM      3  C   UNL     1       8.995  -1.042  25.562  0.00  0.00    +0.009 A 
ATOM      4  C   UNL     1       8.448  -1.999  26.422  0.00  0.00    +0.039 A 
ATOM      5  C   UNL     1       8.515  -3.342  26.082  0.00  0.00    +0.123 A 
ATOM      6  F   UNL     1       7.974  -4.259  26.895  0.00  0.00    -0.205 F 
ATOM      7  C   UNL     1       9.142  -3.747  24.914  0.00  0.00    +0.039 A 
ATOM      8  C   UNL     1       9.716  -2.793  24.070  0.00  0.00    +0.009 A 
ENDBRANCH   1   2
BRANCH   1   9
ATOM      9  O   UNL     1      10.707   0.736  24.164  0.00  0.00    -0.384 OA
ATOM     10  H   UNL     1      11.281   1.278  23.599  0.00  0.00    +0.210 HD
ENDBRANCH   1   9
BRANCH   1  11
ATOM     11  C   UNL     1       9.259   0.100  22.289  0.00  0.00    +0.256 C 
BRANCH  11  12
ATOM     12  C   UNL     1       9.214   1.617  22.209  0.00  0.00    +0.337 C 
ATOM     13  O   UNL     1       8.368   2.321  22.742  0.00  0.00    -0.248 OA
BRANCH  12  14
ATOM     14  O   UNL     1      10.240   2.121  21.475  0.00  0.00    -0.479 OA
ATOM     15  H   UNL     1       9.956   2.212  20.535  0.00  0.00    +0.295 HD
ENDBRANCH  12  14
ENDBRANCH  11  12
BRANCH  11  16
ATOM     16  O   UNL     1       9.596  -0.444  21.001  0.00  0.00    -0.378 OA
ATOM     17  H   UNL     1       9.951   0.291  20.464  0.00  0.00    +0.211 HD
ENDBRANCH  11  16
ENDBRANCH   1  11
TORSDOF 6
ENDMDL
MODEL 7
REMARK VINA RESULT:      -4.8      3.909      5.309
REMARK  Name = 
REMARK  6 active torsions:
REMARK  status: ('A' for Active; 'I' for Inactive)
REMARK    1  A    between atoms: C_2  and  O_3
REMARK    2  A    between atoms: C_2  and  C_4
REMARK    3  A    between atoms: C_2  and  C_7
REMARK    4  A    between atoms: C_4  and  O_5
REMARK    5  A    between atoms: C_7  and  O_9
REMARK    6  A    between atoms: C_7  and  C_10
REMARK                            x       y       z     vdW  Elec       q    Type
REMARK                         _______ _______ _______ _____ _____    ______ ____
ROOT
ATOM      1  C   UNL     1       9.071   1.811  21.928  0.00  0.00    +0.184 C 
ENDROOT
BRANCH   1   2
ATOM      2  C   UNL     1       9.368   0.450  22.558  0.00  0.00    -0.016 A 
ATOM      3  C   UNL     1       9.519   0.295  23.948  0.00  0.00    +0.009 A 
ATOM      4  C   UNL     1       9.779  -0.958  24.511  0.00  0.00    +0.039 A 
ATOM      5  C   UNL     1       9.878  -2.071  23.687  0.00  0.00    +0.123 A 
ATOM      6  F   UNL     1      10.107  -3.276  24.226  0.00  0.00    -0.205 F 
ATOM      7  C   UNL     1       9.749  -1.949  22.313  0.00  0.00    +0.039 A 
ATOM      8  C   UNL     1       9.520  -0.692  21.748  0.00  0.00    +0.009 A 
ENDBRANCH   1   2
BRANCH   1   9
ATOM      9  O   UNL     1      10.305   2.535  21.763  0.00  0.00    -0.384 OA
ATOM     10  H   UNL     1      10.900   2.321  22.499  0.00  0.00    +0.210 HD
ENDBRANCH   1   9
BRANCH   1  11
ATOM     11  C   UNL     1       8.039   2.675  22.694  0.00  0.00    +0.256 C 
BRANCH  11  12
ATOM     12  C   UNL     1       8.696   3.874  23.360  0.00  0.00    +0.337 C 
ATOM     13  O   UNL     1       9.299   3.840  24.423  0.00  0.00    -0.248 OA
BRANCH  12  14
ATOM     14  O   UNL     1       8.549   5.009  22.628  0.00  0.00    -0.479 OA
ATOM     15  H   UNL     1       9.193   5.002  21.880  0.00  0.00    +0.295 HD
ENDBRANCH  12  14
ENDBRANCH  11  12
BRANCH  11  16
ATOM     16  O   UNL     1       6.961   3.119  21.851  0.00  0.00    -0.378 OA
ATOM     17  H   UNL     1       6.298   3.538  22.433  0.00  0.00    +0.211 HD
ENDBRANCH  11  16
ENDBRANCH   1  11
TORSDOF 6
ENDMDL
MODEL 8
REMARK VINA RESULT:      -4.8      3.780      5.562
REMARK  Name = 
REMARK  6 active torsions:
REMARK  status: ('A' for Active; 'I' for Inactive)
REMARK    1  A    between atoms: C_2  and  O_3
REMARK    2  A    between atoms: C_2  and  C_4
REMARK    3  A    between atoms: C_2  and  C_7
REMARK    4  A    between atoms: C_4  and  O_5
REMARK    5  A    between atoms: C_7  and  O_9
REMARK    6  A    between atoms: C_7  and  C_10
REMARK                            x       y       z     vdW  Elec       q    Type
REMARK                         _______ _______ _______ _____ _____    ______ ____
ROOT
ATOM      1  C   UNL     1      10.386   0.726  23.513  0.00  0.00    +0.184 C 
ENDROOT
BRANCH   1   2
ATOM      2  C   UNL     1       9.651  -0.612  23.443  0.00  0.00    -0.016 A 
ATOM      3  C   UNL     1       8.988  -1.032  22.275  0.00  0.00    +0.009 A 
ATOM      4  C   UNL     1       8.329  -2.264  22.222  0.00  0.00    +0.039 A 
ATOM      5  C   UNL     1       8.340  -3.094  23.334  0.00  0.00    +0.123 A 
ATOM      6  F   UNL     1       7.726  -4.284  23.278  0.00  0.00    -0.205 F 
ATOM      7  C   UNL     1       8.972  -2.703  24.504  0.00  0.00    +0.039 A 
ATOM      8  C   UNL     1       9.604  -1.459  24.567  0.00  0.00    +0.009 A 
ENDBRANCH   1   2
BRANCH   1   9
ATOM      9  O   UNL     1      10.673   1.036  24.889  0.00  0.00    -0.384 OA
ATOM     10  H   UNL     1      10.074   0.530  25.461  0.00  0.00    +0.210 HD
ENDBRANCH   1   9
BRANCH   1  11
ATOM     11  C   UNL     1       9.655   1.911  22.836  0.00  0.00    +0.256 C 
BRANCH  11  12
ATOM     12  C   UNL     1       9.758   3.181  23.667  0.00  0.00    +0.337 C 
ATOM     13  O   UNL     1       8.973   3.507  24.546  0.00  0.00    -0.248 OA
BRANCH  12  14
ATOM     14  O   UNL     1      10.842   3.925  23.328  0.00  0.00    -0.479 OA
ATOM     15  H   UNL     1      11.428   3.398  22.734  0.00  0.00    +0.295 HD
ENDBRANCH  12  14
ENDBRANCH  11  12
BRANCH  11  16
ATOM     16  O   UNL     1      10.132   2.164  21.503  0.00  0.00    -0.378 OA
ATOM     17  H   UNL     1      10.238   3.131  21.416  0.00  0.00    +0.211 HD
ENDBRANCH  11  16
ENDBRANCH   1  11
TORSDOF 6
ENDMDL
MODEL 9
REMARK VINA RESULT:      -4.8      3.976      5.575
REMARK  Name = 
REMARK  6 active torsions:
REMARK  status: ('A' for Active; 'I' for Inactive)
REMARK    1  A    between atoms: C_2  and  O_3
REMARK    2  A    between atoms: C_2  and  C_4
REMARK    3  A    between atoms: C_2  and  C_7
REMARK    4  A    between atoms: C_4  and  O_5
REMARK    5  A    between atoms: C_7  and  O_9
REMARK    6  A    between atoms: C_7  and  C_10
REMARK                            x       y       z     vdW  Elec       q    Type
REMARK                         _______ _______ _______ _____ _____    ______ ____
ROOT
ATOM      1  C   UNL     1       8.860   2.074  21.792  0.00  0.00    +0.184 C 
ENDROOT
BRANCH   1   2
ATOM      2  C   UNL     1       8.592   0.597  22.077  0.00  0.00    -0.016 A 
ATOM      3  C   UNL     1       7.438   0.171  22.761  0.00  0.00    +0.009 A 
ATOM      4  C   UNL     1       7.202  -1.184  23.004  0.00  0.00    +0.039 A 
ATOM      5  C   UNL     1       8.111  -2.130  22.553  0.00  0.00    +0.123 A 
ATOM      6  F   UNL     1       7.876  -3.431  22.768  0.00  0.00    -0.205 F 
ATOM      7  C   UNL     1       9.265  -1.743  21.889  0.00  0.00    +0.039 A 
ATOM      8  C   UNL     1       9.517  -0.386  21.673  0.00  0.00    +0.009 A 
ENDBRANCH   1   2
BRANCH   1   9
ATOM      9  O   UNL     1      10.280   2.285  21.683  0.00  0.00    -0.384 OA
ATOM     10  H   UNL     1      10.548   2.174  20.757  0.00  0.00    +0.210 HD
ENDBRANCH   1   9
BRANCH   1  11
ATOM     11  C   UNL     1       8.247   3.060  22.817  0.00  0.00    +0.256 C 
BRANCH  11  12
ATOM     12  C   UNL     1       9.243   3.426  23.907  0.00  0.00    +0.337 C 
ATOM     13  O   UNL     1       9.875   4.471  23.955  0.00  0.00    -0.248 OA
BRANCH  12  14
ATOM     14  O   UNL     1       9.350   2.451  24.847  0.00  0.00    -0.479 OA
ATOM     15  H   UNL     1       8.607   1.811  24.741  0.00  0.00    +0.295 HD
ENDBRANCH  12  14
ENDBRANCH  11  12
BRANCH  11  16
ATOM     16  O   UNL     1       7.747   4.257  22.197  0.00  0.00    -0.378 OA
ATOM     17  H   UNL     1       7.937   4.996  22.806  0.00  0.00    +0.211 HD
ENDBRANCH  11  16
ENDBRANCH   1  11
TORSDOF 6
ENDMDL
