MODEL 1
REMARK VINA RESULT:      -6.7      0.000      0.000
REMARK  Name = 
REMARK  9 active torsions:
REMARK  status: ('A' for Active; 'I' for Inactive)
REMARK    1  A    between atoms: N_1  and  CA_2
REMARK    2  A    between atoms: CA_2  and  C_4
REMARK    3  A    between atoms: CA_2  and  C_22
REMARK    4  A    between atoms: C_4  and  C_5
REMARK    5  A    between atoms: C_8  and  N_9
REMARK    6  A    between atoms: N_9  and  N_10
REMARK    7  A    between atoms: N_10  and  C_11
REMARK    8  A    between atoms: C_17  and  O_18
REMARK    9  A    between atoms: C_22  and  O_23
REMARK                            x       y       z     vdW  Elec       q    Type
REMARK                         _______ _______ _______ _____ _____    ______ ____
ROOT
ATOM      1  C   UNL     1       7.113  -5.006  24.726  0.00  0.00    +0.086 C 
ATOM      2  C   UNL     1       6.709  -4.328  26.036  0.00  0.00    +0.166 C 
ATOM      3  O   UNL     1       5.902  -4.852  26.807  0.00  0.00    -0.292 OA
ATOM      4  C   UNL     1       7.282  -3.010  26.380  0.00  0.00    +0.094 C 
ATOM      5  C   UNL     1       8.312  -2.538  25.675  0.00  0.00    +0.142 C 
ATOM      6  C   UNL     1       8.910  -3.241  24.547  0.00  0.00    +0.083 C 
ATOM      7  C   UNL     1       8.356  -4.390  24.124  0.00  0.00    +0.012 C 
ENDROOT
BRANCH   5   8
ATOM      8  O   UNL     1       8.930  -1.365  26.060  0.00  0.00    -0.505 OA
ATOM      9  H   UNL     1       8.230  -0.686  26.107  0.00  0.00    +0.292 HD
ENDBRANCH   5   8
BRANCH   6  10
ATOM     10  N   UNL     1       9.997  -2.673  23.895  0.00  0.00    -0.262 N 
ATOM     11  H   UNL     1      10.720  -3.383  23.740  0.00  0.00    +0.170 HD
BRANCH  10  12
ATOM     12  N   UNL     1       9.867  -1.834  22.807  0.00  0.00    -0.250 N 
ATOM     13  H   UNL     1       9.059  -1.972  22.195  0.00  0.00    +0.171 HD
BRANCH  12  14
ATOM     14  C   UNL     1      10.054  -0.436  22.880  0.00  0.00    +0.135 A 
ATOM     15  N   UNL     1      10.520   0.043  24.054  0.00  0.00    -0.239 NA
ATOM     16  C   UNL     1      10.695   1.382  24.163  0.00  0.00    +0.113 A 
ATOM     17  C   UNL     1      10.421   2.283  23.149  0.00  0.00    +0.020 A 
ATOM     18  C   UNL     1       9.934   1.780  21.953  0.00  0.00    +0.005 A 
ATOM     19  C   UNL     1       9.743   0.405  21.816  0.00  0.00    +0.045 A 
ENDBRANCH  12  14
ENDBRANCH  10  12
ENDBRANCH   6  10
BRANCH   1  20
ATOM     20  C   UNL     1       5.954  -4.961  23.710  0.00  0.00    +0.045 C 
BRANCH  20  21
ATOM     21  CA  UNL     1       6.325  -4.510  22.286  0.00  0.00    +0.162 C 
BRANCH  21  22
ATOM     22  N   UNL     1       5.495  -3.361  21.814  0.00  0.00    -0.318 NA
ATOM     23  H1  UNL     1       5.805  -2.505  22.283  0.00  0.00    +0.119 HD
ATOM     24  H2  UNL     1       5.728  -3.217  20.824  0.00  0.00    +0.119 HD
ENDBRANCH  21  22
BRANCH  21  25
ATOM     25  C   UNL     1       6.132  -5.681  21.302  0.00  0.00    +0.322 C 
ATOM     26  OXT UNL     1       5.968  -5.571  20.098  0.00  0.00    -0.249 OA
BRANCH  25  27
ATOM     27  O   UNL     1       6.160  -6.877  21.948  0.00  0.00    -0.480 OA
ATOM     28  H   UNL     1       5.296  -7.311  21.726  0.00  0.00    +0.295 HD
ENDBRANCH  25  27
ENDBRANCH  21  25
ENDBRANCH  20  21
ENDBRANCH   1  20
TORSDOF 9
ENDMDL
MODEL 2
REMARK VINA RESULT:      -6.6      2.918      4.179
REMARK  Name = 
REMARK  9 active torsions:
REMARK  status: ('A' for Active; 'I' for Inactive)
REMARK    1  A    between atoms: N_1  and  CA_2
REMARK    2  A    between atoms: CA_2  and  C_4
REMARK    3  A    between atoms: CA_2  and  C_22
REMARK    4  A    between atoms: C_4  and  C_5
REMARK    5  A    between atoms: C_8  and  N_9
REMARK    6  A    between atoms: N_9  and  N_10
REMARK    7  A    between atoms: N_10  and  C_11
REMARK    8  A    between atoms: C_17  and  O_18
REMARK    9  A    between atoms: C_22  and  O_23
REMARK                            x       y       z     vdW  Elec       q    Type
REMARK                         _______ _______ _______ _____ _____    ______ ____
ROOT
ATOM      1  C   UNL     1       9.043  -1.848  22.159  0.00  0.00    +0.086 C 
ATOM      2  C   UNL     1       9.895  -1.958  23.425  0.00  0.00    +0.166 C 
ATOM      3  O   UNL     1      10.171  -3.054  23.918  0.00  0.00    -0.292 OA
ATOM      4  C   UNL     1      10.384  -0.729  24.084  0.00  0.00    +0.094 C 
ATOM      5  C   UNL     1      10.283   0.440  23.448  0.00  0.00    +0.142 C 
ATOM      6  C   UNL     1       9.689   0.593  22.126  0.00  0.00    +0.083 C 
ATOM      7  C   UNL     1       9.130  -0.475  21.532  0.00  0.00    +0.012 C 
ENDROOT
BRANCH   5   8
ATOM      8  O   UNL     1      10.842   1.575  24.001  0.00  0.00    -0.505 OA
ATOM      9  H   UNL     1      10.125   2.236  24.058  0.00  0.00    +0.292 HD
ENDBRANCH   5   8
BRANCH   6  10
ATOM     10  N   UNL     1       9.656   1.853  21.541  0.00  0.00    -0.262 N 
ATOM     11  H   UNL     1       9.299   1.782  20.582  0.00  0.00    +0.170 HD
BRANCH  10  12
ATOM     12  N   UNL     1       9.161   2.969  22.186  0.00  0.00    -0.250 N 
ATOM     13  H   UNL     1       9.288   3.876  21.729  0.00  0.00    +0.171 HD
BRANCH  12  14
ATOM     14  C   UNL     1       7.881   3.016  22.779  0.00  0.00    +0.135 A 
ATOM     15  N   UNL     1       7.849   3.020  24.130  0.00  0.00    -0.239 NA
ATOM     16  C   UNL     1       6.635   3.048  24.731  0.00  0.00    +0.113 A 
ATOM     17  C   UNL     1       5.433   3.069  24.046  0.00  0.00    +0.020 A 
ATOM     18  C   UNL     1       5.479   3.055  22.661  0.00  0.00    +0.005 A 
ATOM     19  C   UNL     1       6.716   3.024  22.018  0.00  0.00    +0.045 A 
ENDBRANCH  12  14
ENDBRANCH  10  12
ENDBRANCH   6  10
BRANCH   1  20
ATOM     20  C   UNL     1       7.573  -2.201  22.461  0.00  0.00    +0.045 C 
BRANCH  20  21
ATOM     21  CA  UNL     1       7.132  -3.626  22.080  0.00  0.00    +0.162 C 
BRANCH  21  22
ATOM     22  N   UNL     1       5.779  -3.658  21.449  0.00  0.00    -0.318 NA
ATOM     23  H1  UNL     1       5.102  -4.037  22.118  0.00  0.00    +0.119 HD
ATOM     24  H2  UNL     1       5.493  -2.679  21.315  0.00  0.00    +0.119 HD
ENDBRANCH  21  22
BRANCH  21  25
ATOM     25  C   UNL     1       7.098  -4.515  23.339  0.00  0.00    +0.322 C 
ATOM     26  OXT UNL     1       6.169  -4.589  24.126  0.00  0.00    -0.249 OA
BRANCH  25  27
ATOM     27  O   UNL     1       8.254  -5.217  23.477  0.00  0.00    -0.480 OA
ATOM     28  H   UNL     1       8.038  -6.135  23.167  0.00  0.00    +0.295 HD
ENDBRANCH  25  27
ENDBRANCH  21  25
ENDBRANCH  20  21
ENDBRANCH   1  20
TORSDOF 9
ENDMDL
MODEL 3
REMARK VINA RESULT:      -6.5      2.847      6.326
REMARK  Name = 
REMARK  9 active torsions:
REMARK  status: ('A' for Active; 'I' for Inactive)
REMARK    1  A    between atoms: N_1  and  CA_2
REMARK    2  A    between atoms: CA_2  and  C_4
REMARK    3  A    between atoms: CA_2  and  C_22
REMARK    4  A    between atoms: C_4  and  C_5
REMARK    5  A    between atoms: C_8  and  N_9
REMARK    6  A    between atoms: N_9  and  N_10
REMARK    7  A    between atoms: N_10  and  C_11
REMARK    8  A    between atoms: C_17  and  O_18
REMARK    9  A    between atoms: C_22  and  O_23
REMARK                            x       y       z     vdW  Elec       q    Type
REMARK                         _______ _______ _______ _____ _____    ______ ____
ROOT
ATOM      1  C   UNL     1       9.736   1.126  24.562  0.00  0.00    +0.086 C 
ATOM      2  C   UNL     1      10.029   1.528  23.115  0.00  0.00    +0.166 C 
ATOM      3  O   UNL     1      10.321   2.689  22.819  0.00  0.00    -0.292 OA
ATOM      4  C   UNL     1       9.944   0.513  22.045  0.00  0.00    +0.094 C 
ATOM      5  C   UNL     1       9.850  -0.778  22.372  0.00  0.00    +0.142 C 
ATOM      6  C   UNL     1       9.801  -1.263  23.746  0.00  0.00    +0.083 C 
ATOM      7  C   UNL     1       9.762  -0.373  24.753  0.00  0.00    +0.012 C 
ENDROOT
BRANCH   5   8
ATOM      8  O   UNL     1       9.889  -1.743  21.386  0.00  0.00    -0.505 OA
ATOM      9  H   UNL     1      10.798  -1.737  21.030  0.00  0.00    +0.292 HD
ENDBRANCH   5   8
BRANCH   6  10
ATOM     10  N   UNL     1       9.727  -2.631  23.979  0.00  0.00    -0.262 N 
ATOM     11  H   UNL     1      10.472  -2.915  24.623  0.00  0.00    +0.170 HD
BRANCH  10  12
ATOM     12  N   UNL     1       8.542  -3.284  24.252  0.00  0.00    -0.250 N 
ATOM     13  H   UNL     1       7.861  -2.804  24.846  0.00  0.00    +0.171 HD
BRANCH  12  14
ATOM     14  C   UNL     1       7.783  -3.954  23.268  0.00  0.00    +0.135 A 
ATOM     15  N   UNL     1       7.030  -3.174  22.462  0.00  0.00    -0.239 NA
ATOM     16  C   UNL     1       6.276  -3.788  21.517  0.00  0.00    +0.113 A 
ATOM     17  C   UNL     1       6.230  -5.159  21.335  0.00  0.00    +0.020 A 
ATOM     18  C   UNL     1       6.999  -5.948  22.174  0.00  0.00    +0.005 A 
ATOM     19  C   UNL     1       7.782  -5.341  23.156  0.00  0.00    +0.045 A 
ENDBRANCH  12  14
ENDBRANCH  10  12
ENDBRANCH   6  10
BRANCH   1  20
ATOM     20  C   UNL     1       8.379   1.696  25.020  0.00  0.00    +0.045 C 
BRANCH  20  21
ATOM     21  CA  UNL     1       7.312   1.855  23.923  0.00  0.00    +0.162 C 
BRANCH  21  22
ATOM     22  N   UNL     1       6.633   3.185  23.971  0.00  0.00    -0.318 NA
ATOM     23  H1  UNL     1       6.131   3.340  23.092  0.00  0.00    +0.119 HD
ATOM     24  H2  UNL     1       5.896   3.114  24.684  0.00  0.00    +0.119 HD
ENDBRANCH  21  22
BRANCH  21  25
ATOM     25  C   UNL     1       6.238   0.760  24.078  0.00  0.00    +0.322 C 
ATOM     26  OXT UNL     1       5.301   0.796  24.860  0.00  0.00    -0.249 OA
BRANCH  25  27
ATOM     27  O   UNL     1       6.465  -0.277  23.229  0.00  0.00    -0.480 OA
ATOM     28  H   UNL     1       7.452  -0.359  23.180  0.00  0.00    +0.295 HD
ENDBRANCH  25  27
ENDBRANCH  21  25
ENDBRANCH  20  21
ENDBRANCH   1  20
TORSDOF 9
ENDMDL
MODEL 4
REMARK VINA RESULT:      -6.3      2.305      2.767
REMARK  Name = 
REMARK  9 active torsions:
REMARK  status: ('A' for Active; 'I' for Inactive)
REMARK    1  A    between atoms: N_1  and  CA_2
REMARK    2  A    between atoms: CA_2  and  C_4
REMARK    3  A    between atoms: CA_2  and  C_22
REMARK    4  A    between atoms: C_4  and  C_5
REMARK    5  A    between atoms: C_8  and  N_9
REMARK    6  A    between atoms: N_9  and  N_10
REMARK    7  A    between atoms: N_10  and  C_11
REMARK    8  A    between atoms: C_17  and  O_18
REMARK    9  A    between atoms: C_22  and  O_23
REMARK                            x       y       z     vdW  Elec       q    Type
REMARK                         _______ _______ _______ _____ _____    ______ ____
ROOT
ATOM      1  C   UNL     1       6.998  -5.353  24.775  0.00  0.00    +0.086 C 
ATOM      2  C   UNL     1       7.564  -5.063  26.166  0.00  0.00    +0.166 C 
ATOM      3  O   UNL     1       7.586  -5.930  27.042  0.00  0.00    -0.292 OA
ATOM      4  C   UNL     1       8.077  -3.712  26.477  0.00  0.00    +0.094 C 
ATOM      5  C   UNL     1       8.263  -2.838  25.486  0.00  0.00    +0.142 C 
ATOM      6  C   UNL     1       7.965  -3.124  24.088  0.00  0.00    +0.083 C 
ATOM      7  C   UNL     1       7.392  -4.296  23.767  0.00  0.00    +0.012 C 
ENDROOT
BRANCH   5   8
ATOM      8  O   UNL     1       8.852  -1.617  25.747  0.00  0.00    -0.505 OA
ATOM      9  H   UNL     1       8.610  -1.029  25.006  0.00  0.00    +0.292 HD
ENDBRANCH   5   8
BRANCH   6  10
ATOM     10  N   UNL     1       8.219  -2.150  23.130  0.00  0.00    -0.262 N 
ATOM     11  H   UNL     1       7.553  -1.376  23.235  0.00  0.00    +0.170 HD
BRANCH  10  12
ATOM     12  N   UNL     1       9.488  -1.693  22.839  0.00  0.00    -0.250 N 
ATOM     13  H   UNL     1       9.947  -2.066  22.005  0.00  0.00    +0.171 HD
BRANCH  12  14
ATOM     14  C   UNL     1       9.852  -0.330  22.898  0.00  0.00    +0.135 A 
ATOM     15  N   UNL     1      10.369   0.100  24.070  0.00  0.00    -0.239 NA
ATOM     16  C   UNL     1      10.713   1.407  24.165  0.00  0.00    +0.113 A 
ATOM     17  C   UNL     1      10.564   2.323  23.138  0.00  0.00    +0.020 A 
ATOM     18  C   UNL     1      10.024   1.872  21.944  0.00  0.00    +0.005 A 
ATOM     19  C   UNL     1       9.659   0.531  21.822  0.00  0.00    +0.045 A 
ENDBRANCH  12  14
ENDBRANCH  10  12
ENDBRANCH   6  10
BRANCH   1  20
ATOM     20  C   UNL     1       5.463  -5.488  24.829  0.00  0.00    +0.045 C 
BRANCH  20  21
ATOM     21  CA  UNL     1       4.922  -6.910  25.055  0.00  0.00    +0.162 C 
BRANCH  21  22
ATOM     22  N   UNL     1       3.978  -7.343  23.981  0.00  0.00    -0.318 NA
ATOM     23  H1  UNL     1       3.167  -6.717  23.971  0.00  0.00    +0.119 HD
ATOM     24  H2  UNL     1       4.453  -7.169  23.085  0.00  0.00    +0.119 HD
ENDBRANCH  21  22
BRANCH  21  25
ATOM     25  C   UNL     1       4.178  -6.976  26.404  0.00  0.00    +0.322 C 
ATOM     26  OXT UNL     1       2.984  -6.782  26.562  0.00  0.00    -0.249 OA
BRANCH  25  27
ATOM     27  O   UNL     1       5.030  -7.277  27.421  0.00  0.00    -0.480 OA
ATOM     28  H   UNL     1       4.529  -7.909  27.999  0.00  0.00    +0.295 HD
ENDBRANCH  25  27
ENDBRANCH  21  25
ENDBRANCH  20  21
ENDBRANCH   1  20
TORSDOF 9
ENDMDL
MODEL 5
REMARK VINA RESULT:      -6.3      2.106      3.708
REMARK  Name = 
REMARK  9 active torsions:
REMARK  status: ('A' for Active; 'I' for Inactive)
REMARK    1  A    between atoms: N_1  and  CA_2
REMARK    2  A    between atoms: CA_2  and  C_4
REMARK    3  A    between atoms: CA_2  and  C_22
REMARK    4  A    between atoms: C_4  and  C_5
REMARK    5  A    between atoms: C_8  and  N_9
REMARK    6  A    between atoms: N_9  and  N_10
REMARK    7  A    between atoms: N_10  and  C_11
REMARK    8  A    between atoms: C_17  and  O_18
REMARK    9  A    between atoms: C_22  and  O_23
REMARK                            x       y       z     vdW  Elec       q    Type
REMARK                         _______ _______ _______ _____ _____    ______ ____
ROOT
ATOM      1  C   UNL     1       5.735  -4.117  24.590  0.00  0.00    +0.086 C 
ATOM      2  C   UNL     1       6.560  -5.104  23.763  0.00  0.00    +0.166 C 
ATOM      3  O   UNL     1       6.019  -5.954  23.052  0.00  0.00    -0.292 OA
ATOM      4  C   UNL     1       8.036  -5.054  23.828  0.00  0.00    +0.094 C 
ATOM      5  C   UNL     1       8.632  -4.011  24.409  0.00  0.00    +0.142 C 
ATOM      6  C   UNL     1       7.908  -2.904  25.020  0.00  0.00    +0.083 C 
ATOM      7  C   UNL     1       6.567  -2.955  25.086  0.00  0.00    +0.012 C 
ENDROOT
BRANCH   5   8
ATOM      8  O   UNL     1      10.007  -3.895  24.372  0.00  0.00    -0.505 OA
ATOM      9  H   UNL     1      10.360  -4.805  24.333  0.00  0.00    +0.292 HD
ENDBRANCH   5   8
BRANCH   6  10
ATOM     10  N   UNL     1       8.626  -1.853  25.579  0.00  0.00    -0.262 N 
ATOM     11  H   UNL     1       8.942  -2.110  26.520  0.00  0.00    +0.170 HD
BRANCH  10  12
ATOM     12  N   UNL     1       9.595  -1.154  24.889  0.00  0.00    -0.250 N 
ATOM     13  H   UNL     1      10.477  -1.634  24.692  0.00  0.00    +0.171 HD
BRANCH  12  14
ATOM     14  C   UNL     1       9.321  -0.376  23.743  0.00  0.00    +0.135 A 
ATOM     15  N   UNL     1       8.575   0.733  23.939  0.00  0.00    -0.239 NA
ATOM     16  C   UNL     1       8.280   1.493  22.857  0.00  0.00    +0.113 A 
ATOM     17  C   UNL     1       8.693   1.198  21.569  0.00  0.00    +0.020 A 
ATOM     18  C   UNL     1       9.449   0.053  21.379  0.00  0.00    +0.005 A 
ATOM     19  C   UNL     1       9.764  -0.748  22.478  0.00  0.00    +0.045 A 
ENDBRANCH  12  14
ENDBRANCH  10  12
ENDBRANCH   6  10
BRANCH   1  20
ATOM     20  C   UNL     1       5.061  -4.832  25.777  0.00  0.00    +0.045 C 
BRANCH  20  21
ATOM     21  CA  UNL     1       5.844  -6.009  26.385  0.00  0.00    +0.162 C 
BRANCH  21  22
ATOM     22  N   UNL     1       4.950  -7.105  26.866  0.00  0.00    -0.318 NA
ATOM     23  H1  UNL     1       4.004  -6.737  26.997  0.00  0.00    +0.119 HD
ATOM     24  H2  UNL     1       4.864  -7.776  26.092  0.00  0.00    +0.119 HD
ENDBRANCH  21  22
BRANCH  21  25
ATOM     25  C   UNL     1       6.686  -5.515  27.579  0.00  0.00    +0.322 C 
ATOM     26  OXT UNL     1       6.248  -4.932  28.557  0.00  0.00    -0.249 OA
BRANCH  25  27
ATOM     27  O   UNL     1       8.003  -5.805  27.406  0.00  0.00    -0.480 OA
ATOM     28  H   UNL     1       8.051  -6.795  27.403  0.00  0.00    +0.295 HD
ENDBRANCH  25  27
ENDBRANCH  21  25
ENDBRANCH  20  21
ENDBRANCH   1  20
TORSDOF 9
ENDMDL
MODEL 6
REMARK VINA RESULT:      -6.2      3.261      6.666
REMARK  Name = 
REMARK  9 active torsions:
REMARK  status: ('A' for Active; 'I' for Inactive)
REMARK    1  A    between atoms: N_1  and  CA_2
REMARK    2  A    between atoms: CA_2  and  C_4
REMARK    3  A    between atoms: CA_2  and  C_22
REMARK    4  A    between atoms: C_4  and  C_5
REMARK    5  A    between atoms: C_8  and  N_9
REMARK    6  A    between atoms: N_9  and  N_10
REMARK    7  A    between atoms: N_10  and  C_11
REMARK    8  A    between atoms: C_17  and  O_18
REMARK    9  A    between atoms: C_22  and  O_23
REMARK                            x       y       z     vdW  Elec       q    Type
REMARK                         _______ _______ _______ _____ _____    ______ ____
ROOT
ATOM      1  C   UNL     1       8.662  -4.148  24.126  0.00  0.00    +0.086 C 
ATOM      2  C   UNL     1       8.438  -2.842  23.362  0.00  0.00    +0.166 C 
ATOM      3  O   UNL     1       9.183  -1.872  23.518  0.00  0.00    -0.292 OA
ATOM      4  C   UNL     1       7.296  -2.729  22.431  0.00  0.00    +0.094 C 
ATOM      5  C   UNL     1       6.620  -3.828  22.087  0.00  0.00    +0.142 C 
ATOM      6  C   UNL     1       6.925  -5.158  22.597  0.00  0.00    +0.083 C 
ATOM      7  C   UNL     1       7.881  -5.298  23.531  0.00  0.00    +0.012 C 
ENDROOT
BRANCH   5   8
ATOM      8  O   UNL     1       5.628  -3.754  21.129  0.00  0.00    -0.505 OA
ATOM      9  H   UNL     1       5.153  -4.607  21.157  0.00  0.00    +0.292 HD
ENDBRANCH   5   8
BRANCH   6  10
ATOM     10  N   UNL     1       6.174  -6.241  22.155  0.00  0.00    -0.262 N 
ATOM     11  H   UNL     1       6.689  -7.112  22.320  0.00  0.00    +0.170 HD
BRANCH  10  12
ATOM     12  N   UNL     1       4.829  -6.386  22.431  0.00  0.00    -0.250 N 
ATOM     13  H   UNL     1       4.348  -7.198  22.036  0.00  0.00    +0.171 HD
BRANCH  12  14
ATOM     14  C   UNL     1       4.279  -6.208  23.720  0.00  0.00    +0.135 A 
ATOM     15  N   UNL     1       4.543  -7.180  24.620  0.00  0.00    -0.239 NA
ATOM     16  C   UNL     1       4.016  -7.048  25.862  0.00  0.00    +0.113 A 
ATOM     17  C   UNL     1       3.225  -5.984  26.257  0.00  0.00    +0.020 A 
ATOM     18  C   UNL     1       2.954  -4.998  25.322  0.00  0.00    +0.005 A 
ATOM     19  C   UNL     1       3.482  -5.112  24.035  0.00  0.00    +0.045 A 
ENDBRANCH  12  14
ENDBRANCH  10  12
ENDBRANCH   6  10
BRANCH   1  20
ATOM     20  C   UNL     1       8.301  -3.976  25.615  0.00  0.00    +0.045 C 
BRANCH  20  21
ATOM     21  CA  UNL     1       6.871  -4.384  26.011  0.00  0.00    +0.162 C 
BRANCH  21  22
ATOM     22  N   UNL     1       5.936  -3.220  26.062  0.00  0.00    -0.318 NA
ATOM     23  H1  UNL     1       5.498  -3.097  25.145  0.00  0.00    +0.119 HD
ATOM     24  H2  UNL     1       5.164  -3.490  26.686  0.00  0.00    +0.119 HD
ENDBRANCH  21  22
BRANCH  21  25
ATOM     25  C   UNL     1       6.885  -5.052  27.400  0.00  0.00    +0.322 C 
ATOM     26  OXT UNL     1       6.107  -4.810  28.308  0.00  0.00    -0.249 OA
BRANCH  25  27
ATOM     27  O   UNL     1       7.894  -5.959  27.499  0.00  0.00    -0.480 OA
ATOM     28  H   UNL     1       8.728  -5.428  27.424  0.00  0.00    +0.295 HD
ENDBRANCH  25  27
ENDBRANCH  21  25
ENDBRANCH  20  21
ENDBRANCH   1  20
TORSDOF 9
ENDMDL
MODEL 7
REMARK VINA RESULT:      -6.2      2.393      3.661
REMARK  Name = 
REMARK  9 active torsions:
REMARK  status: ('A' for Active; 'I' for Inactive)
REMARK    1  A    between atoms: N_1  and  CA_2
REMARK    2  A    between atoms: CA_2  and  C_4
REMARK    3  A    between atoms: CA_2  and  C_22
REMARK    4  A    between atoms: C_4  and  C_5
REMARK    5  A    between atoms: C_8  and  N_9
REMARK    6  A    between atoms: N_9  and  N_10
REMARK    7  A    between atoms: N_10  and  C_11
REMARK    8  A    between atoms: C_17  and  O_18
REMARK    9  A    between atoms: C_22  and  O_23
REMARK                            x       y       z     vdW  Elec       q    Type
REMARK                         _______ _______ _______ _____ _____    ______ ____
ROOT
ATOM      1  C   UNL     1       5.882  -3.212  25.811  0.00  0.00    +0.086 C 
ATOM      2  C   UNL     1       5.149  -4.383  25.151  0.00  0.00    +0.166 C 
ATOM      3  O   UNL     1       4.588  -5.248  25.825  0.00  0.00    -0.292 OA
ATOM      4  C   UNL     1       5.128  -4.491  23.678  0.00  0.00    +0.094 C 
ATOM      5  C   UNL     1       5.534  -3.457  22.938  0.00  0.00    +0.142 C 
ATOM      6  C   UNL     1       6.030  -2.207  23.499  0.00  0.00    +0.083 C 
ATOM      7  C   UNL     1       6.175  -2.098  24.831  0.00  0.00    +0.012 C 
ENDROOT
BRANCH   5   8
ATOM      8  O   UNL     1       5.408  -3.502  21.564  0.00  0.00    -0.505 OA
ATOM      9  H   UNL     1       4.483  -3.757  21.379  0.00  0.00    +0.292 HD
ENDBRANCH   5   8
BRANCH   6  10
ATOM     10  N   UNL     1       6.406  -1.181  22.639  0.00  0.00    -0.262 N 
ATOM     11  H   UNL     1       5.830  -1.211  21.791  0.00  0.00    +0.170 HD
BRANCH  10  12
ATOM     12  N   UNL     1       6.621   0.114  23.063  0.00  0.00    -0.250 N 
ATOM     13  H   UNL     1       6.160   0.415  23.925  0.00  0.00    +0.171 HD
BRANCH  12  14
ATOM     14  C   UNL     1       7.897   0.720  23.083  0.00  0.00    +0.135 A 
ATOM     15  N   UNL     1       8.379   1.055  24.299  0.00  0.00    -0.239 NA
ATOM     16  C   UNL     1       9.594   1.654  24.352  0.00  0.00    +0.113 A 
ATOM     17  C   UNL     1      10.362   1.945  23.238  0.00  0.00    +0.020 A 
ATOM     18  C   UNL     1       9.852   1.605  21.995  0.00  0.00    +0.005 A 
ATOM     19  C   UNL     1       8.602   0.990  21.914  0.00  0.00    +0.045 A 
ENDBRANCH  12  14
ENDBRANCH  10  12
ENDBRANCH   6  10
BRANCH   1  20
ATOM     20  C   UNL     1       7.188  -3.692  26.474  0.00  0.00    +0.045 C 
BRANCH  20  21
ATOM     21  CA  UNL     1       7.632  -5.124  26.125  0.00  0.00    +0.162 C 
BRANCH  21  22
ATOM     22  N   UNL     1       8.015  -5.915  27.333  0.00  0.00    -0.318 NA
ATOM     23  H1  UNL     1       7.484  -6.791  27.346  0.00  0.00    +0.119 HD
ATOM     24  H2  UNL     1       8.992  -6.205  27.198  0.00  0.00    +0.119 HD
ENDBRANCH  21  22
BRANCH  21  25
ATOM     25  C   UNL     1       8.845  -5.076  25.176  0.00  0.00    +0.322 C 
ATOM     26  OXT UNL     1       8.852  -4.571  24.065  0.00  0.00    -0.249 OA
BRANCH  25  27
ATOM     27  O   UNL     1       9.928  -5.683  25.730  0.00  0.00    -0.480 OA
ATOM     28  H   UNL     1       9.583  -6.530  26.112  0.00  0.00    +0.295 HD
ENDBRANCH  25  27
ENDBRANCH  21  25
ENDBRANCH  20  21
ENDBRANCH   1  20
TORSDOF 9
ENDMDL
MODEL 8
REMARK VINA RESULT:      -6.2      2.268      3.704
REMARK  Name = 
REMARK  9 active torsions:
REMARK  status: ('A' for Active; 'I' for Inactive)
REMARK    1  A    between atoms: N_1  and  CA_2
REMARK    2  A    between atoms: CA_2  and  C_4
REMARK    3  A    between atoms: CA_2  and  C_22
REMARK    4  A    between atoms: C_4  and  C_5
REMARK    5  A    between atoms: C_8  and  N_9
REMARK    6  A    between atoms: N_9  and  N_10
REMARK    7  A    between atoms: N_10  and  C_11
REMARK    8  A    between atoms: C_17  and  O_18
REMARK    9  A    between atoms: C_22  and  O_23
REMARK                            x       y       z     vdW  Elec       q    Type
REMARK                         _______ _______ _______ _____ _____    ______ ____
ROOT
ATOM      1  C   UNL     1       5.195  -4.490  23.267  0.00  0.00    +0.086 C 
ATOM      2  C   UNL     1       6.146  -5.362  22.445  0.00  0.00    +0.166 C 
ATOM      3  O   UNL     1       5.788  -5.876  21.384  0.00  0.00    -0.292 OA
ATOM      4  C   UNL     1       7.517  -5.610  22.938  0.00  0.00    +0.094 C 
ATOM      5  C   UNL     1       7.988  -4.889  23.958  0.00  0.00    +0.142 C 
ATOM      6  C   UNL     1       7.214  -3.865  24.650  0.00  0.00    +0.083 C 
ATOM      7  C   UNL     1       5.926  -3.679  24.313  0.00  0.00    +0.012 C 
ENDROOT
BRANCH   5   8
ATOM      8  O   UNL     1       9.303  -5.028  24.351  0.00  0.00    -0.505 OA
ATOM      9  H   UNL     1       9.323  -5.759  24.998  0.00  0.00    +0.292 HD
ENDBRANCH   5   8
BRANCH   6  10
ATOM     10  N   UNL     1       7.807  -3.153  25.686  0.00  0.00    -0.262 N 
ATOM     11  H   UNL     1       8.141  -3.802  26.406  0.00  0.00    +0.170 HD
BRANCH  10  12
ATOM     12  N   UNL     1       8.700  -2.123  25.475  0.00  0.00    -0.250 N 
ATOM     13  H   UNL     1       9.618  -2.191  25.923  0.00  0.00    +0.171 HD
BRANCH  12  14
ATOM     14  C   UNL     1       8.937  -1.551  24.206  0.00  0.00    +0.135 A 
ATOM     15  N   UNL     1      10.014  -2.014  23.535  0.00  0.00    -0.239 NA
ATOM     16  C   UNL     1      10.279  -1.474  22.320  0.00  0.00    +0.113 A 
ATOM     17  C   UNL     1       9.518  -0.478  21.734  0.00  0.00    +0.020 A 
ATOM     18  C   UNL     1       8.422  -0.004  22.437  0.00  0.00    +0.005 A 
ATOM     19  C   UNL     1       8.129  -0.542  23.691  0.00  0.00    +0.045 A 
ENDBRANCH  12  14
ENDBRANCH  10  12
ENDBRANCH   6  10
BRANCH   1  20
ATOM     20  C   UNL     1       4.104  -5.353  23.932  0.00  0.00    +0.045 C 
BRANCH  20  21
ATOM     21  CA  UNL     1       4.527  -6.776  24.338  0.00  0.00    +0.162 C 
BRANCH  21  22
ATOM     22  N   UNL     1       3.508  -7.804  23.967  0.00  0.00    -0.318 NA
ATOM     23  H1  UNL     1       3.660  -8.097  22.998  0.00  0.00    +0.119 HD
ATOM     24  H2  UNL     1       3.716  -8.640  24.528  0.00  0.00    +0.119 HD
ENDBRANCH  21  22
BRANCH  21  25
ATOM     25  C   UNL     1       4.745  -6.840  25.862  0.00  0.00    +0.322 C 
ATOM     26  OXT UNL     1       5.763  -6.504  26.444  0.00  0.00    -0.249 OA
BRANCH  25  27
ATOM     27  O   UNL     1       3.648  -7.333  26.496  0.00  0.00    -0.480 OA
ATOM     28  H   UNL     1       3.168  -7.863  25.808  0.00  0.00    +0.295 HD
ENDBRANCH  25  27
ENDBRANCH  21  25
ENDBRANCH  20  21
ENDBRANCH   1  20
TORSDOF 9
ENDMDL
MODEL 9
REMARK VINA RESULT:      -6.1      2.913      6.425
REMARK  Name = 
REMARK  9 active torsions:
REMARK  status: ('A' for Active; 'I' for Inactive)
REMARK    1  A    between atoms: N_1  and  CA_2
REMARK    2  A    between atoms: CA_2  and  C_4
REMARK    3  A    between atoms: CA_2  and  C_22
REMARK    4  A    between atoms: C_4  and  C_5
REMARK    5  A    between atoms: C_8  and  N_9
REMARK    6  A    between atoms: N_9  and  N_10
REMARK    7  A    between atoms: N_10  and  C_11
REMARK    8  A    between atoms: C_17  and  O_18
REMARK    9  A    between atoms: C_22  and  O_23
REMARK                            x       y       z     vdW  Elec       q    Type
REMARK                         _______ _______ _______ _____ _____    ______ ____
ROOT
ATOM      1  C   UNL     1       9.665   1.121  24.679  0.00  0.00    +0.086 C 
ATOM      2  C   UNL     1       9.984   1.621  23.268  0.00  0.00    +0.166 C 
ATOM      3  O   UNL     1      10.217   2.811  23.048  0.00  0.00    -0.292 OA
ATOM      4  C   UNL     1       9.995   0.665  22.142  0.00  0.00    +0.094 C 
ATOM      5  C   UNL     1       9.965  -0.646  22.394  0.00  0.00    +0.142 C 
ATOM      6  C   UNL     1       9.897  -1.210  23.736  0.00  0.00    +0.083 C 
ATOM      7  C   UNL     1       9.773  -0.383  24.788  0.00  0.00    +0.012 C 
ENDROOT
BRANCH   5   8
ATOM      8  O   UNL     1      10.095  -1.549  21.358  0.00  0.00    -0.505 OA
ATOM      9  H   UNL     1       9.617  -2.355  21.633  0.00  0.00    +0.292 HD
ENDBRANCH   5   8
BRANCH   6  10
ATOM     10  N   UNL     1       9.896  -2.591  23.890  0.00  0.00    -0.262 N 
ATOM     11  H   UNL     1      10.340  -2.842  24.780  0.00  0.00    +0.170 HD
BRANCH  10  12
ATOM     12  N   UNL     1       8.789  -3.375  23.634  0.00  0.00    -0.250 N 
ATOM     13  H   UNL     1       8.814  -3.976  22.807  0.00  0.00    +0.171 HD
BRANCH  12  14
ATOM     14  C   UNL     1       8.125  -4.125  24.630  0.00  0.00    +0.135 A 
ATOM     15  N   UNL     1       6.913  -4.618  24.295  0.00  0.00    -0.239 NA
ATOM     16  C   UNL     1       6.241  -5.329  25.233  0.00  0.00    +0.113 A 
ATOM     17  C   UNL     1       6.720  -5.573  26.509  0.00  0.00    +0.020 A 
ATOM     18  C   UNL     1       7.960  -5.053  26.843  0.00  0.00    +0.005 A 
ATOM     19  C   UNL     1       8.671  -4.316  25.895  0.00  0.00    +0.045 A 
ENDBRANCH  12  14
ENDBRANCH  10  12
ENDBRANCH   6  10
BRANCH   1  20
ATOM     20  C   UNL     1       8.262   1.586  25.117  0.00  0.00    +0.045 C 
BRANCH  20  21
ATOM     21  CA  UNL     1       7.209   1.688  23.999  0.00  0.00    +0.162 C 
BRANCH  21  22
ATOM     22  N   UNL     1       6.456   2.978  24.038  0.00  0.00    -0.318 NA
ATOM     23  H1  UNL     1       6.540   3.446  23.131  0.00  0.00    +0.119 HD
ATOM     24  H2  UNL     1       5.460   2.735  24.114  0.00  0.00    +0.119 HD
ENDBRANCH  21  22
BRANCH  21  25
ATOM     25  C   UNL     1       6.195   0.534  24.130  0.00  0.00    +0.322 C 
ATOM     26  OXT UNL     1       5.275   0.491  24.929  0.00  0.00    -0.249 OA
BRANCH  25  27
ATOM     27  O   UNL     1       6.458  -0.455  23.236  0.00  0.00    -0.480 OA
ATOM     28  H   UNL     1       5.747  -0.378  22.549  0.00  0.00    +0.295 HD
ENDBRANCH  25  27
ENDBRANCH  21  25
ENDBRANCH  20  21
ENDBRANCH   1  20
TORSDOF 9
ENDMDL
