MODEL 1
REMARK VINA RESULT:      -5.1      0.000      0.000
REMARK  Name = 
REMARK  6 active torsions:
REMARK  status: ('A' for Active; 'I' for Inactive)
REMARK    1  A    between atoms: C_1  and  C_2
REMARK    2  A    between atoms: C_5  and  N_13
REMARK    3  A    between atoms: CA_8  and  C_10
REMARK    4  A    between atoms: C_10  and  O_11
REMARK    5  A    between atoms: N_13  and  C_14
REMARK    6  A    between atoms: N_13  and  O_15
REMARK                            x       y       z     vdW  Elec       q    Type
REMARK                         _______ _______ _______ _____ _____    ______ ____
ROOT
ATOM      1  C   UNL     1       9.266   6.833  23.952  0.00  0.00    +0.010 C 
ATOM      2  C   UNL     1       9.996   5.523  24.209  0.00  0.00    +0.017 C 
ATOM      3  CA  UNL     1      11.217   5.318  23.320  0.00  0.00    +0.167 C 
ATOM      4  N   UNL     1      11.313   3.842  23.052  0.00  0.00    -0.287 NA
ATOM      5  H   UNL     1      11.112   3.693  22.059  0.00  0.00    +0.124 HD
ATOM      6  C   UNL     1      10.179   3.203  23.741  0.00  0.00    +0.151 C 
ATOM      7  C   UNL     1       9.143   4.313  23.885  0.00  0.00    +0.042 C 
ENDROOT
BRANCH   3   8
ATOM      8  C   UNL     1      12.501   5.785  24.021  0.00  0.00    +0.322 C 
ATOM      9  OXT UNL     1      12.534   6.470  25.030  0.00  0.00    -0.249 OA
BRANCH   8  10
ATOM     10  O   UNL     1      13.611   5.333  23.385  0.00  0.00    -0.480 OA
ATOM     11  H   UNL     1      13.656   4.362  23.585  0.00  0.00    +0.295 HD
ENDBRANCH   8  10
ENDBRANCH   3   8
BRANCH   6  12
ATOM     12  N   UNL     1       9.718   2.097  22.904  0.00  0.00    -0.177 NA
ATOM     13  C   UNL     1      10.323   0.826  23.309  0.00  0.00    +0.139 C 
BRANCH  12  14
ATOM     14  O   UNL     1      10.269   2.336  21.571  0.00  0.00    -0.311 OA
ATOM     15  H   UNL     1       9.599   1.912  21.002  0.00  0.00    +0.237 HD
ENDBRANCH  12  14
ENDBRANCH   6  12
TORSDOF 4
ENDMDL
MODEL 2
REMARK VINA RESULT:      -4.8      9.481     10.880
REMARK  Name = 
REMARK  6 active torsions:
REMARK  status: ('A' for Active; 'I' for Inactive)
REMARK    1  A    between atoms: C_1  and  C_2
REMARK    2  A    between atoms: C_5  and  N_13
REMARK    3  A    between atoms: CA_8  and  C_10
REMARK    4  A    between atoms: C_10  and  O_11
REMARK    5  A    between atoms: N_13  and  C_14
REMARK    6  A    between atoms: N_13  and  O_15
REMARK                            x       y       z     vdW  Elec       q    Type
REMARK                         _______ _______ _______ _____ _____    ______ ____
ROOT
ATOM      1  C   UNL     1       6.211  -4.741  23.885  0.00  0.00    +0.010 C 
ATOM      2  C   UNL     1       6.875  -4.592  25.246  0.00  0.00    +0.017 C 
ATOM      3  CA  UNL     1       8.150  -5.412  25.398  0.00  0.00    +0.167 C 
ATOM      4  N   UNL     1       8.216  -5.847  26.836  0.00  0.00    -0.287 NA
ATOM      5  H   UNL     1       8.084  -6.862  26.859  0.00  0.00    +0.124 HD
ATOM      6  C   UNL     1       7.013  -5.320  27.502  0.00  0.00    +0.151 C 
ATOM      7  C   UNL     1       6.008  -5.117  26.372  0.00  0.00    +0.042 C 
ENDROOT
BRANCH   3   8
ATOM      8  C   UNL     1       9.394  -4.573  25.071  0.00  0.00    +0.322 C 
ATOM      9  OXT UNL     1       9.378  -3.389  24.776  0.00  0.00    -0.249 OA
BRANCH   8  10
ATOM     10  O   UNL     1      10.531  -5.308  25.158  0.00  0.00    -0.480 OA
ATOM     11  H   UNL     1      10.986  -5.200  24.282  0.00  0.00    +0.295 HD
ENDBRANCH   8  10
ENDBRANCH   3   8
BRANCH   6  12
ATOM     12  N   UNL     1       6.577  -6.312  28.481  0.00  0.00    -0.177 NA
ATOM     13  C   UNL     1       5.264  -6.865  28.140  0.00  0.00    +0.139 C 
BRANCH  12  14
ATOM     14  O   UNL     1       6.334  -5.581  29.724  0.00  0.00    -0.311 OA
ATOM     15  H   UNL     1       7.088  -5.870  30.272  0.00  0.00    +0.237 HD
ENDBRANCH  12  14
ENDBRANCH   6  12
TORSDOF 4
ENDMDL
MODEL 3
REMARK VINA RESULT:      -4.8      5.913      8.625
REMARK  Name = 
REMARK  6 active torsions:
REMARK  status: ('A' for Active; 'I' for Inactive)
REMARK    1  A    between atoms: C_1  and  C_2
REMARK    2  A    between atoms: C_5  and  N_13
REMARK    3  A    between atoms: CA_8  and  C_10
REMARK    4  A    between atoms: C_10  and  O_11
REMARK    5  A    between atoms: N_13  and  C_14
REMARK    6  A    between atoms: N_13  and  O_15
REMARK                            x       y       z     vdW  Elec       q    Type
REMARK                         _______ _______ _______ _____ _____    ______ ____
ROOT
ATOM      1  C   UNL     1       6.978  -2.462  26.319  0.00  0.00    +0.010 C 
ATOM      2  C   UNL     1       7.726  -3.033  25.123  0.00  0.00    +0.017 C 
ATOM      3  CA  UNL     1       9.011  -3.762  25.497  0.00  0.00    +0.167 C 
ATOM      4  N   UNL     1       9.984  -3.527  24.374  0.00  0.00    -0.287 NA
ATOM      5  H   UNL     1      10.735  -2.933  24.734  0.00  0.00    +0.124 HD
ATOM      6  C   UNL     1       9.303  -2.673  23.385  0.00  0.00    +0.151 C 
ATOM      7  C   UNL     1       8.220  -1.953  24.182  0.00  0.00    +0.042 C 
ENDROOT
BRANCH   3   8
ATOM      8  C   UNL     1       8.772  -5.272  25.644  0.00  0.00    +0.322 C 
ATOM      9  OXT UNL     1       7.790  -5.774  26.166  0.00  0.00    -0.249 OA
BRANCH   8  10
ATOM     10  O   UNL     1       9.790  -5.994  25.111  0.00  0.00    -0.480 OA
ATOM     11  H   UNL     1      10.444  -6.116  25.848  0.00  0.00    +0.295 HD
ENDBRANCH   8  10
ENDBRANCH   3   8
BRANCH   6  12
ATOM     12  N   UNL     1      10.299  -1.763  22.825  0.00  0.00    -0.177 NA
ATOM     13  C   UNL     1      10.165  -0.412  23.377  0.00  0.00    +0.139 C 
BRANCH  12  14
ATOM     14  O   UNL     1       9.954  -1.597  21.414  0.00  0.00    -0.311 OA
ATOM     15  H   UNL     1      10.094  -0.639  21.289  0.00  0.00    +0.237 HD
ENDBRANCH  12  14
ENDBRANCH   6  12
TORSDOF 4
ENDMDL
MODEL 4
REMARK VINA RESULT:      -4.8      8.542      9.757
REMARK  Name = 
REMARK  6 active torsions:
REMARK  status: ('A' for Active; 'I' for Inactive)
REMARK    1  A    between atoms: C_1  and  C_2
REMARK    2  A    between atoms: C_5  and  N_13
REMARK    3  A    between atoms: CA_8  and  C_10
REMARK    4  A    between atoms: C_10  and  O_11
REMARK    5  A    between atoms: N_13  and  C_14
REMARK    6  A    between atoms: N_13  and  O_15
REMARK                            x       y       z     vdW  Elec       q    Type
REMARK                         _______ _______ _______ _____ _____    ______ ____
ROOT
ATOM      1  C   UNL     1       8.565  -2.068  24.618  0.00  0.00    +0.010 C 
ATOM      2  C   UNL     1       7.643  -3.277  24.558  0.00  0.00    +0.017 C 
ATOM      3  CA  UNL     1       8.344  -4.559  24.125  0.00  0.00    +0.167 C 
ATOM      4  N   UNL     1       7.339  -5.356  23.339  0.00  0.00    -0.287 NA
ATOM      5  H   UNL     1       7.653  -5.376  22.366  0.00  0.00    +0.124 HD
ATOM      6  C   UNL     1       6.099  -4.563  23.294  0.00  0.00    +0.151 C 
ATOM      7  C   UNL     1       6.556  -3.124  23.514  0.00  0.00    +0.042 C 
ENDROOT
BRANCH   3   8
ATOM      8  C   UNL     1       8.798  -5.384  25.339  0.00  0.00    +0.322 C 
ATOM      9  OXT UNL     1       8.069  -5.739  26.252  0.00  0.00    -0.249 OA
BRANCH   8  10
ATOM     10  O   UNL     1      10.119  -5.683  25.275  0.00  0.00    -0.480 OA
ATOM     11  H   UNL     1      10.469  -5.178  24.495  0.00  0.00    +0.295 HD
ENDBRANCH   8  10
ENDBRANCH   3   8
BRANCH   6  12
ATOM     12  N   UNL     1       5.486  -4.773  21.984  0.00  0.00    -0.177 NA
ATOM     13  C   UNL     1       6.296  -5.661  21.147  0.00  0.00    +0.139 C 
BRANCH  12  14
ATOM     14  O   UNL     1       5.552  -3.486  21.292  0.00  0.00    -0.311 OA
ATOM     15  H   UNL     1       4.610  -3.316  21.105  0.00  0.00    +0.237 HD
ENDBRANCH  12  14
ENDBRANCH   6  12
TORSDOF 4
ENDMDL
MODEL 5
REMARK VINA RESULT:      -4.7      9.707     11.745
REMARK  Name = 
REMARK  6 active torsions:
REMARK  status: ('A' for Active; 'I' for Inactive)
REMARK    1  A    between atoms: C_1  and  C_2
REMARK    2  A    between atoms: C_5  and  N_13
REMARK    3  A    between atoms: CA_8  and  C_10
REMARK    4  A    between atoms: C_10  and  O_11
REMARK    5  A    between atoms: N_13  and  C_14
REMARK    6  A    between atoms: N_13  and  O_15
REMARK                            x       y       z     vdW  Elec       q    Type
REMARK                         _______ _______ _______ _____ _____    ______ ____
ROOT
ATOM      1  C   UNL     1       4.287  -4.473  27.091  0.00  0.00    +0.010 C 
ATOM      2  C   UNL     1       5.497  -5.370  26.875  0.00  0.00    +0.017 C 
ATOM      3  CA  UNL     1       6.440  -5.422  28.071  0.00  0.00    +0.167 C 
ATOM      4  N   UNL     1       7.831  -5.571  27.518  0.00  0.00    -0.287 NA
ATOM      5  H   UNL     1       8.337  -4.703  27.714  0.00  0.00    +0.124 HD
ATOM      6  C   UNL     1       7.712  -5.586  26.050  0.00  0.00    +0.151 C 
ATOM      7  C   UNL     1       6.396  -4.868  25.765  0.00  0.00    +0.042 C 
ENDROOT
BRANCH   3   8
ATOM      8  C   UNL     1       6.129  -6.624  28.975  0.00  0.00    +0.322 C 
ATOM      9  OXT UNL     1       6.451  -6.715  30.148  0.00  0.00    -0.249 OA
BRANCH   8  10
ATOM     10  O   UNL     1       5.437  -7.583  28.311  0.00  0.00    -0.480 OA
ATOM     11  H   UNL     1       5.307  -8.319  28.964  0.00  0.00    +0.295 HD
ENDBRANCH   8  10
ENDBRANCH   3   8
BRANCH   6  12
ATOM     12  N   UNL     1       8.873  -4.887  25.504  0.00  0.00    -0.177 NA
ATOM     13  C   UNL     1       8.569  -4.266  24.212  0.00  0.00    +0.139 C 
BRANCH  12  14
ATOM     14  O   UNL     1       9.853  -5.919  25.172  0.00  0.00    -0.311 OA
ATOM     15  H   UNL     1      10.640  -5.606  25.657  0.00  0.00    +0.237 HD
ENDBRANCH  12  14
ENDBRANCH   6  12
TORSDOF 4
ENDMDL
MODEL 6
REMARK VINA RESULT:      -4.7      3.236      6.272
REMARK  Name = 
REMARK  6 active torsions:
REMARK  status: ('A' for Active; 'I' for Inactive)
REMARK    1  A    between atoms: C_1  and  C_2
REMARK    2  A    between atoms: C_5  and  N_13
REMARK    3  A    between atoms: CA_8  and  C_10
REMARK    4  A    between atoms: C_10  and  O_11
REMARK    5  A    between atoms: N_13  and  C_14
REMARK    6  A    between atoms: N_13  and  O_15
REMARK                            x       y       z     vdW  Elec       q    Type
REMARK                         _______ _______ _______ _____ _____    ______ ____
ROOT
ATOM      1  C   UNL     1       8.819  -0.807  26.598  0.00  0.00    +0.010 C 
ATOM      2  C   UNL     1       8.810  -0.520  25.104  0.00  0.00    +0.017 C 
ATOM      3  CA  UNL     1       9.898  -1.258  24.333  0.00  0.00    +0.167 C 
ATOM      4  N   UNL     1      10.320  -0.353  23.208  0.00  0.00    -0.287 NA
ATOM      5  H   UNL     1      11.278  -0.046  23.401  0.00  0.00    +0.124 HD
ATOM      6  C   UNL     1       9.524   0.880  23.325  0.00  0.00    +0.151 C 
ATOM      7  C   UNL     1       9.110   0.931  24.792  0.00  0.00    +0.042 C 
ENDROOT
BRANCH   3   8
ATOM      8  C   UNL     1       9.369  -2.574  23.745  0.00  0.00    +0.322 C 
ATOM      9  OXT UNL     1       8.482  -2.658  22.912  0.00  0.00    -0.249 OA
BRANCH   8  10
ATOM     10  O   UNL     1      10.018  -3.649  24.259  0.00  0.00    -0.480 OA
ATOM     11  H   UNL     1       9.523  -3.889  25.086  0.00  0.00    +0.295 HD
ENDBRANCH   8  10
ENDBRANCH   3   8
BRANCH   6  12
ATOM     12  N   UNL     1      10.380   1.999  22.935  0.00  0.00    -0.177 NA
ATOM     13  C   UNL     1      10.001   3.233  23.627  0.00  0.00    +0.139 C 
BRANCH  12  14
ATOM     14  O   UNL     1      10.074   2.278  21.533  0.00  0.00    -0.311 OA
ATOM     15  H   UNL     1       9.098   2.300  21.546  0.00  0.00    +0.237 HD
ENDBRANCH  12  14
ENDBRANCH   6  12
TORSDOF 4
ENDMDL
MODEL 7
REMARK VINA RESULT:      -4.6      9.551     10.247
REMARK  Name = 
REMARK  6 active torsions:
REMARK  status: ('A' for Active; 'I' for Inactive)
REMARK    1  A    between atoms: C_1  and  C_2
REMARK    2  A    between atoms: C_5  and  N_13
REMARK    3  A    between atoms: CA_8  and  C_10
REMARK    4  A    between atoms: C_10  and  O_11
REMARK    5  A    between atoms: N_13  and  C_14
REMARK    6  A    between atoms: N_13  and  O_15
REMARK                            x       y       z     vdW  Elec       q    Type
REMARK                         _______ _______ _______ _____ _____    ______ ____
ROOT
ATOM      1  C   UNL     1       6.310  -3.371  26.489  0.00  0.00    +0.010 C 
ATOM      2  C   UNL     1       6.510  -4.540  25.535  0.00  0.00    +0.017 C 
ATOM      3  CA  UNL     1       7.723  -4.386  24.626  0.00  0.00    +0.167 C 
ATOM      4  N   UNL     1       7.367  -5.036  23.317  0.00  0.00    -0.287 NA
ATOM      5  H   UNL     1       7.296  -4.296  22.614  0.00  0.00    +0.124 HD
ATOM      6  C   UNL     1       5.988  -5.535  23.445  0.00  0.00    +0.151 C 
ATOM      7  C   UNL     1       5.371  -4.680  24.547  0.00  0.00    +0.042 C 
ENDROOT
BRANCH   3   8
ATOM      8  C   UNL     1       8.954  -5.090  25.216  0.00  0.00    +0.322 C 
ATOM      9  OXT UNL     1      10.104  -4.906  24.851  0.00  0.00    -0.249 OA
BRANCH   8  10
ATOM     10  O   UNL     1       8.611  -5.947  26.211  0.00  0.00    -0.480 OA
ATOM     11  H   UNL     1       7.672  -6.211  26.024  0.00  0.00    +0.295 HD
ENDBRANCH   8  10
ENDBRANCH   3   8
BRANCH   6  12
ATOM     12  N   UNL     1       5.331  -5.359  22.151  0.00  0.00    -0.177 NA
ATOM     13  C   UNL     1       6.238  -5.662  21.041  0.00  0.00    +0.139 C 
BRANCH  12  14
ATOM     14  O   UNL     1       5.080  -3.925  22.012  0.00  0.00    -0.311 OA
ATOM     15  H   UNL     1       5.812  -3.654  21.426  0.00  0.00    +0.237 HD
ENDBRANCH  12  14
ENDBRANCH   6  12
TORSDOF 4
ENDMDL
MODEL 8
REMARK VINA RESULT:      -4.6      4.099      5.518
REMARK  Name = 
REMARK  6 active torsions:
REMARK  status: ('A' for Active; 'I' for Inactive)
REMARK    1  A    between atoms: C_1  and  C_2
REMARK    2  A    between atoms: C_5  and  N_13
REMARK    3  A    between atoms: CA_8  and  C_10
REMARK    4  A    between atoms: C_10  and  O_11
REMARK    5  A    between atoms: N_13  and  C_14
REMARK    6  A    between atoms: N_13  and  O_15
REMARK                            x       y       z     vdW  Elec       q    Type
REMARK                         _______ _______ _______ _____ _____    ______ ____
ROOT
ATOM      1  C   UNL     1      11.001   0.708  24.521  0.00  0.00    +0.010 C 
ATOM      2  C   UNL     1      10.323   0.222  23.249  0.00  0.00    +0.017 C 
ATOM      3  CA  UNL     1       8.923   0.789  23.047  0.00  0.00    +0.167 C 
ATOM      4  N   UNL     1       8.118  -0.282  22.363  0.00  0.00    -0.287 NA
ATOM      5  H   UNL     1       7.412  -0.611  23.028  0.00  0.00    +0.124 HD
ATOM      6  C   UNL     1       9.006  -1.443  22.188  0.00  0.00    +0.151 C 
ATOM      7  C   UNL     1      10.077  -1.272  23.260  0.00  0.00    +0.042 C 
ENDROOT
BRANCH   3   8
ATOM      8  C   UNL     1       8.951   2.039  22.156  0.00  0.00    +0.322 C 
ATOM      9  OXT UNL     1       8.030   2.831  22.037  0.00  0.00    -0.249 OA
BRANCH   8  10
ATOM     10  O   UNL     1      10.139   2.169  21.514  0.00  0.00    -0.480 OA
ATOM     11  H   UNL     1      10.564   1.273  21.555  0.00  0.00    +0.295 HD
ENDBRANCH   8  10
ENDBRANCH   3   8
BRANCH   6  12
ATOM     12  N   UNL     1       8.201  -2.649  22.373  0.00  0.00    -0.177 NA
ATOM     13  C   UNL     1       6.808  -2.323  22.690  0.00  0.00    +0.139 C 
BRANCH  12  14
ATOM     14  O   UNL     1       8.694  -3.286  23.593  0.00  0.00    -0.311 OA
ATOM     15  H   UNL     1       7.873  -3.379  24.112  0.00  0.00    +0.237 HD
ENDBRANCH  12  14
ENDBRANCH   6  12
TORSDOF 4
ENDMDL
MODEL 9
REMARK VINA RESULT:      -4.6      8.350     10.158
REMARK  Name = 
REMARK  6 active torsions:
REMARK  status: ('A' for Active; 'I' for Inactive)
REMARK    1  A    between atoms: C_1  and  C_2
REMARK    2  A    between atoms: C_5  and  N_13
REMARK    3  A    between atoms: CA_8  and  C_10
REMARK    4  A    between atoms: C_10  and  O_11
REMARK    5  A    between atoms: N_13  and  C_14
REMARK    6  A    between atoms: N_13  and  O_15
REMARK                            x       y       z     vdW  Elec       q    Type
REMARK                         _______ _______ _______ _____ _____    ______ ____
ROOT
ATOM      1  C   UNL     1       6.959  -5.184  22.110  0.00  0.00    +0.010 C 
ATOM      2  C   UNL     1       6.948  -4.648  23.533  0.00  0.00    +0.017 C 
ATOM      3  CA  UNL     1       8.322  -4.628  24.191  0.00  0.00    +0.167 C 
ATOM      4  N   UNL     1       8.106  -4.905  25.653  0.00  0.00    -0.287 NA
ATOM      5  H   UNL     1       8.506  -5.824  25.857  0.00  0.00    +0.124 HD
ATOM      6  C   UNL     1       6.659  -5.100  25.846  0.00  0.00    +0.151 C 
ATOM      7  C   UNL     1       6.143  -5.521  24.473  0.00  0.00    +0.042 C 
ENDROOT
BRANCH   3   8
ATOM      8  C   UNL     1       8.995  -3.257  24.035  0.00  0.00    +0.322 C 
ATOM      9  OXT UNL     1      10.199  -3.078  23.939  0.00  0.00    -0.249 OA
BRANCH   8  10
ATOM     10  O   UNL     1       8.084  -2.253  24.007  0.00  0.00    -0.480 OA
ATOM     11  H   UNL     1       7.662  -2.300  23.109  0.00  0.00    +0.295 HD
ENDBRANCH   8  10
ENDBRANCH   3   8
BRANCH   6  12
ATOM     12  N   UNL     1       6.482  -6.134  26.863  0.00  0.00    -0.177 NA
ATOM     13  C   UNL     1       5.320  -5.860  27.713  0.00  0.00    +0.139 C 
BRANCH  12  14
ATOM     14  O   UNL     1       7.618  -6.007  27.776  0.00  0.00    -0.311 OA
ATOM     15  H   UNL     1       7.223  -5.501  28.511  0.00  0.00    +0.237 HD
ENDBRANCH  12  14
ENDBRANCH   6  12
TORSDOF 4
ENDMDL
