MODEL 1
REMARK VINA RESULT:      -5.4      0.000      0.000
REMARK  Name = 
REMARK  5 active torsions:
REMARK  status: ('A' for Active; 'I' for Inactive)
REMARK    1  A    between atoms: C_1  and  C_2
REMARK    2  A    between atoms: C_3  and  N_4
REMARK    3  A    between atoms: C_9  and  C_10
REMARK    4  A    between atoms: C_10  and  O_11
REMARK    5  A    between atoms: C_12  and  N_13
REMARK                            x       y       z     vdW  Elec       q    Type
REMARK                         _______ _______ _______ _____ _____    ______ ____
ROOT
ATOM      1  C   UNL     1       5.738  -3.077  21.838  0.00  0.00    +0.050 C 
ATOM      2  C   UNL     1       6.721  -3.402  22.930  0.00  0.00    +0.023 C 
ATOM      3  C   UNL     1       6.231  -4.397  23.915  0.00  0.00    +0.205 C 
ATOM      4  O   UNL     1       5.124  -4.908  23.766  0.00  0.00    -0.286 OA
ATOM      5  C   UNL     1       7.100  -4.723  25.098  0.00  0.00    +0.087 C 
ATOM      6  C   UNL     1       8.403  -4.384  25.058  0.00  0.00    +0.051 C 
ATOM      7  C   UNL     1       8.908  -3.436  24.035  0.00  0.00    +0.207 C 
ATOM      8  O   UNL     1      10.096  -3.111  24.054  0.00  0.00    -0.285 OA
ATOM      9  C   UNL     1       7.944  -2.850  23.037  0.00  0.00    +0.084 C 
ENDROOT
BRANCH   5  10
ATOM     10  N   UNL     1       6.535  -5.456  26.148  0.00  0.00    -0.324 N 
ATOM     11  C   UNL     1       5.240  -5.054  26.699  0.00  0.00    +0.124 C 
ATOM     12  C   UNL     1       6.510  -4.829  27.474  0.00  0.00    +0.124 C 
ENDBRANCH   5  10
BRANCH   9  13
ATOM     13  N   UNL     1       8.405  -1.839  22.188  0.00  0.00    -0.324 N 
ATOM     14  C   UNL     1       9.424  -0.899  22.654  0.00  0.00    +0.124 C 
ATOM     15  C   UNL     1       7.994  -0.465  22.490  0.00  0.00    +0.124 C 
ENDBRANCH   9  13
BRANCH   6  16
ATOM     16  C   UNL     1       9.393  -4.891  26.076  0.00  0.00    +0.197 C 
BRANCH  16  17
ATOM     17  O   UNL     1      10.490  -5.596  25.505  0.00  0.00    -0.390 OA
ATOM     18  H   UNL     1      10.314  -5.674  24.543  0.00  0.00    +0.210 HD
ENDBRANCH  16  17
ENDBRANCH   6  16
TORSDOF 4
ENDMDL
MODEL 2
REMARK VINA RESULT:      -5.2      0.748      5.319
REMARK  Name = 
REMARK  5 active torsions:
REMARK  status: ('A' for Active; 'I' for Inactive)
REMARK    1  A    between atoms: C_1  and  C_2
REMARK    2  A    between atoms: C_3  and  N_4
REMARK    3  A    between atoms: C_9  and  C_10
REMARK    4  A    between atoms: C_10  and  O_11
REMARK    5  A    between atoms: C_12  and  N_13
REMARK                            x       y       z     vdW  Elec       q    Type
REMARK                         _______ _______ _______ _____ _____    ______ ____
ROOT
ATOM      1  C   UNL     1       9.464  -5.011  26.128  0.00  0.00    +0.050 C 
ATOM      2  C   UNL     1       8.420  -4.516  25.164  0.00  0.00    +0.023 C 
ATOM      3  C   UNL     1       8.930  -3.564  24.148  0.00  0.00    +0.205 C 
ATOM      4  O   UNL     1      10.125  -3.282  24.123  0.00  0.00    -0.286 OA
ATOM      5  C   UNL     1       7.949  -2.939  23.195  0.00  0.00    +0.087 C 
ATOM      6  C   UNL     1       6.732  -3.499  23.057  0.00  0.00    +0.051 C 
ATOM      7  C   UNL     1       6.243  -4.498  24.038  0.00  0.00    +0.207 C 
ATOM      8  O   UNL     1       5.107  -4.957  23.910  0.00  0.00    -0.285 OA
ATOM      9  C   UNL     1       7.125  -4.881  25.198  0.00  0.00    +0.084 C 
ENDROOT
BRANCH   5  10
ATOM     10  N   UNL     1       8.385  -1.859  22.416  0.00  0.00    -0.324 N 
ATOM     11  C   UNL     1       9.281  -0.860  22.999  0.00  0.00    +0.124 C 
ATOM     12  C   UNL     1       7.836  -0.536  22.730  0.00  0.00    +0.124 C 
ENDBRANCH   5  10
BRANCH   9  13
ATOM     13  N   UNL     1       6.585  -5.697  26.196  0.00  0.00    -0.324 N 
ATOM     14  C   UNL     1       5.266  -5.400  26.754  0.00  0.00    +0.124 C 
ATOM     15  C   UNL     1       6.514  -5.148  27.553  0.00  0.00    +0.124 C 
ENDBRANCH   9  13
BRANCH   6  16
ATOM     16  C   UNL     1       5.787  -3.098  21.953  0.00  0.00    +0.197 C 
BRANCH  16  17
ATOM     17  O   UNL     1       5.593  -4.111  20.971  0.00  0.00    -0.390 OA
ATOM     18  H   UNL     1       6.471  -4.510  20.790  0.00  0.00    +0.210 HD
ENDBRANCH  16  17
ENDBRANCH   6  16
TORSDOF 4
ENDMDL
MODEL 3
REMARK VINA RESULT:      -5.1      2.771      5.459
REMARK  Name = 
REMARK  5 active torsions:
REMARK  status: ('A' for Active; 'I' for Inactive)
REMARK    1  A    between atoms: C_1  and  C_2
REMARK    2  A    between atoms: C_3  and  N_4
REMARK    3  A    between atoms: C_9  and  C_10
REMARK    4  A    between atoms: C_10  and  O_11
REMARK    5  A    between atoms: C_12  and  N_13
REMARK                            x       y       z     vdW  Elec       q    Type
REMARK                         _______ _______ _______ _____ _____    ______ ____
ROOT
ATOM      1  C   UNL     1       8.237  -3.015  26.296  0.00  0.00    +0.050 C 
ATOM      2  C   UNL     1       8.579  -2.106  25.148  0.00  0.00    +0.023 C 
ATOM      3  C   UNL     1       8.830  -0.697  25.537  0.00  0.00    +0.205 C 
ATOM      4  O   UNL     1       8.791  -0.377  26.723  0.00  0.00    -0.286 OA
ATOM      5  C   UNL     1       9.088   0.313  24.453  0.00  0.00    +0.087 C 
ATOM      6  C   UNL     1       9.424  -0.128  23.225  0.00  0.00    +0.051 C 
ATOM      7  C   UNL     1       9.231  -1.550  22.851  0.00  0.00    +0.207 C 
ATOM      8  O   UNL     1       9.504  -1.911  21.705  0.00  0.00    -0.285 OA
ATOM      9  C   UNL     1       8.652  -2.503  23.864  0.00  0.00    +0.084 C 
ENDROOT
BRANCH   5  10
ATOM     10  N   UNL     1       9.068   1.669  24.798  0.00  0.00    -0.324 N 
ATOM     11  C   UNL     1       7.911   2.220  25.505  0.00  0.00    +0.124 C 
ATOM     12  C   UNL     1       8.152   2.541  24.055  0.00  0.00    +0.124 C 
ENDBRANCH   5  10
BRANCH   9  13
ATOM     13  N   UNL     1       8.328  -3.797  23.443  0.00  0.00    -0.324 N 
ATOM     14  C   UNL     1       7.364  -3.996  22.362  0.00  0.00    +0.124 C 
ATOM     15  C   UNL     1       6.997  -4.305  23.786  0.00  0.00    +0.124 C 
ENDBRANCH   9  13
BRANCH   6  16
ATOM     16  C   UNL     1       9.942   0.801  22.156  0.00  0.00    +0.197 C 
BRANCH  16  17
ATOM     17  O   UNL     1       9.063   0.941  21.045  0.00  0.00    -0.390 OA
ATOM     18  H   UNL     1       8.735   0.044  20.823  0.00  0.00    +0.210 HD
ENDBRANCH  16  17
ENDBRANCH   6  16
TORSDOF 4
ENDMDL
MODEL 4
REMARK VINA RESULT:      -5.1      2.071      2.589
REMARK  Name = 
REMARK  5 active torsions:
REMARK  status: ('A' for Active; 'I' for Inactive)
REMARK    1  A    between atoms: C_1  and  C_2
REMARK    2  A    between atoms: C_3  and  N_4
REMARK    3  A    between atoms: C_9  and  C_10
REMARK    4  A    between atoms: C_10  and  O_11
REMARK    5  A    between atoms: C_12  and  N_13
REMARK                            x       y       z     vdW  Elec       q    Type
REMARK                         _______ _______ _______ _____ _____    ______ ____
ROOT
ATOM      1  C   UNL     1       8.722  -2.010  22.029  0.00  0.00    +0.050 C 
ATOM      2  C   UNL     1       8.270  -2.764  23.249  0.00  0.00    +0.023 C 
ATOM      3  C   UNL     1       7.408  -3.936  22.958  0.00  0.00    +0.205 C 
ATOM      4  O   UNL     1       7.162  -4.237  21.793  0.00  0.00    -0.286 OA
ATOM      5  C   UNL     1       6.826  -4.703  24.113  0.00  0.00    +0.087 C 
ATOM      6  C   UNL     1       7.361  -4.535  25.338  0.00  0.00    +0.051 C 
ATOM      7  C   UNL     1       8.272  -3.398  25.617  0.00  0.00    +0.207 C 
ATOM      8  O   UNL     1       8.707  -3.245  26.759  0.00  0.00    -0.285 OA
ATOM      9  C   UNL     1       8.595  -2.427  24.511  0.00  0.00    +0.084 C 
ENDROOT
BRANCH   5  10
ATOM     10  N   UNL     1       5.819  -5.637  23.842  0.00  0.00    -0.324 N 
ATOM     11  C   UNL     1       4.701  -5.266  22.973  0.00  0.00    +0.124 C 
ATOM     12  C   UNL     1       4.507  -5.413  24.459  0.00  0.00    +0.124 C 
ENDBRANCH   5  10
BRANCH   9  13
ATOM     13  N   UNL     1       9.321  -1.277  24.834  0.00  0.00    -0.324 N 
ATOM     14  C   UNL     1       8.933  -0.463  25.985  0.00  0.00    +0.124 C 
ATOM     15  C   UNL     1       8.682   0.018  24.583  0.00  0.00    +0.124 C 
ENDBRANCH   9  13
BRANCH   6  16
ATOM     16  C   UNL     1       7.015  -5.440  26.494  0.00  0.00    +0.197 C 
BRANCH  16  17
ATOM     17  O   UNL     1       8.152  -5.988  27.151  0.00  0.00    -0.390 OA
ATOM     18  H   UNL     1       8.272  -6.900  26.808  0.00  0.00    +0.210 HD
ENDBRANCH  16  17
ENDBRANCH   6  16
TORSDOF 4
ENDMDL
MODEL 5
REMARK VINA RESULT:      -5.1      1.702      1.900
REMARK  Name = 
REMARK  5 active torsions:
REMARK  status: ('A' for Active; 'I' for Inactive)
REMARK    1  A    between atoms: C_1  and  C_2
REMARK    2  A    between atoms: C_3  and  N_4
REMARK    3  A    between atoms: C_9  and  C_10
REMARK    4  A    between atoms: C_10  and  O_11
REMARK    5  A    between atoms: C_12  and  N_13
REMARK                            x       y       z     vdW  Elec       q    Type
REMARK                         _______ _______ _______ _____ _____    ______ ____
ROOT
ATOM      1  C   UNL     1       6.398  -0.201  24.322  0.00  0.00    +0.050 C 
ATOM      2  C   UNL     1       7.210  -1.454  24.509  0.00  0.00    +0.023 C 
ATOM      3  C   UNL     1       6.442  -2.604  25.046  0.00  0.00    +0.205 C 
ATOM      4  O   UNL     1       5.237  -2.488  25.254  0.00  0.00    -0.286 OA
ATOM      5  C   UNL     1       7.179  -3.877  25.357  0.00  0.00    +0.087 C 
ATOM      6  C   UNL     1       8.407  -4.059  24.833  0.00  0.00    +0.051 C 
ATOM      7  C   UNL     1       9.153  -2.923  24.240  0.00  0.00    +0.207 C 
ATOM      8  O   UNL     1      10.293  -3.113  23.811  0.00  0.00    -0.285 OA
ATOM      9  C   UNL     1       8.522  -1.555  24.230  0.00  0.00    +0.084 C 
ENDROOT
BRANCH   5  10
ATOM     10  N   UNL     1       6.512  -4.861  26.096  0.00  0.00    -0.324 N 
ATOM     11  C   UNL     1       5.895  -4.512  27.376  0.00  0.00    +0.124 C 
ATOM     12  C   UNL     1       7.155  -5.334  27.326  0.00  0.00    +0.124 C 
ENDBRANCH   5  10
BRANCH   9  13
ATOM     13  N   UNL     1       9.303  -0.471  23.816  0.00  0.00    -0.324 N 
ATOM     14  C   UNL     1      10.488  -0.086  24.580  0.00  0.00    +0.124 C 
ATOM     15  C   UNL     1       9.242   0.751  24.621  0.00  0.00    +0.124 C 
ENDBRANCH   9  13
BRANCH   6  16
ATOM     16  C   UNL     1       9.108  -5.393  24.881  0.00  0.00    +0.197 C 
BRANCH  16  17
ATOM     17  O   UNL     1      10.403  -5.338  25.471  0.00  0.00    -0.390 OA
ATOM     18  H   UNL     1      10.974  -5.959  24.970  0.00  0.00    +0.210 HD
ENDBRANCH  16  17
ENDBRANCH   6  16
TORSDOF 4
ENDMDL
MODEL 6
REMARK VINA RESULT:      -5.0      1.932      2.511
REMARK  Name = 
REMARK  5 active torsions:
REMARK  status: ('A' for Active; 'I' for Inactive)
REMARK    1  A    between atoms: C_1  and  C_2
REMARK    2  A    between atoms: C_3  and  N_4
REMARK    3  A    between atoms: C_9  and  C_10
REMARK    4  A    between atoms: C_10  and  O_11
REMARK    5  A    between atoms: C_12  and  N_13
REMARK                            x       y       z     vdW  Elec       q    Type
REMARK                         _______ _______ _______ _____ _____    ______ ____
ROOT
ATOM      1  C   UNL     1       7.157  -4.892  21.924  0.00  0.00    +0.050 C 
ATOM      2  C   UNL     1       7.018  -4.906  23.422  0.00  0.00    +0.023 C 
ATOM      3  C   UNL     1       5.844  -5.664  23.919  0.00  0.00    +0.205 C 
ATOM      4  O   UNL     1       5.113  -6.246  23.121  0.00  0.00    -0.286 OA
ATOM      5  C   UNL     1       5.562  -5.663  25.396  0.00  0.00    +0.087 C 
ATOM      6  C   UNL     1       6.539  -5.284  26.241  0.00  0.00    +0.051 C 
ATOM      7  C   UNL     1       7.744  -4.580  25.740  0.00  0.00    +0.207 C 
ATOM      8  O   UNL     1       8.598  -4.206  26.545  0.00  0.00    -0.285 OA
ATOM      9  C   UNL     1       7.865  -4.289  24.266  0.00  0.00    +0.084 C 
ENDROOT
BRANCH   5  10
ATOM     10  N   UNL     1       4.325  -6.155  25.830  0.00  0.00    -0.324 N 
ATOM     11  C   UNL     1       3.099  -5.736  25.150  0.00  0.00    +0.124 C 
ATOM     12  C   UNL     1       3.433  -5.220  26.524  0.00  0.00    +0.124 C 
ENDBRANCH   5  10
BRANCH   9  13
ATOM     13  N   UNL     1       8.926  -3.486  23.837  0.00  0.00    -0.324 N 
ATOM     14  C   UNL     1       9.099  -2.143  24.389  0.00  0.00    +0.124 C 
ATOM     15  C   UNL     1       8.601  -2.339  22.985  0.00  0.00    +0.124 C 
ENDBRANCH   9  13
BRANCH   6  16
ATOM     16  C   UNL     1       6.432  -5.491  27.731  0.00  0.00    +0.197 C 
BRANCH  16  17
ATOM     17  O   UNL     1       7.410  -6.384  28.255  0.00  0.00    -0.390 OA
ATOM     18  H   UNL     1       8.290  -6.014  28.030  0.00  0.00    +0.210 HD
ENDBRANCH  16  17
ENDBRANCH   6  16
TORSDOF 4
ENDMDL
MODEL 7
REMARK VINA RESULT:      -4.9      2.390      4.832
REMARK  Name = 
REMARK  5 active torsions:
REMARK  status: ('A' for Active; 'I' for Inactive)
REMARK    1  A    between atoms: C_1  and  C_2
REMARK    2  A    between atoms: C_3  and  N_4
REMARK    3  A    between atoms: C_9  and  C_10
REMARK    4  A    between atoms: C_10  and  O_11
REMARK    5  A    between atoms: C_12  and  N_13
REMARK                            x       y       z     vdW  Elec       q    Type
REMARK                         _______ _______ _______ _____ _____    ______ ____
ROOT
ATOM      1  C   UNL     1       4.781  -2.539  25.018  0.00  0.00    +0.050 C 
ATOM      2  C   UNL     1       6.149  -2.242  24.468  0.00  0.00    +0.023 C 
ATOM      3  C   UNL     1       6.432  -0.798  24.283  0.00  0.00    +0.205 C 
ATOM      4  O   UNL     1       5.593   0.035  24.615  0.00  0.00    -0.286 OA
ATOM      5  C   UNL     1       7.737  -0.398  23.652  0.00  0.00    +0.087 C 
ATOM      6  C   UNL     1       8.732  -1.303  23.593  0.00  0.00    +0.051 C 
ATOM      7  C   UNL     1       8.464  -2.741  23.838  0.00  0.00    +0.207 C 
ATOM      8  O   UNL     1       9.387  -3.550  23.731  0.00  0.00    -0.285 OA
ATOM      9  C   UNL     1       7.059  -3.183  24.154  0.00  0.00    +0.084 C 
ENDROOT
BRANCH   5  10
ATOM     10  N   UNL     1       7.891   0.933  23.245  0.00  0.00    -0.324 N 
ATOM     11  C   UNL     1       6.884   1.547  22.379  0.00  0.00    +0.124 C 
ATOM     12  C   UNL     1       8.240   1.174  21.841  0.00  0.00    +0.124 C 
ENDBRANCH   5  10
BRANCH   9  13
ATOM     13  N   UNL     1       6.797  -4.555  24.221  0.00  0.00    -0.324 N 
ATOM     14  C   UNL     1       7.207  -5.434  23.128  0.00  0.00    +0.124 C 
ATOM     15  C   UNL     1       5.760  -5.088  23.334  0.00  0.00    +0.124 C 
ENDBRANCH   9  13
BRANCH   6  16
ATOM     16  C   UNL     1      10.141  -0.921  23.213  0.00  0.00    +0.197 C 
BRANCH  16  17
ATOM     17  O   UNL     1      10.612  -1.569  22.037  0.00  0.00    -0.390 OA
ATOM     18  H   UNL     1       9.828  -1.755  21.476  0.00  0.00    +0.210 HD
ENDBRANCH  16  17
ENDBRANCH   6  16
TORSDOF 4
ENDMDL
MODEL 8
REMARK VINA RESULT:      -4.9      2.057      4.642
REMARK  Name = 
REMARK  5 active torsions:
REMARK  status: ('A' for Active; 'I' for Inactive)
REMARK    1  A    between atoms: C_1  and  C_2
REMARK    2  A    between atoms: C_3  and  N_4
REMARK    3  A    between atoms: C_9  and  C_10
REMARK    4  A    between atoms: C_10  and  O_11
REMARK    5  A    between atoms: C_12  and  N_13
REMARK                            x       y       z     vdW  Elec       q    Type
REMARK                         _______ _______ _______ _____ _____    ______ ____
ROOT
ATOM      1  C   UNL     1       7.249  -5.447  26.403  0.00  0.00    +0.050 C 
ATOM      2  C   UNL     1       7.510  -4.518  25.250  0.00  0.00    +0.023 C 
ATOM      3  C   UNL     1       8.425  -3.393  25.568  0.00  0.00    +0.205 C 
ATOM      4  O   UNL     1       8.929  -3.315  26.685  0.00  0.00    -0.286 OA
ATOM      5  C   UNL     1       8.678  -2.355  24.511  0.00  0.00    +0.087 C 
ATOM      6  C   UNL     1       8.364  -2.640  23.233  0.00  0.00    +0.051 C 
ATOM      7  C   UNL     1       7.499  -3.800  22.907  0.00  0.00    +0.207 C 
ATOM      8  O   UNL     1       7.191  -4.007  21.732  0.00  0.00    -0.285 OA
ATOM      9  C   UNL     1       6.971  -4.660  24.026  0.00  0.00    +0.084 C 
ENDROOT
BRANCH   5  10
ATOM     10  N   UNL     1       9.327  -1.173  24.891  0.00  0.00    -0.324 N 
ATOM     11  C   UNL     1       8.807  -0.391  26.014  0.00  0.00    +0.124 C 
ATOM     12  C   UNL     1       8.648   0.094  24.597  0.00  0.00    +0.124 C 
ENDBRANCH   5  10
BRANCH   9  13
ATOM     13  N   UNL     1       6.030  -5.646  23.713  0.00  0.00    -0.324 N 
ATOM     14  C   UNL     1       4.779  -5.282  23.050  0.00  0.00    +0.124 C 
ATOM     15  C   UNL     1       4.795  -5.674  24.500  0.00  0.00    +0.124 C 
ENDBRANCH   9  13
BRANCH   6  16
ATOM     16  C   UNL     1       8.811  -1.770  22.085  0.00  0.00    +0.197 C 
BRANCH  16  17
ATOM     17  O   UNL     1      10.197  -1.892  21.782  0.00  0.00    -0.390 OA
ATOM     18  H   UNL     1      10.269  -2.041  20.815  0.00  0.00    +0.210 HD
ENDBRANCH  16  17
ENDBRANCH   6  16
TORSDOF 4
ENDMDL
MODEL 9
REMARK VINA RESULT:      -4.8      2.916      4.076
REMARK  Name = 
REMARK  5 active torsions:
REMARK  status: ('A' for Active; 'I' for Inactive)
REMARK    1  A    between atoms: C_1  and  C_2
REMARK    2  A    between atoms: C_3  and  N_4
REMARK    3  A    between atoms: C_9  and  C_10
REMARK    4  A    between atoms: C_10  and  O_11
REMARK    5  A    between atoms: C_12  and  N_13
REMARK                            x       y       z     vdW  Elec       q    Type
REMARK                         _______ _______ _______ _____ _____    ______ ____
ROOT
ATOM      1  C   UNL     1      10.492  -1.145  22.110  0.00  0.00    +0.050 C 
ATOM      2  C   UNL     1       9.689  -0.880  23.353  0.00  0.00    +0.023 C 
ATOM      3  C   UNL     1       9.541  -2.055  24.247  0.00  0.00    +0.205 C 
ATOM      4  O   UNL     1      10.095  -3.113  23.958  0.00  0.00    -0.286 OA
ATOM      5  C   UNL     1       8.679  -1.921  25.472  0.00  0.00    +0.087 C 
ATOM      6  C   UNL     1       8.355  -0.688  25.905  0.00  0.00    +0.051 C 
ATOM      7  C   UNL     1       8.558   0.498  25.037  0.00  0.00    +0.207 C 
ATOM      8  O   UNL     1       8.208   1.606  25.444  0.00  0.00    -0.285 OA
ATOM      9  C   UNL     1       9.131   0.307  23.656  0.00  0.00    +0.084 C 
ENDROOT
BRANCH   5  10
ATOM     10  N   UNL     1       8.336  -3.088  26.166  0.00  0.00    -0.324 N 
ATOM     11  C   UNL     1       7.701  -4.196  25.451  0.00  0.00    +0.124 C 
ATOM     12  C   UNL     1       6.910  -3.338  26.402  0.00  0.00    +0.124 C 
ENDBRANCH   5  10
BRANCH   9  13
ATOM     13  N   UNL     1       9.163   1.410  22.797  0.00  0.00    -0.324 N 
ATOM     14  C   UNL     1       7.959   2.213  22.589  0.00  0.00    +0.124 C 
ATOM     15  C   UNL     1       8.461   1.288  21.516  0.00  0.00    +0.124 C 
ENDBRANCH   9  13
BRANCH   6  16
ATOM     16  C   UNL     1       7.715  -0.454  27.250  0.00  0.00    +0.197 C 
BRANCH  16  17
ATOM     17  O   UNL     1       8.612   0.066  28.227  0.00  0.00    -0.390 OA
ATOM     18  H   UNL     1       9.512  -0.240  27.984  0.00  0.00    +0.210 HD
ENDBRANCH  16  17
ENDBRANCH   6  16
TORSDOF 4
ENDMDL
