MODEL 1
REMARK VINA RESULT:      -4.0      0.000      0.000
REMARK  Name = 
REMARK  42 active torsions:
REMARK  status: ('A' for Active; 'I' for Inactive)
REMARK    1  A    between atoms: C_1  and  C_2
REMARK    2  A    between atoms: C_2  and  C_3
REMARK    3  A    between atoms: C_3  and  C_4
REMARK    4  A    between atoms: C_4  and  N_6
REMARK    5  A    between atoms: C_4  and  C_46
REMARK    6  A    between atoms: C_7  and  C_9
REMARK    7  A    between atoms: C_9  and  N_11
REMARK    8  A    between atoms: C_9  and  C_42
REMARK    9  A    between atoms: C_12  and  C_14
REMARK   10  A    between atoms: C_14  and  N_16
REMARK   11  A    between atoms: C_14  and  C_37
REMARK   12  A    between atoms: C_17  and  C_19
REMARK   13  A    between atoms: C_19  and  N_21
REMARK   14  A    between atoms: C_19  and  C_34
REMARK   15  A    between atoms: C_22  and  C_24
REMARK   16  A    between atoms: C_24  and  N_25
REMARK   17  A    between atoms: C_26  and  C_28
REMARK   18  A    between atoms: C_28  and  N_29
REMARK   19  A    between atoms: N_29  and  C_30
REMARK   20  A    between atoms: C_31  and  C_32
REMARK   21  A    between atoms: C_34  and  C_35
REMARK   22  A    between atoms: C_34  and  C_36
REMARK   23  A    between atoms: C_37  and  C_39
REMARK   24  A    between atoms: C_37  and  C_40
REMARK   25  A    between atoms: C_40  and  C_41
REMARK   26  A    between atoms: C_42  and  C_44
REMARK   27  A    between atoms: C_42  and  O_45
REMARK   28  A    between atoms: N_48  and  C_49
REMARK   29  A    between atoms: C_49  and  C_51
REMARK   30  A    between atoms: C_49  and  C_56
REMARK   31  A    between atoms: C_51  and  C_53
REMARK   32  A    between atoms: C_51  and  C_54
REMARK   33  A    between atoms: C_54  and  C_55
REMARK   34  A    between atoms: N_58  and  C_59
REMARK   35  A    between atoms: C_59  and  C_61
REMARK   36  A    between atoms: C_59  and  C_68
REMARK   37  A    between atoms: C_61  and  C_62
REMARK   38  A    between atoms: C_62  and  C_63
REMARK   39  A    between atoms: C_63  and  N_64
REMARK   40  A    between atoms: C_74  and  C_76
REMARK   41  A    between atoms: N_78  and  C_79
REMARK   42  A    between atoms: C_79  and  C_80
REMARK                            x       y       z     vdW  Elec       q    Type
REMARK                         _______ _______ _______ _____ _____    ______ ____
ROOT
ATOM      1  C   UNL     1       8.848  -3.742  26.343  0.00  0.00    +0.159 C 
ENDROOT
BRANCH   1   2
ATOM      2  N   UNL     1       7.600  -3.541  27.111  0.00  0.00    -0.302 N 
ATOM      3  H   UNL     1       7.642  -2.841  27.848  0.00  0.00    +0.150 HD
ATOM      4  C   UNL     1       6.506  -4.383  27.045  0.00  0.00    +0.236 C 
ATOM      5  O   UNL     1       6.451  -5.317  26.244  0.00  0.00    -0.274 OA
BRANCH   4   6
ATOM      6  C   UNL     1       5.300  -4.015  27.966  0.00  0.00    +0.187 C 
BRANCH   6   7
ATOM      7  N   UNL     1       4.436  -3.094  27.239  0.00  0.00    -0.300 N 
ATOM      8  H   UNL     1       4.003  -3.484  26.398  0.00  0.00    +0.150 HD
ATOM      9  C   UNL     1       3.782  -2.029  27.809  0.00  0.00    +0.234 C 
ATOM     10  O   UNL     1       4.033  -1.634  28.946  0.00  0.00    -0.274 OA
BRANCH   9  11
ATOM     11  C   UNL     1       2.810  -1.254  26.866  0.00  0.00    +0.162 C 
BRANCH  11  12
ATOM     12  N   UNL     1       2.668   0.201  27.122  0.00  0.00    -0.302 N 
ATOM     13  H   UNL     1       1.853   0.512  27.637  0.00  0.00    +0.150 HD
ATOM     14  C   UNL     1       3.389   1.161  26.450  0.00  0.00    +0.234 C 
ATOM     15  O   UNL     1       4.212   0.808  25.601  0.00  0.00    -0.274 OA
BRANCH  14  16
ATOM     16  C   UNL     1       3.182   2.648  26.792  0.00  0.00    +0.161 C 
BRANCH  16  17
ATOM     17  N   UNL     1       2.632   3.358  25.634  0.00  0.00    -0.302 N 
ATOM     18  H   UNL     1       3.013   4.271  25.402  0.00  0.00    +0.150 HD
ATOM     19  C   UNL     1       1.571   2.879  24.898  0.00  0.00    +0.231 C 
ATOM     20  O   UNL     1       0.913   1.894  25.225  0.00  0.00    -0.274 OA
BRANCH  19  21
ATOM     21  C   UNL     1       1.195   3.730  23.682  0.00  0.00    +0.200 C 
BRANCH  21  22
ATOM     22  N   UNL     1       2.157   4.802  23.499  0.00  0.00    -0.305 N 
ATOM     23  H   UNL     1       2.143   5.555  24.177  0.00  0.00    +0.149 HD
ATOM     24  C   UNL     1       3.229   4.666  22.638  0.00  0.00    +0.231 C 
ATOM     25  O   UNL     1       3.418   3.628  22.009  0.00  0.00    -0.274 OA
BRANCH  24  26
ATOM     26  C   UNL     1       4.178   5.887  22.614  0.00  0.00    +0.203 C 
BRANCH  26  27
ATOM     27  N   UNL     1       5.176   5.957  23.691  0.00  0.00    -0.296 N 
ATOM     28  C   UNL     1       6.548   5.793  23.576  0.00  0.00    +0.213 C 
ATOM     29  O   UNL     1       7.294   5.912  24.555  0.00  0.00    -0.276 OA
ATOM     30  C   UNL     1       7.183   5.512  22.237  0.00  0.00    +0.109 C 
ATOM     31  C   UNL     1       4.704   6.360  25.009  0.00  0.00    +0.132 C 
ENDBRANCH  26  27
ENDBRANCH  24  26
ENDBRANCH  21  22
ENDBRANCH  19  21
ENDBRANCH  16  17
BRANCH  16  32
ATOM     32  C   UNL     1       2.260   2.793  28.049  0.00  0.00    +0.012 C 
ATOM     33  C   UNL     1       1.360   4.042  28.082  0.00  0.00    +0.009 C 
ATOM     34  C   UNL     1       3.058   2.769  29.356  0.00  0.00    +0.009 C 
ENDBRANCH  16  32
ENDBRANCH  14  16
ENDBRANCH  11  12
BRANCH  11  35
ATOM     35  C   UNL     1       1.501  -2.093  26.712  0.00  0.00    +0.015 C 
ATOM     36  C   UNL     1       1.491  -3.173  25.622  0.00  0.00    +0.010 C 
BRANCH  35  37
ATOM     37  C   UNL     1       1.038  -2.674  28.062  0.00  0.00    +0.002 C 
ATOM     38  C   UNL     1       0.487  -4.090  27.917  0.00  0.00    +0.004 C 
ENDBRANCH  35  37
ENDBRANCH  11  35
ENDBRANCH   9  11
ENDBRANCH   6   7
BRANCH   6  39
ATOM     39  C   UNL     1       4.503  -5.293  28.354  0.00  0.00    +0.141 C 
ATOM     40  C   UNL     1       3.671  -5.120  29.623  0.00  0.00    +0.040 C 
BRANCH  39  41
ATOM     41  O   UNL     1       3.582  -5.682  27.322  0.00  0.00    -0.390 OA
ATOM     42  H   UNL     1       4.013  -5.469  26.465  0.00  0.00    +0.210 HD
ENDBRANCH  39  41
ENDBRANCH   6  39
ENDBRANCH   4   6
ENDBRANCH   1   2
BRANCH   1  43
ATOM     43  C   UNL     1       8.695  -3.071  24.939  0.00  0.00    +0.234 C 
ATOM     44  N   UNL     1       7.413  -2.923  24.455  0.00  0.00    -0.302 N 
ATOM     45  H   UNL     1       6.612  -3.210  25.010  0.00  0.00    +0.150 HD
ATOM     46  O   UNL     1       9.682  -2.720  24.288  0.00  0.00    -0.274 OA
BRANCH  44  47
ATOM     47  C   UNL     1       7.097  -2.298  23.153  0.00  0.00    +0.162 C 
BRANCH  47  48
ATOM     48  C   UNL     1       7.196  -0.763  23.346  0.00  0.00    +0.234 C 
ATOM     49  N   UNL     1       8.323  -0.279  23.985  0.00  0.00    -0.302 N 
ATOM     50  H   UNL     1       9.045  -0.912  24.316  0.00  0.00    +0.150 HD
ATOM     51  O   UNL     1       6.323  -0.015  22.903  0.00  0.00    -0.274 OA
BRANCH  49  52
ATOM     52  C   UNL     1       8.601   1.164  24.081  0.00  0.00    +0.159 C 
BRANCH  52  53
ATOM     53  C   UNL     1       7.594   1.876  25.039  0.00  0.00    +0.237 C 
ATOM     54  N   UNL     1       7.634   1.584  26.393  0.00  0.00    -0.288 N 
ATOM     55  C   UNL     1       6.601   2.077  27.335  0.00  0.00    +0.162 C 
ATOM     56  C   UNL     1       6.386   0.904  28.316  0.00  0.00    +0.033 C 
ATOM     57  C   UNL     1       7.279  -0.227  27.817  0.00  0.00    +0.021 C 
ATOM     58  C   UNL     1       8.349   0.476  27.006  0.00  0.00    +0.109 C 
ATOM     59  O   UNL     1       6.804   2.716  24.588  0.00  0.00    -0.274 OA
BRANCH  55  60
ATOM     60  C   UNL     1       6.960   3.341  28.160  0.00  0.00    +0.234 C 
ATOM     61  N   UNL     1       6.808   4.545  27.524  0.00  0.00    -0.314 N 
ATOM     62  H   UNL     1       6.218   4.570  26.706  0.00  0.00    +0.149 HD
ATOM     63  O   UNL     1       7.288   3.270  29.350  0.00  0.00    -0.274 OA
BRANCH  61  64
ATOM     64  C   UNL     1       7.192   5.799  28.149  0.00  0.00    +0.101 C 
ATOM     65  C   UNL     1       6.012   6.729  28.359  0.00  0.00    +0.024 C 
ENDBRANCH  61  64
ENDBRANCH  55  60
ENDBRANCH  52  53
BRANCH  52  66
ATOM     66  C   UNL     1       8.711   1.844  22.699  0.00  0.00    +0.035 C 
BRANCH  66  67
ATOM     67  C   UNL     1      10.122   2.231  22.235  0.00  0.00    +0.043 C 
BRANCH  67  68
ATOM     68  C   UNL     1      10.945   2.949  23.295  0.00  0.00    +0.243 C 
BRANCH  68  69
ATOM     69  N   UNL     1      10.263   4.155  23.744  0.00  0.00    -0.114 NA
ATOM     70  C   UNL     1      10.817   5.290  23.539  0.00  0.00    +0.376 C 
ATOM     71  N   UNL     1      10.191   6.413  23.950  0.00  0.00    -0.289 N 
ATOM     72  H   UNL     1      10.809   7.036  24.456  0.00  0.00    +0.255 HD
ATOM     73  H   UNL     1       9.391   6.165  24.522  0.00  0.00    +0.255 HD
ATOM     74  N   UNL     1      11.997   5.609  22.961  0.00  0.00    -0.289 N 
ATOM     75  H   UNL     1      11.959   6.488  22.462  0.00  0.00    +0.255 HD
ATOM     76  H   UNL     1      12.405   4.887  22.377  0.00  0.00    +0.255 HD
ENDBRANCH  68  69
ENDBRANCH  67  68
ENDBRANCH  66  67
ENDBRANCH  52  66
ENDBRANCH  49  52
ENDBRANCH  47  48
BRANCH  47  77
ATOM     77  C   UNL     1       5.689  -2.733  22.646  0.00  0.00    +0.015 C 
ATOM     78  C   UNL     1       5.771  -3.704  21.453  0.00  0.00    +0.010 C 
BRANCH  77  79
ATOM     79  C   UNL     1       4.788  -3.362  23.731  0.00  0.00    +0.002 C 
ATOM     80  C   UNL     1       4.224  -4.723  23.358  0.00  0.00    +0.004 C 
ENDBRANCH  77  79
ENDBRANCH  47  77
ENDBRANCH  44  47
ENDBRANCH   1  43
BRANCH   1  81
ATOM     81  C   UNL     1       9.253  -5.227  26.259  0.00  0.00    +0.031 C 
BRANCH  81  83
ATOM     82  C   UNL     1       8.692  -6.137  23.962  0.00  0.00    +0.004 C 
ATOM     83  C   UNL     1       9.796  -5.646  24.889  0.00  0.00    -0.001 C 
ENDBRANCH  81  83
ENDBRANCH   1  81
TORSDOF 31
ENDMDL
MODEL 2
REMARK VINA RESULT:      -4.0      2.971      7.505
REMARK  Name = 
REMARK  42 active torsions:
REMARK  status: ('A' for Active; 'I' for Inactive)
REMARK    1  A    between atoms: C_1  and  C_2
REMARK    2  A    between atoms: C_2  and  C_3
REMARK    3  A    between atoms: C_3  and  C_4
REMARK    4  A    between atoms: C_4  and  N_6
REMARK    5  A    between atoms: C_4  and  C_46
REMARK    6  A    between atoms: C_7  and  C_9
REMARK    7  A    between atoms: C_9  and  N_11
REMARK    8  A    between atoms: C_9  and  C_42
REMARK    9  A    between atoms: C_12  and  C_14
REMARK   10  A    between atoms: C_14  and  N_16
REMARK   11  A    between atoms: C_14  and  C_37
REMARK   12  A    between atoms: C_17  and  C_19
REMARK   13  A    between atoms: C_19  and  N_21
REMARK   14  A    between atoms: C_19  and  C_34
REMARK   15  A    between atoms: C_22  and  C_24
REMARK   16  A    between atoms: C_24  and  N_25
REMARK   17  A    between atoms: C_26  and  C_28
REMARK   18  A    between atoms: C_28  and  N_29
REMARK   19  A    between atoms: N_29  and  C_30
REMARK   20  A    between atoms: C_31  and  C_32
REMARK   21  A    between atoms: C_34  and  C_35
REMARK   22  A    between atoms: C_34  and  C_36
REMARK   23  A    between atoms: C_37  and  C_39
REMARK   24  A    between atoms: C_37  and  C_40
REMARK   25  A    between atoms: C_40  and  C_41
REMARK   26  A    between atoms: C_42  and  C_44
REMARK   27  A    between atoms: C_42  and  O_45
REMARK   28  A    between atoms: N_48  and  C_49
REMARK   29  A    between atoms: C_49  and  C_51
REMARK   30  A    between atoms: C_49  and  C_56
REMARK   31  A    between atoms: C_51  and  C_53
REMARK   32  A    between atoms: C_51  and  C_54
REMARK   33  A    between atoms: C_54  and  C_55
REMARK   34  A    between atoms: N_58  and  C_59
REMARK   35  A    between atoms: C_59  and  C_61
REMARK   36  A    between atoms: C_59  and  C_68
REMARK   37  A    between atoms: C_61  and  C_62
REMARK   38  A    between atoms: C_62  and  C_63
REMARK   39  A    between atoms: C_63  and  N_64
REMARK   40  A    between atoms: C_74  and  C_76
REMARK   41  A    between atoms: N_78  and  C_79
REMARK   42  A    between atoms: C_79  and  C_80
REMARK                            x       y       z     vdW  Elec       q    Type
REMARK                         _______ _______ _______ _____ _____    ______ ____
ROOT
ATOM      1  C   UNL     1       6.862  -2.219  22.895  0.00  0.00    +0.159 C 
ENDROOT
BRANCH   1   2
ATOM      2  N   UNL     1       7.875  -1.143  22.864  0.00  0.00    -0.302 N 
ATOM      3  H   UNL     1       8.845  -1.447  22.894  0.00  0.00    +0.150 HD
ATOM      4  C   UNL     1       7.586   0.198  23.033  0.00  0.00    +0.236 C 
ATOM      5  O   UNL     1       6.427   0.608  23.113  0.00  0.00    -0.274 OA
BRANCH   4   6
ATOM      6  C   UNL     1       8.805   1.173  23.003  0.00  0.00    +0.187 C 
BRANCH   6   7
ATOM      7  N   UNL     1       8.299   2.538  23.061  0.00  0.00    -0.300 N 
ATOM      8  H   UNL     1       7.786   2.842  22.230  0.00  0.00    +0.150 HD
ATOM      9  C   UNL     1       8.004   3.208  24.224  0.00  0.00    +0.234 C 
ATOM     10  O   UNL     1       8.338   2.787  25.330  0.00  0.00    -0.274 OA
BRANCH   9  11
ATOM     11  C   UNL     1       7.354   4.615  24.043  0.00  0.00    +0.162 C 
BRANCH  11  12
ATOM     12  N   UNL     1       5.874   4.645  23.933  0.00  0.00    -0.302 N 
ATOM     13  H   UNL     1       5.448   4.138  23.167  0.00  0.00    +0.150 HD
ATOM     14  C   UNL     1       5.085   5.553  24.601  0.00  0.00    +0.234 C 
ATOM     15  O   UNL     1       5.619   6.379  25.346  0.00  0.00    -0.274 OA
BRANCH  14  16
ATOM     16  C   UNL     1       3.554   5.500  24.434  0.00  0.00    +0.161 C 
BRANCH  16  17
ATOM     17  N   UNL     1       3.210   4.835  23.174  0.00  0.00    -0.302 N 
ATOM     18  H   UNL     1       3.313   3.826  23.117  0.00  0.00    +0.150 HD
ATOM     19  C   UNL     1       2.833   5.525  22.043  0.00  0.00    +0.231 C 
ATOM     20  O   UNL     1       2.880   6.749  21.952  0.00  0.00    -0.274 OA
BRANCH  19  21
ATOM     21  C   UNL     1       2.440   4.644  20.853  0.00  0.00    +0.200 C 
BRANCH  21  22
ATOM     22  N   UNL     1       1.976   5.465  19.749  0.00  0.00    -0.305 N 
ATOM     23  H   UNL     1       2.036   6.470  19.864  0.00  0.00    +0.149 HD
ATOM     24  C   UNL     1       1.749   4.923  18.499  0.00  0.00    +0.231 C 
ATOM     25  O   UNL     1       1.947   3.733  18.269  0.00  0.00    -0.274 OA
BRANCH  24  26
ATOM     26  C   UNL     1       1.312   5.957  17.433  0.00  0.00    +0.203 C 
BRANCH  26  27
ATOM     27  N   UNL     1       2.139   6.032  16.221  0.00  0.00    -0.296 N 
ATOM     28  C   UNL     1       2.020   5.263  15.074  0.00  0.00    +0.213 C 
ATOM     29  O   UNL     1       2.756   5.445  14.097  0.00  0.00    -0.276 OA
ATOM     30  C   UNL     1       0.949   4.207  14.961  0.00  0.00    +0.109 C 
ATOM     31  C   UNL     1       3.120   7.107  16.151  0.00  0.00    +0.132 C 
ENDBRANCH  26  27
ENDBRANCH  24  26
ENDBRANCH  21  22
ENDBRANCH  19  21
ENDBRANCH  16  17
BRANCH  16  32
ATOM     32  C   UNL     1       2.899   4.783  25.662  0.00  0.00    +0.012 C 
ATOM     33  C   UNL     1       2.552   5.687  26.859  0.00  0.00    +0.009 C 
ATOM     34  C   UNL     1       3.766   3.637  26.190  0.00  0.00    +0.009 C 
ENDBRANCH  16  32
ENDBRANCH  14  16
ENDBRANCH  11  12
BRANCH  11  35
ATOM     35  C   UNL     1       8.176   5.403  22.974  0.00  0.00    +0.015 C 
ATOM     36  C   UNL     1       7.382   6.179  21.915  0.00  0.00    +0.010 C 
BRANCH  35  37
ATOM     37  C   UNL     1       9.240   6.305  23.629  0.00  0.00    +0.002 C 
ATOM     38  C   UNL     1       9.105   6.337  25.149  0.00  0.00    +0.004 C 
ENDBRANCH  35  37
ENDBRANCH  11  35
ENDBRANCH   9  11
ENDBRANCH   6   7
BRANCH   6  39
ATOM     39  C   UNL     1       9.744   0.905  24.215  0.00  0.00    +0.141 C 
ATOM     40  C   UNL     1      10.229  -0.541  24.289  0.00  0.00    +0.040 C 
BRANCH  39  41
ATOM     41  O   UNL     1      10.926   1.721  24.165  0.00  0.00    -0.390 OA
ATOM     42  H   UNL     1      10.743   2.514  24.714  0.00  0.00    +0.210 HD
ENDBRANCH  39  41
ENDBRANCH   6  39
ENDBRANCH   4   6
ENDBRANCH   1   2
BRANCH   1  43
ATOM     43  C   UNL     1       6.839  -2.857  24.322  0.00  0.00    +0.234 C 
ATOM     44  N   UNL     1       6.164  -4.050  24.460  0.00  0.00    -0.302 N 
ATOM     45  H   UNL     1       5.733  -4.500  23.658  0.00  0.00    +0.150 HD
ATOM     46  O   UNL     1       7.379  -2.299  25.280  0.00  0.00    -0.274 OA
BRANCH  44  47
ATOM     47  C   UNL     1       6.059  -4.789  25.737  0.00  0.00    +0.162 C 
BRANCH  47  48
ATOM     48  C   UNL     1       5.054  -4.018  26.631  0.00  0.00    +0.234 C 
ATOM     49  N   UNL     1       4.419  -2.926  26.069  0.00  0.00    -0.302 N 
ATOM     50  H   UNL     1       4.617  -2.646  25.113  0.00  0.00    +0.150 HD
ATOM     51  O   UNL     1       4.808  -4.401  27.776  0.00  0.00    -0.274 OA
BRANCH  49  52
ATOM     52  C   UNL     1       3.332  -2.217  26.765  0.00  0.00    +0.159 C 
BRANCH  52  53
ATOM     53  C   UNL     1       3.869  -1.414  27.993  0.00  0.00    +0.237 C 
ATOM     54  N   UNL     1       4.570  -0.239  27.771  0.00  0.00    -0.288 N 
ATOM     55  C   UNL     1       5.264   0.480  28.867  0.00  0.00    +0.162 C 
ATOM     56  C   UNL     1       6.568   0.995  28.220  0.00  0.00    +0.033 C 
ATOM     57  C   UNL     1       6.563   0.467  26.790  0.00  0.00    +0.021 C 
ATOM     58  C   UNL     1       5.099   0.211  26.494  0.00  0.00    +0.109 C 
ATOM     59  O   UNL     1       3.631  -1.811  29.141  0.00  0.00    -0.274 OA
BRANCH  55  60
ATOM     60  C   UNL     1       4.516   1.692  29.484  0.00  0.00    +0.234 C 
ATOM     61  N   UNL     1       5.121   2.914  29.344  0.00  0.00    -0.314 N 
ATOM     62  H   UNL     1       5.827   3.007  28.628  0.00  0.00    +0.149 HD
ATOM     63  O   UNL     1       3.400   1.574  30.001  0.00  0.00    -0.274 OA
BRANCH  61  64
ATOM     64  C   UNL     1       4.576   4.116  29.950  0.00  0.00    +0.101 C 
ATOM     65  C   UNL     1       5.236   5.379  29.429  0.00  0.00    +0.024 C 
ENDBRANCH  61  64
ENDBRANCH  55  60
ENDBRANCH  52  53
BRANCH  52  66
ATOM     66  C   UNL     1       2.145  -3.141  27.114  0.00  0.00    +0.035 C 
BRANCH  66  67
ATOM     67  C   UNL     1       1.385  -3.758  25.933  0.00  0.00    +0.043 C 
BRANCH  67  68
ATOM     68  C   UNL     1       1.636  -5.248  25.750  0.00  0.00    +0.243 C 
BRANCH  68  69
ATOM     69  N   UNL     1       1.584  -5.939  27.031  0.00  0.00    -0.114 NA
ATOM     70  C   UNL     1       2.492  -6.798  27.306  0.00  0.00    +0.376 C 
ATOM     71  N   UNL     1       2.453  -7.441  28.492  0.00  0.00    -0.289 N 
ATOM     72  H   UNL     1       2.579  -8.441  28.393  0.00  0.00    +0.255 HD
ATOM     73  H   UNL     1       1.574  -7.238  28.959  0.00  0.00    +0.255 HD
ATOM     74  N   UNL     1       3.553  -7.228  26.587  0.00  0.00    -0.289 N 
ATOM     75  H   UNL     1       4.348  -7.457  27.168  0.00  0.00    +0.255 HD
ATOM     76  H   UNL     1       3.835  -6.623  25.823  0.00  0.00    +0.255 HD
ENDBRANCH  68  69
ENDBRANCH  67  68
ENDBRANCH  66  67
ENDBRANCH  52  66
ENDBRANCH  49  52
ENDBRANCH  47  48
BRANCH  47  77
ATOM     77  C   UNL     1       7.453  -4.938  26.418  0.00  0.00    +0.015 C 
ATOM     78  C   UNL     1       7.372  -5.692  27.758  0.00  0.00    +0.010 C 
BRANCH  77  79
ATOM     79  C   UNL     1       8.523  -5.616  25.535  0.00  0.00    +0.002 C 
ATOM     80  C   UNL     1       9.766  -4.770  25.306  0.00  0.00    +0.004 C 
ENDBRANCH  77  79
ENDBRANCH  47  77
ENDBRANCH  44  47
ENDBRANCH   1  43
BRANCH   1  81
ATOM     81  C   UNL     1       7.074  -3.258  21.775  0.00  0.00    +0.031 C 
BRANCH  81  83
ATOM     82  C   UNL     1       6.371  -5.590  21.079  0.00  0.00    +0.004 C 
ATOM     83  C   UNL     1       5.909  -4.240  21.611  0.00  0.00    -0.001 C 
ENDBRANCH  81  83
ENDBRANCH   1  81
TORSDOF 31
ENDMDL
MODEL 3
REMARK VINA RESULT:      -3.5      2.367      7.814
REMARK  Name = 
REMARK  42 active torsions:
REMARK  status: ('A' for Active; 'I' for Inactive)
REMARK    1  A    between atoms: C_1  and  C_2
REMARK    2  A    between atoms: C_2  and  C_3
REMARK    3  A    between atoms: C_3  and  C_4
REMARK    4  A    between atoms: C_4  and  N_6
REMARK    5  A    between atoms: C_4  and  C_46
REMARK    6  A    between atoms: C_7  and  C_9
REMARK    7  A    between atoms: C_9  and  N_11
REMARK    8  A    between atoms: C_9  and  C_42
REMARK    9  A    between atoms: C_12  and  C_14
REMARK   10  A    between atoms: C_14  and  N_16
REMARK   11  A    between atoms: C_14  and  C_37
REMARK   12  A    between atoms: C_17  and  C_19
REMARK   13  A    between atoms: C_19  and  N_21
REMARK   14  A    between atoms: C_19  and  C_34
REMARK   15  A    between atoms: C_22  and  C_24
REMARK   16  A    between atoms: C_24  and  N_25
REMARK   17  A    between atoms: C_26  and  C_28
REMARK   18  A    between atoms: C_28  and  N_29
REMARK   19  A    between atoms: N_29  and  C_30
REMARK   20  A    between atoms: C_31  and  C_32
REMARK   21  A    between atoms: C_34  and  C_35
REMARK   22  A    between atoms: C_34  and  C_36
REMARK   23  A    between atoms: C_37  and  C_39
REMARK   24  A    between atoms: C_37  and  C_40
REMARK   25  A    between atoms: C_40  and  C_41
REMARK   26  A    between atoms: C_42  and  C_44
REMARK   27  A    between atoms: C_42  and  O_45
REMARK   28  A    between atoms: N_48  and  C_49
REMARK   29  A    between atoms: C_49  and  C_51
REMARK   30  A    between atoms: C_49  and  C_56
REMARK   31  A    between atoms: C_51  and  C_53
REMARK   32  A    between atoms: C_51  and  C_54
REMARK   33  A    between atoms: C_54  and  C_55
REMARK   34  A    between atoms: N_58  and  C_59
REMARK   35  A    between atoms: C_59  and  C_61
REMARK   36  A    between atoms: C_59  and  C_68
REMARK   37  A    between atoms: C_61  and  C_62
REMARK   38  A    between atoms: C_62  and  C_63
REMARK   39  A    between atoms: C_63  and  N_64
REMARK   40  A    between atoms: C_74  and  C_76
REMARK   41  A    between atoms: N_78  and  C_79
REMARK   42  A    between atoms: C_79  and  C_80
REMARK                            x       y       z     vdW  Elec       q    Type
REMARK                         _______ _______ _______ _____ _____    ______ ____
ROOT
ATOM      1  C   UNL     1       6.147  -2.090  23.094  0.00  0.00    +0.159 C 
ENDROOT
BRANCH   1   2
ATOM      2  N   UNL     1       7.436  -1.370  23.014  0.00  0.00    -0.302 N 
ATOM      3  H   UNL     1       8.258  -1.903  23.286  0.00  0.00    +0.150 HD
ATOM      4  C   UNL     1       7.550  -0.005  22.831  0.00  0.00    +0.236 C 
ATOM      5  O   UNL     1       6.568   0.706  22.608  0.00  0.00    -0.274 OA
BRANCH   4   6
ATOM      6  C   UNL     1       9.003   0.566  22.812  0.00  0.00    +0.187 C 
BRANCH   6   7
ATOM      7  N   UNL     1       8.959   1.939  23.299  0.00  0.00    -0.300 N 
ATOM      8  H   UNL     1       8.868   2.651  22.571  0.00  0.00    +0.150 HD
ATOM      9  C   UNL     1       8.527   2.305  24.551  0.00  0.00    +0.234 C 
ATOM     10  O   UNL     1       8.333   1.485  25.447  0.00  0.00    -0.274 OA
BRANCH   9  11
ATOM     11  C   UNL     1       8.446   3.841  24.812  0.00  0.00    +0.162 C 
BRANCH  11  12
ATOM     12  N   UNL     1       7.324   4.304  25.667  0.00  0.00    -0.302 N 
ATOM     13  H   UNL     1       6.383   4.080  25.369  0.00  0.00    +0.150 HD
ATOM     14  C   UNL     1       7.464   5.263  26.643  0.00  0.00    +0.234 C 
ATOM     15  O   UNL     1       8.575   5.760  26.841  0.00  0.00    -0.274 OA
BRANCH  14  16
ATOM     16  C   UNL     1       6.243   5.671  27.489  0.00  0.00    +0.161 C 
BRANCH  16  17
ATOM     17  N   UNL     1       5.130   4.751  27.241  0.00  0.00    -0.302 N 
ATOM     18  H   UNL     1       5.069   3.905  27.801  0.00  0.00    +0.150 HD
ATOM     19  C   UNL     1       4.213   4.941  26.231  0.00  0.00    +0.231 C 
ATOM     20  O   UNL     1       4.324   5.815  25.375  0.00  0.00    -0.274 OA
BRANCH  19  21
ATOM     21  C   UNL     1       3.083   3.908  26.184  0.00  0.00    +0.200 C 
BRANCH  21  22
ATOM     22  N   UNL     1       2.109   4.271  25.170  0.00  0.00    -0.305 N 
ATOM     23  H   UNL     1       1.670   5.180  25.256  0.00  0.00    +0.149 HD
ATOM     24  C   UNL     1       2.003   3.559  23.991  0.00  0.00    +0.231 C 
ATOM     25  O   UNL     1       2.738   2.606  23.749  0.00  0.00    -0.274 OA
BRANCH  24  26
ATOM     26  C   UNL     1       0.951   4.124  23.006  0.00  0.00    +0.203 C 
BRANCH  26  27
ATOM     27  N   UNL     1       1.416   4.387  21.637  0.00  0.00    -0.296 N 
ATOM     28  C   UNL     1       1.852   5.595  21.115  0.00  0.00    +0.213 C 
ATOM     29  O   UNL     1       2.257   5.684  19.950  0.00  0.00    -0.276 OA
ATOM     30  C   UNL     1       1.894   6.835  21.972  0.00  0.00    +0.109 C 
ATOM     31  C   UNL     1       1.554   3.239  20.750  0.00  0.00    +0.132 C 
ENDBRANCH  26  27
ENDBRANCH  24  26
ENDBRANCH  21  22
ENDBRANCH  19  21
ENDBRANCH  16  17
BRANCH  16  32
ATOM     32  C   UNL     1       6.626   5.717  29.007  0.00  0.00    +0.012 C 
ATOM     33  C   UNL     1       6.804   4.352  29.696  0.00  0.00    +0.009 C 
ATOM     34  C   UNL     1       5.615   6.518  29.832  0.00  0.00    +0.009 C 
ENDBRANCH  16  32
ENDBRANCH  14  16
ENDBRANCH  11  12
BRANCH  11  35
ATOM     35  C   UNL     1       8.679   4.583  23.457  0.00  0.00    +0.015 C 
ATOM     36  C   UNL     1       7.432   5.011  22.673  0.00  0.00    +0.010 C 
BRANCH  35  37
ATOM     37  C   UNL     1       9.656   5.764  23.618  0.00  0.00    +0.002 C 
ATOM     38  C   UNL     1      11.104   5.298  23.733  0.00  0.00    +0.004 C 
ENDBRANCH  35  37
ENDBRANCH  11  35
ENDBRANCH   9  11
ENDBRANCH   6   7
BRANCH   6  39
ATOM     39  C   UNL     1       9.934  -0.288  23.719  0.00  0.00    +0.141 C 
ATOM     40  C   UNL     1      10.607  -1.438  22.974  0.00  0.00    +0.040 C 
BRANCH  39  41
ATOM     41  O   UNL     1      10.996   0.498  24.284  0.00  0.00    -0.390 OA
ATOM     42  H   UNL     1      11.837   0.099  23.973  0.00  0.00    +0.210 HD
ENDBRANCH  39  41
ENDBRANCH   6  39
ENDBRANCH   4   6
ENDBRANCH   1   2
BRANCH   1  43
ATOM     43  C   UNL     1       6.041  -2.792  24.487  0.00  0.00    +0.234 C 
ATOM     44  N   UNL     1       5.716  -4.132  24.486  0.00  0.00    -0.302 N 
ATOM     45  H   UNL     1       5.586  -4.635  23.614  0.00  0.00    +0.150 HD
ATOM     46  O   UNL     1       6.213  -2.164  25.534  0.00  0.00    -0.274 OA
BRANCH  44  47
ATOM     47  C   UNL     1       5.589  -4.944  25.716  0.00  0.00    +0.162 C 
BRANCH  47  48
ATOM     48  C   UNL     1       4.349  -4.419  26.485  0.00  0.00    +0.234 C 
ATOM     49  N   UNL     1       3.119  -4.557  25.870  0.00  0.00    -0.302 N 
ATOM     50  H   UNL     1       3.044  -4.979  24.949  0.00  0.00    +0.150 HD
ATOM     51  O   UNL     1       4.466  -3.944  27.616  0.00  0.00    -0.274 OA
BRANCH  49  52
ATOM     52  C   UNL     1       1.862  -4.243  26.569  0.00  0.00    +0.159 C 
BRANCH  52  53
ATOM     53  C   UNL     1       1.792  -2.733  26.967  0.00  0.00    +0.237 C 
ATOM     54  N   UNL     1       1.788  -2.393  28.311  0.00  0.00    -0.288 N 
ATOM     55  C   UNL     1       1.543  -1.004  28.768  0.00  0.00    +0.162 C 
ATOM     56  C   UNL     1       0.689  -1.168  30.045  0.00  0.00    +0.033 C 
ATOM     57  C   UNL     1       0.443  -2.666  30.194  0.00  0.00    +0.021 C 
ATOM     58  C   UNL     1       1.577  -3.307  29.421  0.00  0.00    +0.109 C 
ATOM     59  O   UNL     1       1.781  -1.864  26.086  0.00  0.00    -0.274 OA
BRANCH  55  60
ATOM     60  C   UNL     1       2.794  -0.160  29.126  0.00  0.00    +0.234 C 
ATOM     61  N   UNL     1       2.557   1.075  29.671  0.00  0.00    -0.314 N 
ATOM     62  H   UNL     1       1.646   1.243  30.071  0.00  0.00    +0.149 HD
ATOM     63  O   UNL     1       3.939  -0.607  29.002  0.00  0.00    -0.274 OA
BRANCH  61  64
ATOM     64  C   UNL     1       3.634   2.004  29.969  0.00  0.00    +0.101 C 
ATOM     65  C   UNL     1       3.178   3.450  29.937  0.00  0.00    +0.024 C 
ENDBRANCH  61  64
ENDBRANCH  55  60
ENDBRANCH  52  53
BRANCH  52  66
ATOM     66  C   UNL     1       1.581  -5.197  27.750  0.00  0.00    +0.035 C 
BRANCH  66  67
ATOM     67  C   UNL     1       0.571  -6.324  27.496  0.00  0.00    +0.043 C 
BRANCH  67  68
ATOM     68  C   UNL     1       1.204  -7.626  27.028  0.00  0.00    +0.243 C 
BRANCH  68  69
ATOM     69  N   UNL     1       2.195  -7.371  25.991  0.00  0.00    -0.114 NA
ATOM     70  C   UNL     1       2.138  -8.044  24.905  0.00  0.00    +0.376 C 
ATOM     71  N   UNL     1       3.050  -7.813  23.937  0.00  0.00    -0.289 N 
ATOM     72  H   UNL     1       3.455  -8.669  23.576  0.00  0.00    +0.255 HD
ATOM     73  H   UNL     1       3.777  -7.201  24.296  0.00  0.00    +0.255 HD
ATOM     74  N   UNL     1       1.290  -9.021  24.510  0.00  0.00    -0.289 N 
ATOM     75  H   UNL     1       1.114  -9.002  23.514  0.00  0.00    +0.255 HD
ATOM     76  H   UNL     1       0.418  -9.074  25.024  0.00  0.00    +0.255 HD
ENDBRANCH  68  69
ENDBRANCH  67  68
ENDBRANCH  66  67
ENDBRANCH  52  66
ENDBRANCH  49  52
ENDBRANCH  47  48
BRANCH  47  77
ATOM     77  C   UNL     1       6.886  -4.871  26.576  0.00  0.00    +0.015 C 
ATOM     78  C   UNL     1       6.783  -5.712  27.862  0.00  0.00    +0.010 C 
BRANCH  77  79
ATOM     79  C   UNL     1       8.172  -5.276  25.823  0.00  0.00    +0.002 C 
ATOM     80  C   UNL     1       9.152  -4.133  25.610  0.00  0.00    +0.004 C 
ENDBRANCH  77  79
ENDBRANCH  47  77
ENDBRANCH  44  47
ENDBRANCH   1  43
BRANCH   1  81
ATOM     81  C   UNL     1       5.942  -3.062  21.914  0.00  0.00    +0.031 C 
BRANCH  81  83
ATOM     82  C   UNL     1       6.522  -5.457  21.329  0.00  0.00    +0.004 C 
ATOM     83  C   UNL     1       7.059  -4.100  21.764  0.00  0.00    -0.001 C 
ENDBRANCH  81  83
ENDBRANCH   1  81
TORSDOF 31
ENDMDL
MODEL 4
REMARK VINA RESULT:      -3.4      2.469      7.440
REMARK  Name = 
REMARK  42 active torsions:
REMARK  status: ('A' for Active; 'I' for Inactive)
REMARK    1  A    between atoms: C_1  and  C_2
REMARK    2  A    between atoms: C_2  and  C_3
REMARK    3  A    between atoms: C_3  and  C_4
REMARK    4  A    between atoms: C_4  and  N_6
REMARK    5  A    between atoms: C_4  and  C_46
REMARK    6  A    between atoms: C_7  and  C_9
REMARK    7  A    between atoms: C_9  and  N_11
REMARK    8  A    between atoms: C_9  and  C_42
REMARK    9  A    between atoms: C_12  and  C_14
REMARK   10  A    between atoms: C_14  and  N_16
REMARK   11  A    between atoms: C_14  and  C_37
REMARK   12  A    between atoms: C_17  and  C_19
REMARK   13  A    between atoms: C_19  and  N_21
REMARK   14  A    between atoms: C_19  and  C_34
REMARK   15  A    between atoms: C_22  and  C_24
REMARK   16  A    between atoms: C_24  and  N_25
REMARK   17  A    between atoms: C_26  and  C_28
REMARK   18  A    between atoms: C_28  and  N_29
REMARK   19  A    between atoms: N_29  and  C_30
REMARK   20  A    between atoms: C_31  and  C_32
REMARK   21  A    between atoms: C_34  and  C_35
REMARK   22  A    between atoms: C_34  and  C_36
REMARK   23  A    between atoms: C_37  and  C_39
REMARK   24  A    between atoms: C_37  and  C_40
REMARK   25  A    between atoms: C_40  and  C_41
REMARK   26  A    between atoms: C_42  and  C_44
REMARK   27  A    between atoms: C_42  and  O_45
REMARK   28  A    between atoms: N_48  and  C_49
REMARK   29  A    between atoms: C_49  and  C_51
REMARK   30  A    between atoms: C_49  and  C_56
REMARK   31  A    between atoms: C_51  and  C_53
REMARK   32  A    between atoms: C_51  and  C_54
REMARK   33  A    between atoms: C_54  and  C_55
REMARK   34  A    between atoms: N_58  and  C_59
REMARK   35  A    between atoms: C_59  and  C_61
REMARK   36  A    between atoms: C_59  and  C_68
REMARK   37  A    between atoms: C_61  and  C_62
REMARK   38  A    between atoms: C_62  and  C_63
REMARK   39  A    between atoms: C_63  and  N_64
REMARK   40  A    between atoms: C_74  and  C_76
REMARK   41  A    between atoms: N_78  and  C_79
REMARK   42  A    between atoms: C_79  and  C_80
REMARK                            x       y       z     vdW  Elec       q    Type
REMARK                         _______ _______ _______ _____ _____    ______ ____
ROOT
ATOM      1  C   UNL     1       7.158   0.112  23.169  0.00  0.00    +0.159 C 
ENDROOT
BRANCH   1   2
ATOM      2  N   UNL     1       7.490   0.698  24.485  0.00  0.00    -0.302 N 
ATOM      3  H   UNL     1       8.384   0.419  24.882  0.00  0.00    +0.150 HD
ATOM      4  C   UNL     1       6.588   1.382  25.278  0.00  0.00    +0.236 C 
ATOM      5  O   UNL     1       5.451   1.651  24.887  0.00  0.00    -0.274 OA
BRANCH   4   6
ATOM      6  C   UNL     1       7.129   1.891  26.652  0.00  0.00    +0.187 C 
BRANCH   6   7
ATOM      7  N   UNL     1       6.144   2.804  27.220  0.00  0.00    -0.300 N 
ATOM      8  H   UNL     1       5.397   2.352  27.752  0.00  0.00    +0.150 HD
ATOM      9  C   UNL     1       6.395   4.116  27.535  0.00  0.00    +0.234 C 
ATOM     10  O   UNL     1       7.417   4.698  27.174  0.00  0.00    -0.274 OA
BRANCH   9  11
ATOM     11  C   UNL     1       5.231   4.870  28.250  0.00  0.00    +0.162 C 
BRANCH  11  12
ATOM     12  N   UNL     1       4.105   5.308  27.387  0.00  0.00    -0.302 N 
ATOM     13  H   UNL     1       4.233   6.149  26.837  0.00  0.00    +0.150 HD
ATOM     14  C   UNL     1       2.820   4.837  27.524  0.00  0.00    +0.234 C 
ATOM     15  O   UNL     1       2.580   3.994  28.392  0.00  0.00    -0.274 OA
BRANCH  14  16
ATOM     16  C   UNL     1       1.718   5.342  26.574  0.00  0.00    +0.161 C 
BRANCH  16  17
ATOM     17  N   UNL     1       2.290   6.264  25.588  0.00  0.00    -0.302 N 
ATOM     18  H   UNL     1       1.822   7.152  25.430  0.00  0.00    +0.150 HD
ATOM     19  C   UNL     1       3.382   5.946  24.813  0.00  0.00    +0.231 C 
ATOM     20  O   UNL     1       3.886   4.826  24.782  0.00  0.00    -0.274 OA
BRANCH  19  21
ATOM     21  C   UNL     1       3.872   7.073  23.898  0.00  0.00    +0.200 C 
BRANCH  21  22
ATOM     22  N   UNL     1       5.317   7.022  23.763  0.00  0.00    -0.305 N 
ATOM     23  H   UNL     1       5.847   6.744  24.581  0.00  0.00    +0.149 HD
ATOM     24  C   UNL     1       5.923   7.053  22.523  0.00  0.00    +0.231 C 
ATOM     25  O   UNL     1       5.264   7.107  21.488  0.00  0.00    -0.274 OA
BRANCH  24  26
ATOM     26  C   UNL     1       7.465   6.933  22.571  0.00  0.00    +0.203 C 
BRANCH  26  27
ATOM     27  N   UNL     1       8.004   5.669  23.095  0.00  0.00    -0.296 N 
ATOM     28  C   UNL     1       9.060   5.509  23.978  0.00  0.00    +0.213 C 
ATOM     29  O   UNL     1       9.400   4.389  24.378  0.00  0.00    -0.276 OA
ATOM     30  C   UNL     1       9.801   6.705  24.521  0.00  0.00    +0.109 C 
ATOM     31  C   UNL     1       7.285   4.449  22.753  0.00  0.00    +0.132 C 
ENDBRANCH  26  27
ENDBRANCH  24  26
ENDBRANCH  21  22
ENDBRANCH  19  21
ENDBRANCH  16  17
BRANCH  16  32
ATOM     32  C   UNL     1       1.000   4.134  25.885  0.00  0.00    +0.012 C 
ATOM     33  C   UNL     1       1.843   2.856  25.722  0.00  0.00    +0.009 C 
ATOM     34  C   UNL     1       0.453   4.500  24.502  0.00  0.00    +0.009 C 
ENDBRANCH  16  32
ENDBRANCH  14  16
ENDBRANCH  11  12
BRANCH  11  35
ATOM     35  C   UNL     1       5.851   5.923  29.223  0.00  0.00    +0.015 C 
ATOM     36  C   UNL     1       4.876   6.741  30.080  0.00  0.00    +0.010 C 
BRANCH  35  37
ATOM     37  C   UNL     1       6.960   5.304  30.096  0.00  0.00    +0.002 C 
ATOM     38  C   UNL     1       8.082   6.296  30.385  0.00  0.00    +0.004 C 
ENDBRANCH  35  37
ENDBRANCH  11  35
ENDBRANCH   9  11
ENDBRANCH   6   7
BRANCH   6  39
ATOM     39  C   UNL     1       7.362   0.696  27.620  0.00  0.00    +0.141 C 
ATOM     40  C   UNL     1       7.170   1.067  29.089  0.00  0.00    +0.040 C 
BRANCH  39  41
ATOM     41  O   UNL     1       6.454  -0.387  27.359  0.00  0.00    -0.390 OA
ATOM     42  H   UNL     1       5.751  -0.336  28.043  0.00  0.00    +0.210 HD
ENDBRANCH  39  41
ENDBRANCH   6  39
ENDBRANCH   4   6
ENDBRANCH   1   2
BRANCH   1  43
ATOM     43  C   UNL     1       6.837  -1.406  23.354  0.00  0.00    +0.234 C 
ATOM     44  N   UNL     1       7.541  -2.292  22.567  0.00  0.00    -0.302 N 
ATOM     45  H   UNL     1       8.257  -1.963  21.926  0.00  0.00    +0.150 HD
ATOM     46  O   UNL     1       5.972  -1.784  24.146  0.00  0.00    -0.274 OA
BRANCH  44  47
ATOM     47  C   UNL     1       7.366  -3.760  22.629  0.00  0.00    +0.162 C 
BRANCH  47  48
ATOM     48  C   UNL     1       5.857  -4.049  22.418  0.00  0.00    +0.234 C 
ATOM     49  N   UNL     1       5.138  -4.482  23.517  0.00  0.00    -0.302 N 
ATOM     50  H   UNL     1       5.591  -4.609  24.417  0.00  0.00    +0.150 HD
ATOM     51  O   UNL     1       5.326  -3.852  21.324  0.00  0.00    -0.274 OA
BRANCH  49  52
ATOM     52  C   UNL     1       3.674  -4.632  23.475  0.00  0.00    +0.159 C 
BRANCH  52  53
ATOM     53  C   UNL     1       3.017  -4.192  24.823  0.00  0.00    +0.237 C 
ATOM     54  N   UNL     1       3.748  -4.306  25.995  0.00  0.00    -0.288 N 
ATOM     55  C   UNL     1       3.136  -4.081  27.327  0.00  0.00    +0.162 C 
ATOM     56  C   UNL     1       3.794  -5.146  28.233  0.00  0.00    +0.033 C 
ATOM     57  C   UNL     1       4.703  -5.965  27.323  0.00  0.00    +0.021 C 
ATOM     58  C   UNL     1       4.990  -5.042  26.157  0.00  0.00    +0.109 C 
ATOM     59  O   UNL     1       1.875  -3.714  24.824  0.00  0.00    -0.274 OA
BRANCH  55  60
ATOM     60  C   UNL     1       3.365  -2.688  27.970  0.00  0.00    +0.234 C 
ATOM     61  N   UNL     1       2.239  -1.983  28.309  0.00  0.00    -0.314 N 
ATOM     62  H   UNL     1       1.375  -2.497  28.398  0.00  0.00    +0.149 HD
ATOM     63  O   UNL     1       4.498  -2.271  28.236  0.00  0.00    -0.274 OA
BRANCH  61  64
ATOM     64  C   UNL     1       2.307  -0.631  28.835  0.00  0.00    +0.101 C 
ATOM     65  C   UNL     1       1.178   0.246  28.329  0.00  0.00    +0.024 C 
ENDBRANCH  61  64
ENDBRANCH  55  60
ENDBRANCH  52  53
BRANCH  52  66
ATOM     66  C   UNL     1       3.230  -6.037  23.013  0.00  0.00    +0.035 C 
BRANCH  66  67
ATOM     67  C   UNL     1       1.731  -6.349  23.109  0.00  0.00    +0.043 C 
BRANCH  67  68
ATOM     68  C   UNL     1       1.422  -7.823  23.332  0.00  0.00    +0.243 C 
BRANCH  68  69
ATOM     69  N   UNL     1       0.615  -8.002  24.530  0.00  0.00    -0.114 NA
ATOM     70  C   UNL     1       1.204  -8.231  25.643  0.00  0.00    +0.376 C 
ATOM     71  N   UNL     1       0.465  -8.396  26.760  0.00  0.00    -0.289 N 
ATOM     72  H   UNL     1       0.746  -9.211  27.292  0.00  0.00    +0.255 HD
ATOM     73  H   UNL     1      -0.517  -8.458  26.509  0.00  0.00    +0.255 HD
ATOM     74  N   UNL     1       2.517  -8.363  25.940  0.00  0.00    -0.289 N 
ATOM     75  H   UNL     1       2.742  -8.015  26.862  0.00  0.00    +0.255 HD
ATOM     76  H   UNL     1       3.159  -7.985  25.252  0.00  0.00    +0.255 HD
ENDBRANCH  68  69
ENDBRANCH  67  68
ENDBRANCH  66  67
ENDBRANCH  52  66
ENDBRANCH  49  52
ENDBRANCH  47  48
BRANCH  47  77
ATOM     77  C   UNL     1       7.888  -4.334  23.979  0.00  0.00    +0.015 C 
ATOM     78  C   UNL     1       8.278  -5.820  23.872  0.00  0.00    +0.010 C 
BRANCH  77  79
ATOM     79  C   UNL     1       9.077  -3.556  24.584  0.00  0.00    +0.002 C 
ATOM     80  C   UNL     1       8.926  -3.244  26.065  0.00  0.00    +0.004 C 
ENDBRANCH  77  79
ENDBRANCH  47  77
ENDBRANCH  44  47
ENDBRANCH   1  43
BRANCH   1  81
ATOM     81  C   UNL     1       8.256   0.371  22.117  0.00  0.00    +0.031 C 
BRANCH  81  83
ATOM     82  C   UNL     1      10.217   1.941  22.438  0.00  0.00    +0.004 C 
ATOM     83  C   UNL     1       9.656   0.553  22.712  0.00  0.00    -0.001 C 
ENDBRANCH  81  83
ENDBRANCH   1  81
TORSDOF 31
ENDMDL
MODEL 5
REMARK VINA RESULT:      -3.4      2.206      7.446
REMARK  Name = 
REMARK  42 active torsions:
REMARK  status: ('A' for Active; 'I' for Inactive)
REMARK    1  A    between atoms: C_1  and  C_2
REMARK    2  A    between atoms: C_2  and  C_3
REMARK    3  A    between atoms: C_3  and  C_4
REMARK    4  A    between atoms: C_4  and  N_6
REMARK    5  A    between atoms: C_4  and  C_46
REMARK    6  A    between atoms: C_7  and  C_9
REMARK    7  A    between atoms: C_9  and  N_11
REMARK    8  A    between atoms: C_9  and  C_42
REMARK    9  A    between atoms: C_12  and  C_14
REMARK   10  A    between atoms: C_14  and  N_16
REMARK   11  A    between atoms: C_14  and  C_37
REMARK   12  A    between atoms: C_17  and  C_19
REMARK   13  A    between atoms: C_19  and  N_21
REMARK   14  A    between atoms: C_19  and  C_34
REMARK   15  A    between atoms: C_22  and  C_24
REMARK   16  A    between atoms: C_24  and  N_25
REMARK   17  A    between atoms: C_26  and  C_28
REMARK   18  A    between atoms: C_28  and  N_29
REMARK   19  A    between atoms: N_29  and  C_30
REMARK   20  A    between atoms: C_31  and  C_32
REMARK   21  A    between atoms: C_34  and  C_35
REMARK   22  A    between atoms: C_34  and  C_36
REMARK   23  A    between atoms: C_37  and  C_39
REMARK   24  A    between atoms: C_37  and  C_40
REMARK   25  A    between atoms: C_40  and  C_41
REMARK   26  A    between atoms: C_42  and  C_44
REMARK   27  A    between atoms: C_42  and  O_45
REMARK   28  A    between atoms: N_48  and  C_49
REMARK   29  A    between atoms: C_49  and  C_51
REMARK   30  A    between atoms: C_49  and  C_56
REMARK   31  A    between atoms: C_51  and  C_53
REMARK   32  A    between atoms: C_51  and  C_54
REMARK   33  A    between atoms: C_54  and  C_55
REMARK   34  A    between atoms: N_58  and  C_59
REMARK   35  A    between atoms: C_59  and  C_61
REMARK   36  A    between atoms: C_59  and  C_68
REMARK   37  A    between atoms: C_61  and  C_62
REMARK   38  A    between atoms: C_62  and  C_63
REMARK   39  A    between atoms: C_63  and  N_64
REMARK   40  A    between atoms: C_74  and  C_76
REMARK   41  A    between atoms: N_78  and  C_79
REMARK   42  A    between atoms: C_79  and  C_80
REMARK                            x       y       z     vdW  Elec       q    Type
REMARK                         _______ _______ _______ _____ _____    ______ ____
ROOT
ATOM      1  C   UNL     1       5.846  -2.013  23.422  0.00  0.00    +0.159 C 
ENDROOT
BRANCH   1   2
ATOM      2  N   UNL     1       7.183  -1.382  23.453  0.00  0.00    -0.302 N 
ATOM      3  H   UNL     1       7.896  -1.883  23.978  0.00  0.00    +0.150 HD
ATOM      4  C   UNL     1       7.440  -0.091  23.033  0.00  0.00    +0.236 C 
ATOM      5  O   UNL     1       6.576   0.600  22.489  0.00  0.00    -0.274 OA
BRANCH   4   6
ATOM      6  C   UNL     1       8.914   0.400  23.184  0.00  0.00    +0.187 C 
BRANCH   6   7
ATOM      7  N   UNL     1       8.892   1.737  23.765  0.00  0.00    -0.300 N 
ATOM      8  H   UNL     1       9.156   2.489  23.124  0.00  0.00    +0.150 HD
ATOM      9  C   UNL     1       8.108   2.106  24.831  0.00  0.00    +0.234 C 
ATOM     10  O   UNL     1       7.506   1.287  25.522  0.00  0.00    -0.274 OA
BRANCH   9  11
ATOM     11  C   UNL     1       8.152   3.621  25.204  0.00  0.00    +0.162 C 
BRANCH  11  12
ATOM     12  N   UNL     1       6.891   4.205  25.726  0.00  0.00    -0.302 N 
ATOM     13  H   UNL     1       6.061   4.120  25.153  0.00  0.00    +0.150 HD
ATOM     14  C   UNL     1       6.849   5.107  26.764  0.00  0.00    +0.234 C 
ATOM     15  O   UNL     1       7.903   5.442  27.310  0.00  0.00    -0.274 OA
BRANCH  14  16
ATOM     16  C   UNL     1       5.490   5.651  27.245  0.00  0.00    +0.161 C 
BRANCH  16  17
ATOM     17  N   UNL     1       4.406   4.793  26.760  0.00  0.00    -0.302 N 
ATOM     18  H   UNL     1       4.180   3.955  27.288  0.00  0.00    +0.150 HD
ATOM     19  C   UNL     1       3.737   5.029  25.579  0.00  0.00    +0.231 C 
ATOM     20  O   UNL     1       4.076   5.892  24.772  0.00  0.00    -0.274 OA
BRANCH  19  21
ATOM     21  C   UNL     1       2.586   4.062  25.286  0.00  0.00    +0.200 C 
BRANCH  21  22
ATOM     22  N   UNL     1       1.741   4.588  24.229  0.00  0.00    -0.305 N 
ATOM     23  H   UNL     1       1.682   5.596  24.144  0.00  0.00    +0.149 HD
ATOM     24  C   UNL     1       1.283   3.778  23.208  0.00  0.00    +0.231 C 
ATOM     25  O   UNL     1       1.587   2.589  23.146  0.00  0.00    -0.274 OA
BRANCH  24  26
ATOM     26  C   UNL     1       0.444   4.522  22.142  0.00  0.00    +0.203 C 
BRANCH  26  27
ATOM     27  N   UNL     1       0.920   4.427  20.754  0.00  0.00    -0.296 N 
ATOM     28  C   UNL     1       1.692   5.350  20.067  0.00  0.00    +0.213 C 
ATOM     29  O   UNL     1       2.065   5.140  18.906  0.00  0.00    -0.276 OA
ATOM     30  C   UNL     1       2.147   6.625  20.732  0.00  0.00    +0.109 C 
ATOM     31  C   UNL     1       0.664   3.179  20.048  0.00  0.00    +0.132 C 
ENDBRANCH  26  27
ENDBRANCH  24  26
ENDBRANCH  21  22
ENDBRANCH  19  21
ENDBRANCH  16  17
BRANCH  16  32
ATOM     32  C   UNL     1       5.476   5.770  28.806  0.00  0.00    +0.012 C 
ATOM     33  C   UNL     1       4.085   5.846  29.461  0.00  0.00    +0.009 C 
ATOM     34  C   UNL     1       6.280   6.977  29.299  0.00  0.00    +0.009 C 
ENDBRANCH  16  32
ENDBRANCH  14  16
ENDBRANCH  11  12
BRANCH  11  35
ATOM     35  C   UNL     1       8.887   4.388  24.059  0.00  0.00    +0.015 C 
ATOM     36  C   UNL     1       8.016   5.202  23.093  0.00  0.00    +0.010 C 
BRANCH  35  37
ATOM     37  C   UNL     1      10.046   5.246  24.605  0.00  0.00    +0.002 C 
ATOM     38  C   UNL     1      10.863   5.884  23.486  0.00  0.00    +0.004 C 
ENDBRANCH  35  37
ENDBRANCH  11  35
ENDBRANCH   9  11
ENDBRANCH   6   7
BRANCH   6  39
ATOM     39  C   UNL     1       9.716  -0.564  24.104  0.00  0.00    +0.141 C 
ATOM     40  C   UNL     1      10.675  -1.469  23.334  0.00  0.00    +0.040 C 
BRANCH  39  41
ATOM     41  O   UNL     1      10.520   0.152  25.056  0.00  0.00    -0.390 OA
ATOM     42  H   UNL     1      10.609   1.069  24.716  0.00  0.00    +0.210 HD
ENDBRANCH  39  41
ENDBRANCH   6  39
ENDBRANCH   4   6
ENDBRANCH   1   2
BRANCH   1  43
ATOM     43  C   UNL     1       5.526  -2.601  24.834  0.00  0.00    +0.234 C 
ATOM     44  N   UNL     1       4.825  -3.787  24.872  0.00  0.00    -0.302 N 
ATOM     45  H   UNL     1       4.564  -4.264  24.014  0.00  0.00    +0.150 HD
ATOM     46  O   UNL     1       5.862  -2.010  25.863  0.00  0.00    -0.274 OA
BRANCH  44  47
ATOM     47  C   UNL     1       4.455  -4.480  26.125  0.00  0.00    +0.162 C 
BRANCH  47  48
ATOM     48  C   UNL     1       3.836  -3.418  27.069  0.00  0.00    +0.234 C 
ATOM     49  N   UNL     1       2.745  -2.713  26.597  0.00  0.00    -0.302 N 
ATOM     50  H   UNL     1       2.378  -2.886  25.666  0.00  0.00    +0.150 HD
ATOM     51  O   UNL     1       4.280  -3.253  28.207  0.00  0.00    -0.274 OA
BRANCH  49  52
ATOM     52  C   UNL     1       1.980  -1.798  27.461  0.00  0.00    +0.159 C 
BRANCH  52  53
ATOM     53  C   UNL     1       2.613  -0.369  27.481  0.00  0.00    +0.237 C 
ATOM     54  N   UNL     1       2.323   0.479  28.538  0.00  0.00    -0.288 N 
ATOM     55  C   UNL     1       2.735   1.903  28.539  0.00  0.00    +0.162 C 
ATOM     56  C   UNL     1       1.548   2.644  29.193  0.00  0.00    +0.033 C 
ATOM     57  C   UNL     1       0.489   1.580  29.463  0.00  0.00    +0.021 C 
ATOM     58  C   UNL     1       1.272   0.285  29.524  0.00  0.00    +0.109 C 
ATOM     59  O   UNL     1       3.390  -0.028  26.580  0.00  0.00    -0.274 OA
BRANCH  55  60
ATOM     60  C   UNL     1       4.021   2.253  29.333  0.00  0.00    +0.234 C 
ATOM     61  N   UNL     1       5.206   2.125  28.655  0.00  0.00    -0.314 N 
ATOM     62  H   UNL     1       5.168   2.104  27.647  0.00  0.00    +0.149 HD
ATOM     63  O   UNL     1       3.976   2.698  30.485  0.00  0.00    -0.274 OA
BRANCH  61  64
ATOM     64  C   UNL     1       6.489   2.333  29.304  0.00  0.00    +0.101 C 
ATOM     65  C   UNL     1       7.398   1.124  29.194  0.00  0.00    +0.024 C 
ENDBRANCH  61  64
ENDBRANCH  55  60
ENDBRANCH  52  53
BRANCH  52  66
ATOM     66  C   UNL     1       1.734  -2.374  28.871  0.00  0.00    +0.035 C 
BRANCH  66  67
ATOM     67  C   UNL     1       0.661  -3.464  28.990  0.00  0.00    +0.043 C 
BRANCH  67  68
ATOM     68  C   UNL     1       0.880  -4.421  30.154  0.00  0.00    +0.243 C 
BRANCH  68  69
ATOM     69  N   UNL     1       1.096  -5.777  29.669  0.00  0.00    -0.114 NA
ATOM     70  C   UNL     1       2.285  -6.250  29.669  0.00  0.00    +0.376 C 
ATOM     71  N   UNL     1       2.495  -7.507  29.224  0.00  0.00    -0.289 N 
ATOM     72  H   UNL     1       3.269  -7.561  28.573  0.00  0.00    +0.255 HD
ATOM     73  H   UNL     1       1.645  -7.861  28.796  0.00  0.00    +0.255 HD
ATOM     74  N   UNL     1       3.460  -5.695  30.043  0.00  0.00    -0.289 N 
ATOM     75  H   UNL     1       4.098  -6.371  30.441  0.00  0.00    +0.255 HD
ATOM     76  H   UNL     1       3.385  -4.881  30.644  0.00  0.00    +0.255 HD
ENDBRANCH  68  69
ENDBRANCH  67  68
ENDBRANCH  66  67
ENDBRANCH  52  66
ENDBRANCH  49  52
ENDBRANCH  47  48
BRANCH  47  77
ATOM     77  C   UNL     1       5.688  -5.185  26.765  0.00  0.00    +0.015 C 
ATOM     78  C   UNL     1       5.360  -6.606  27.259  0.00  0.00    +0.010 C 
BRANCH  77  79
ATOM     79  C   UNL     1       6.928  -5.257  25.846  0.00  0.00    +0.002 C 
ATOM     80  C   UNL     1       8.251  -5.081  26.574  0.00  0.00    +0.004 C 
ENDBRANCH  77  79
ENDBRANCH  47  77
ENDBRANCH  44  47
ENDBRANCH   1  43
BRANCH   1  81
ATOM     81  C   UNL     1       5.715  -3.056  22.293  0.00  0.00    +0.031 C 
BRANCH  81  83
ATOM     82  C   UNL     1       6.958  -5.263  22.292  0.00  0.00    +0.004 C 
ATOM     83  C   UNL     1       7.024  -3.778  21.960  0.00  0.00    -0.001 C 
ENDBRANCH  81  83
ENDBRANCH   1  81
TORSDOF 31
ENDMDL
MODEL 6
REMARK VINA RESULT:      -3.4      2.762      7.871
REMARK  Name = 
REMARK  42 active torsions:
REMARK  status: ('A' for Active; 'I' for Inactive)
REMARK    1  A    between atoms: C_1  and  C_2
REMARK    2  A    between atoms: C_2  and  C_3
REMARK    3  A    between atoms: C_3  and  C_4
REMARK    4  A    between atoms: C_4  and  N_6
REMARK    5  A    between atoms: C_4  and  C_46
REMARK    6  A    between atoms: C_7  and  C_9
REMARK    7  A    between atoms: C_9  and  N_11
REMARK    8  A    between atoms: C_9  and  C_42
REMARK    9  A    between atoms: C_12  and  C_14
REMARK   10  A    between atoms: C_14  and  N_16
REMARK   11  A    between atoms: C_14  and  C_37
REMARK   12  A    between atoms: C_17  and  C_19
REMARK   13  A    between atoms: C_19  and  N_21
REMARK   14  A    between atoms: C_19  and  C_34
REMARK   15  A    between atoms: C_22  and  C_24
REMARK   16  A    between atoms: C_24  and  N_25
REMARK   17  A    between atoms: C_26  and  C_28
REMARK   18  A    between atoms: C_28  and  N_29
REMARK   19  A    between atoms: N_29  and  C_30
REMARK   20  A    between atoms: C_31  and  C_32
REMARK   21  A    between atoms: C_34  and  C_35
REMARK   22  A    between atoms: C_34  and  C_36
REMARK   23  A    between atoms: C_37  and  C_39
REMARK   24  A    between atoms: C_37  and  C_40
REMARK   25  A    between atoms: C_40  and  C_41
REMARK   26  A    between atoms: C_42  and  C_44
REMARK   27  A    between atoms: C_42  and  O_45
REMARK   28  A    between atoms: N_48  and  C_49
REMARK   29  A    between atoms: C_49  and  C_51
REMARK   30  A    between atoms: C_49  and  C_56
REMARK   31  A    between atoms: C_51  and  C_53
REMARK   32  A    between atoms: C_51  and  C_54
REMARK   33  A    between atoms: C_54  and  C_55
REMARK   34  A    between atoms: N_58  and  C_59
REMARK   35  A    between atoms: C_59  and  C_61
REMARK   36  A    between atoms: C_59  and  C_68
REMARK   37  A    between atoms: C_61  and  C_62
REMARK   38  A    between atoms: C_62  and  C_63
REMARK   39  A    between atoms: C_63  and  N_64
REMARK   40  A    between atoms: C_74  and  C_76
REMARK   41  A    between atoms: N_78  and  C_79
REMARK   42  A    between atoms: C_79  and  C_80
REMARK                            x       y       z     vdW  Elec       q    Type
REMARK                         _______ _______ _______ _____ _____    ______ ____
ROOT
ATOM      1  C   UNL     1       6.856  -0.624  23.758  0.00  0.00    +0.159 C 
ENDROOT
BRANCH   1   2
ATOM      2  N   UNL     1       7.092   0.170  24.983  0.00  0.00    -0.302 N 
ATOM      3  H   UNL     1       7.893  -0.108  25.544  0.00  0.00    +0.150 HD
ATOM      4  C   UNL     1       6.184   1.070  25.509  0.00  0.00    +0.236 C 
ATOM      5  O   UNL     1       5.141   1.361  24.921  0.00  0.00    -0.274 OA
BRANCH   4   6
ATOM      6  C   UNL     1       6.609   1.780  26.833  0.00  0.00    +0.187 C 
BRANCH   6   7
ATOM      7  N   UNL     1       5.605   2.787  27.153  0.00  0.00    -0.300 N 
ATOM      8  H   UNL     1       4.654   2.426  27.263  0.00  0.00    +0.150 HD
ATOM      9  C   UNL     1       5.872   3.973  27.792  0.00  0.00    +0.234 C 
ATOM     10  O   UNL     1       7.017   4.385  27.966  0.00  0.00    -0.274 OA
BRANCH   9  11
ATOM     11  C   UNL     1       4.624   4.842  28.146  0.00  0.00    +0.162 C 
BRANCH  11  12
ATOM     12  N   UNL     1       3.999   5.582  27.022  0.00  0.00    -0.302 N 
ATOM     13  H   UNL     1       4.096   6.589  27.010  0.00  0.00    +0.150 HD
ATOM     14  C   UNL     1       3.052   5.032  26.189  0.00  0.00    +0.234 C 
ATOM     15  O   UNL     1       2.709   3.859  26.362  0.00  0.00    -0.274 OA
BRANCH  14  16
ATOM     16  C   UNL     1       2.467   5.874  25.040  0.00  0.00    +0.161 C 
BRANCH  16  17
ATOM     17  N   UNL     1       3.532   6.642  24.389  0.00  0.00    -0.302 N 
ATOM     18  H   UNL     1       3.321   7.582  24.065  0.00  0.00    +0.150 HD
ATOM     19  C   UNL     1       4.778   6.118  24.124  0.00  0.00    +0.231 C 
ATOM     20  O   UNL     1       5.060   4.933  24.286  0.00  0.00    -0.274 OA
BRANCH  19  21
ATOM     21  C   UNL     1       5.774   7.104  23.507  0.00  0.00    +0.200 C 
BRANCH  21  22
ATOM     22  N   UNL     1       7.075   6.969  24.137  0.00  0.00    -0.305 N 
ATOM     23  H   UNL     1       7.108   7.041  25.147  0.00  0.00    +0.149 HD
ATOM     24  C   UNL     1       8.160   6.471  23.442  0.00  0.00    +0.231 C 
ATOM     25  O   UNL     1       8.061   6.109  22.272  0.00  0.00    -0.274 OA
BRANCH  24  26
ATOM     26  C   UNL     1       9.448   6.346  24.290  0.00  0.00    +0.203 C 
BRANCH  26  27
ATOM     27  N   UNL     1      10.405   5.312  23.871  0.00  0.00    -0.296 N 
ATOM     28  C   UNL     1      10.200   3.941  23.840  0.00  0.00    +0.213 C 
ATOM     29  O   UNL     1      11.075   3.169  23.430  0.00  0.00    -0.276 OA
ATOM     30  C   UNL     1       8.878   3.349  24.259  0.00  0.00    +0.109 C 
ATOM     31  C   UNL     1      11.672   5.766  23.313  0.00  0.00    +0.132 C 
ENDBRANCH  26  27
ENDBRANCH  24  26
ENDBRANCH  21  22
ENDBRANCH  19  21
ENDBRANCH  16  17
BRANCH  16  32
ATOM     32  C   UNL     1       1.714   4.954  24.022  0.00  0.00    +0.012 C 
ATOM     33  C   UNL     1       2.596   4.240  22.982  0.00  0.00    +0.009 C 
ATOM     34  C   UNL     1       0.626   5.712  23.255  0.00  0.00    +0.009 C 
ENDBRANCH  16  32
ENDBRANCH  14  16
ENDBRANCH  11  12
BRANCH  11  35
ATOM     35  C   UNL     1       4.935   5.637  29.454  0.00  0.00    +0.015 C 
ATOM     36  C   UNL     1       5.350   7.106  29.296  0.00  0.00    +0.010 C 
BRANCH  35  37
ATOM     37  C   UNL     1       3.797   5.499  30.485  0.00  0.00    +0.002 C 
ATOM     38  C   UNL     1       2.716   4.529  30.017  0.00  0.00    +0.004 C 
ENDBRANCH  35  37
ENDBRANCH  11  35
ENDBRANCH   9  11
ENDBRANCH   6   7
BRANCH   6  39
ATOM     39  C   UNL     1       6.713   0.749  27.993  0.00  0.00    +0.141 C 
ATOM     40  C   UNL     1       5.364   0.426  28.631  0.00  0.00    +0.040 C 
BRANCH  39  41
ATOM     41  O   UNL     1       7.254  -0.505  27.545  0.00  0.00    -0.390 OA
ATOM     42  H   UNL     1       6.559  -1.182  27.700  0.00  0.00    +0.210 HD
ENDBRANCH  39  41
ENDBRANCH   6  39
ENDBRANCH   4   6
ENDBRANCH   1   2
BRANCH   1  43
ATOM     43  C   UNL     1       6.120  -1.947  24.142  0.00  0.00    +0.234 C 
ATOM     44  N   UNL     1       6.739  -3.128  23.793  0.00  0.00    -0.302 N 
ATOM     45  H   UNL     1       7.647  -3.125  23.338  0.00  0.00    +0.150 HD
ATOM     46  O   UNL     1       5.023  -1.928  24.704  0.00  0.00    -0.274 OA
BRANCH  44  47
ATOM     47  C   UNL     1       6.182  -4.465  24.094  0.00  0.00    +0.162 C 
BRANCH  47  48
ATOM     48  C   UNL     1       4.733  -4.491  23.543  0.00  0.00    +0.234 C 
ATOM     49  N   UNL     1       3.714  -4.689  24.456  0.00  0.00    -0.302 N 
ATOM     50  H   UNL     1       3.918  -4.818  25.443  0.00  0.00    +0.150 HD
ATOM     51  O   UNL     1       4.511  -4.296  22.347  0.00  0.00    -0.274 OA
BRANCH  49  52
ATOM     52  C   UNL     1       2.296  -4.573  24.074  0.00  0.00    +0.159 C 
BRANCH  52  53
ATOM     53  C   UNL     1       1.471  -3.822  25.168  0.00  0.00    +0.237 C 
ATOM     54  N   UNL     1       1.606  -4.206  26.493  0.00  0.00    -0.288 N 
ATOM     55  C   UNL     1       0.728  -3.669  27.560  0.00  0.00    +0.162 C 
ATOM     56  C   UNL     1       0.477  -4.875  28.492  0.00  0.00    +0.033 C 
ATOM     57  C   UNL     1       1.187  -6.058  27.843  0.00  0.00    +0.021 C 
ATOM     58  C   UNL     1       2.246  -5.422  26.968  0.00  0.00    +0.109 C 
ATOM     59  O   UNL     1       0.741  -2.875  24.846  0.00  0.00    -0.274 OA
BRANCH  55  60
ATOM     60  C   UNL     1       1.303  -2.508  28.414  0.00  0.00    +0.234 C 
ATOM     61  N   UNL     1       0.989  -1.238  28.003  0.00  0.00    -0.314 N 
ATOM     62  H   UNL     1       0.199  -1.130  27.384  0.00  0.00    +0.149 HD
ATOM     63  O   UNL     1       1.942  -2.716  29.451  0.00  0.00    -0.274 OA
BRANCH  61  64
ATOM     64  C   UNL     1       1.534  -0.061  28.656  0.00  0.00    +0.101 C 
ATOM     65  C   UNL     1       1.810   1.068  27.682  0.00  0.00    +0.024 C 
ENDBRANCH  61  64
ENDBRANCH  55  60
ENDBRANCH  52  53
BRANCH  52  66
ATOM     66  C   UNL     1       1.675  -5.925  23.665  0.00  0.00    +0.035 C 
BRANCH  66  67
ATOM     67  C   UNL     1       2.609  -7.142  23.681  0.00  0.00    +0.043 C 
BRANCH  67  68
ATOM     68  C   UNL     1       1.898  -8.462  23.946  0.00  0.00    +0.243 C 
BRANCH  68  69
ATOM     69  N   UNL     1       1.590  -8.604  25.362  0.00  0.00    -0.114 NA
ATOM     70  C   UNL     1       1.165  -9.732  25.791  0.00  0.00    +0.376 C 
ATOM     71  N   UNL     1       0.879  -9.874  27.102  0.00  0.00    -0.289 N 
ATOM     72  H   UNL     1      -0.020 -10.316  27.255  0.00  0.00    +0.255 HD
ATOM     73  H   UNL     1       0.910  -8.966  27.556  0.00  0.00    +0.255 HD
ATOM     74  N   UNL     1       0.918 -10.892  25.141  0.00  0.00    -0.289 N 
ATOM     75  H   UNL     1       1.113 -11.704  25.710  0.00  0.00    +0.255 HD
ATOM     76  H   UNL     1       1.357 -10.983  24.231  0.00  0.00    +0.255 HD
ENDBRANCH  68  69
ENDBRANCH  67  68
ENDBRANCH  66  67
ENDBRANCH  52  66
ENDBRANCH  49  52
ENDBRANCH  47  48
BRANCH  47  77
ATOM     77  C   UNL     1       6.232  -4.766  25.622  0.00  0.00    +0.015 C 
ATOM     78  C   UNL     1       5.761  -6.193  25.954  0.00  0.00    +0.010 C 
BRANCH  77  79
ATOM     79  C   UNL     1       7.616  -4.541  26.270  0.00  0.00    +0.002 C 
ATOM     80  C   UNL     1       8.755  -5.261  25.565  0.00  0.00    +0.004 C 
ENDBRANCH  77  79
ENDBRANCH  47  77
ENDBRANCH  44  47
ENDBRANCH   1  43
BRANCH   1  81
ATOM     81  C   UNL     1       8.152  -0.866  22.957  0.00  0.00    +0.031 C 
BRANCH  81  83
ATOM     82  C   UNL     1       7.487   1.044  21.432  0.00  0.00    +0.004 C 
ATOM     83  C   UNL     1       8.630   0.355  22.166  0.00  0.00    -0.001 C 
ENDBRANCH  81  83
ENDBRANCH   1  81
TORSDOF 31
ENDMDL
MODEL 7
REMARK VINA RESULT:      -3.1      2.254      6.472
REMARK  Name = 
REMARK  42 active torsions:
REMARK  status: ('A' for Active; 'I' for Inactive)
REMARK    1  A    between atoms: C_1  and  C_2
REMARK    2  A    between atoms: C_2  and  C_3
REMARK    3  A    between atoms: C_3  and  C_4
REMARK    4  A    between atoms: C_4  and  N_6
REMARK    5  A    between atoms: C_4  and  C_46
REMARK    6  A    between atoms: C_7  and  C_9
REMARK    7  A    between atoms: C_9  and  N_11
REMARK    8  A    between atoms: C_9  and  C_42
REMARK    9  A    between atoms: C_12  and  C_14
REMARK   10  A    between atoms: C_14  and  N_16
REMARK   11  A    between atoms: C_14  and  C_37
REMARK   12  A    between atoms: C_17  and  C_19
REMARK   13  A    between atoms: C_19  and  N_21
REMARK   14  A    between atoms: C_19  and  C_34
REMARK   15  A    between atoms: C_22  and  C_24
REMARK   16  A    between atoms: C_24  and  N_25
REMARK   17  A    between atoms: C_26  and  C_28
REMARK   18  A    between atoms: C_28  and  N_29
REMARK   19  A    between atoms: N_29  and  C_30
REMARK   20  A    between atoms: C_31  and  C_32
REMARK   21  A    between atoms: C_34  and  C_35
REMARK   22  A    between atoms: C_34  and  C_36
REMARK   23  A    between atoms: C_37  and  C_39
REMARK   24  A    between atoms: C_37  and  C_40
REMARK   25  A    between atoms: C_40  and  C_41
REMARK   26  A    between atoms: C_42  and  C_44
REMARK   27  A    between atoms: C_42  and  O_45
REMARK   28  A    between atoms: N_48  and  C_49
REMARK   29  A    between atoms: C_49  and  C_51
REMARK   30  A    between atoms: C_49  and  C_56
REMARK   31  A    between atoms: C_51  and  C_53
REMARK   32  A    between atoms: C_51  and  C_54
REMARK   33  A    between atoms: C_54  and  C_55
REMARK   34  A    between atoms: N_58  and  C_59
REMARK   35  A    between atoms: C_59  and  C_61
REMARK   36  A    between atoms: C_59  and  C_68
REMARK   37  A    between atoms: C_61  and  C_62
REMARK   38  A    between atoms: C_62  and  C_63
REMARK   39  A    between atoms: C_63  and  N_64
REMARK   40  A    between atoms: C_74  and  C_76
REMARK   41  A    between atoms: N_78  and  C_79
REMARK   42  A    between atoms: C_79  and  C_80
REMARK                            x       y       z     vdW  Elec       q    Type
REMARK                         _______ _______ _______ _____ _____    ______ ____
ROOT
ATOM      1  C   UNL     1       5.422  -3.269  23.740  0.00  0.00    +0.159 C 
ENDROOT
BRANCH   1   2
ATOM      2  N   UNL     1       6.556  -2.627  24.439  0.00  0.00    -0.302 N 
ATOM      3  H   UNL     1       6.542  -2.690  25.455  0.00  0.00    +0.150 HD
ATOM      4  C   UNL     1       7.461  -1.778  23.831  0.00  0.00    +0.236 C 
ATOM      5  O   UNL     1       7.451  -1.581  22.614  0.00  0.00    -0.274 OA
BRANCH   4   6
ATOM      6  C   UNL     1       8.564  -1.173  24.755  0.00  0.00    +0.187 C 
BRANCH   6   7
ATOM      7  N   UNL     1       8.400   0.275  24.773  0.00  0.00    -0.300 N 
ATOM      8  H   UNL     1       9.139   0.797  24.296  0.00  0.00    +0.150 HD
ATOM      9  C   UNL     1       7.192   0.918  24.887  0.00  0.00    +0.234 C 
ATOM     10  O   UNL     1       6.157   0.327  25.193  0.00  0.00    -0.274 OA
BRANCH   9  11
ATOM     11  C   UNL     1       7.241   2.472  24.755  0.00  0.00    +0.162 C 
BRANCH  11  12
ATOM     12  N   UNL     1       6.126   3.220  25.386  0.00  0.00    -0.302 N 
ATOM     13  H   UNL     1       5.241   3.248  24.895  0.00  0.00    +0.150 HD
ATOM     14  C   UNL     1       6.304   4.119  26.412  0.00  0.00    +0.234 C 
ATOM     15  O   UNL     1       7.441   4.310  26.852  0.00  0.00    -0.274 OA
BRANCH  14  16
ATOM     16  C   UNL     1       5.083   4.841  27.013  0.00  0.00    +0.161 C 
BRANCH  16  17
ATOM     17  N   UNL     1       3.846   4.263  26.480  0.00  0.00    -0.302 N 
ATOM     18  H   UNL     1       3.186   4.880  26.016  0.00  0.00    +0.150 HD
ATOM     19  C   UNL     1       3.504   2.940  26.651  0.00  0.00    +0.231 C 
ATOM     20  O   UNL     1       4.132   2.168  27.372  0.00  0.00    -0.274 OA
BRANCH  19  21
ATOM     21  C   UNL     1       2.209   2.514  25.953  0.00  0.00    +0.200 C 
BRANCH  21  22
ATOM     22  N   UNL     1       1.772   3.544  25.027  0.00  0.00    -0.305 N 
ATOM     23  H   UNL     1       1.302   4.350  25.422  0.00  0.00    +0.149 HD
ATOM     24  C   UNL     1       2.232   3.579  23.725  0.00  0.00    +0.231 C 
ATOM     25  O   UNL     1       3.039   2.753  23.306  0.00  0.00    -0.274 OA
BRANCH  24  26
ATOM     26  C   UNL     1       1.703   4.778  22.902  0.00  0.00    +0.203 C 
BRANCH  26  27
ATOM     27  N   UNL     1       1.711   4.619  21.440  0.00  0.00    -0.296 N 
ATOM     28  C   UNL     1       1.170   3.575  20.706  0.00  0.00    +0.213 C 
ATOM     29  O   UNL     1       1.207   3.572  19.470  0.00  0.00    -0.276 OA
ATOM     30  C   UNL     1       0.469   2.430  21.393  0.00  0.00    +0.109 C 
ATOM     31  C   UNL     1       2.237   5.728  20.655  0.00  0.00    +0.132 C 
ENDBRANCH  26  27
ENDBRANCH  24  26
ENDBRANCH  21  22
ENDBRANCH  19  21
ENDBRANCH  16  17
BRANCH  16  32
ATOM     32  C   UNL     1       5.125   4.770  28.576  0.00  0.00    +0.012 C 
ATOM     33  C   UNL     1       3.786   5.012  29.296  0.00  0.00    +0.009 C 
ATOM     34  C   UNL     1       6.147   5.745  29.170  0.00  0.00    +0.009 C 
ENDBRANCH  16  32
ENDBRANCH  14  16
ENDBRANCH  11  12
BRANCH  11  35
ATOM     35  C   UNL     1       7.611   2.828  23.280  0.00  0.00    +0.015 C 
ATOM     36  C   UNL     1       6.913   2.027  22.173  0.00  0.00    +0.010 C 
BRANCH  35  37
ATOM     37  C   UNL     1       7.493   4.342  23.016  0.00  0.00    +0.002 C 
ATOM     38  C   UNL     1       6.063   4.753  22.675  0.00  0.00    +0.004 C 
ENDBRANCH  35  37
ENDBRANCH  11  35
ENDBRANCH   9  11
ENDBRANCH   6   7
BRANCH   6  39
ATOM     39  C   UNL     1       8.433  -1.738  26.198  0.00  0.00    +0.141 C 
ATOM     40  C   UNL     1       8.867  -0.745  27.274  0.00  0.00    +0.040 C 
BRANCH  39  41
ATOM     41  O   UNL     1       7.077  -2.097  26.510  0.00  0.00    -0.390 OA
ATOM     42  H   UNL     1       7.027  -2.188  27.486  0.00  0.00    +0.210 HD
ENDBRANCH  39  41
ENDBRANCH   6  39
ENDBRANCH   4   6
ENDBRANCH   1   2
BRANCH   1  43
ATOM     43  C   UNL     1       4.127  -3.090  24.596  0.00  0.00    +0.234 C 
ATOM     44  N   UNL     1       3.194  -4.102  24.534  0.00  0.00    -0.302 N 
ATOM     45  H   UNL     1       3.368  -4.936  23.981  0.00  0.00    +0.150 HD
ATOM     46  O   UNL     1       3.942  -2.074  25.269  0.00  0.00    -0.274 OA
BRANCH  44  47
ATOM     47  C   UNL     1       1.923  -4.093  25.292  0.00  0.00    +0.162 C 
BRANCH  47  48
ATOM     48  C   UNL     1       2.263  -4.465  26.758  0.00  0.00    +0.234 C 
ATOM     49  N   UNL     1       3.597  -4.453  27.119  0.00  0.00    -0.302 N 
ATOM     50  H   UNL     1       4.316  -4.217  26.443  0.00  0.00    +0.150 HD
ATOM     51  O   UNL     1       1.367  -4.713  27.567  0.00  0.00    -0.274 OA
BRANCH  49  52
ATOM     52  C   UNL     1       4.024  -4.632  28.518  0.00  0.00    +0.159 C 
BRANCH  52  53
ATOM     53  C   UNL     1       3.371  -3.565  29.454  0.00  0.00    +0.237 C 
ATOM     54  N   UNL     1       3.501  -2.222  29.135  0.00  0.00    -0.288 N 
ATOM     55  C   UNL     1       3.069  -1.150  30.063  0.00  0.00    +0.162 C 
ATOM     56  C   UNL     1       4.145  -0.052  29.905  0.00  0.00    +0.033 C 
ATOM     57  C   UNL     1       5.174  -0.613  28.930  0.00  0.00    +0.021 C 
ATOM     58  C   UNL     1       4.412  -1.664  28.149  0.00  0.00    +0.109 C 
ATOM     59  O   UNL     1       2.717  -3.929  30.440  0.00  0.00    -0.274 OA
BRANCH  55  60
ATOM     60  C   UNL     1       1.681  -0.512  29.789  0.00  0.00    +0.234 C 
ATOM     61  N   UNL     1       1.688   0.758  29.272  0.00  0.00    -0.314 N 
ATOM     62  H   UNL     1       2.540   1.081  28.837  0.00  0.00    +0.149 HD
ATOM     63  O   UNL     1       0.631  -1.142  29.951  0.00  0.00    -0.274 OA
BRANCH  61  64
ATOM     64  C   UNL     1       0.462   1.505  29.053  0.00  0.00    +0.101 C 
ATOM     65  C   UNL     1       0.629   2.988  29.328  0.00  0.00    +0.024 C 
ENDBRANCH  61  64
ENDBRANCH  55  60
ENDBRANCH  52  53
BRANCH  52  66
ATOM     66  C   UNL     1       5.558  -4.716  28.668  0.00  0.00    +0.035 C 
BRANCH  66  67
ATOM     67  C   UNL     1       6.270  -5.800  27.849  0.00  0.00    +0.043 C 
BRANCH  67  68
ATOM     68  C   UNL     1       7.716  -5.467  27.509  0.00  0.00    +0.243 C 
BRANCH  68  69
ATOM     69  N   UNL     1       7.821  -4.972  26.144  0.00  0.00    -0.114 NA
ATOM     70  C   UNL     1       8.834  -5.312  25.441  0.00  0.00    +0.376 C 
ATOM     71  N   UNL     1       8.939  -4.860  24.173  0.00  0.00    -0.289 N 
ATOM     72  H   UNL     1       9.859  -4.486  23.972  0.00  0.00    +0.255 HD
ATOM     73  H   UNL     1       8.226  -4.158  24.004  0.00  0.00    +0.255 HD
ATOM     74  N   UNL     1       9.904  -6.083  25.741  0.00  0.00    -0.289 N 
ATOM     75  H   UNL     1      10.239  -6.609  24.945  0.00  0.00    +0.255 HD
ATOM     76  H   UNL     1       9.790  -6.690  26.545  0.00  0.00    +0.255 HD
ENDBRANCH  68  69
ENDBRANCH  67  68
ENDBRANCH  66  67
ENDBRANCH  52  66
ENDBRANCH  49  52
ENDBRANCH  47  48
BRANCH  47  77
ATOM     77  C   UNL     1       0.886  -5.071  24.665  0.00  0.00    +0.015 C 
ATOM     78  C   UNL     1       0.534  -4.699  23.213  0.00  0.00    +0.010 C 
BRANCH  77  79
ATOM     79  C   UNL     1       1.308  -6.556  24.704  0.00  0.00    +0.002 C 
ATOM     80  C   UNL     1       1.412  -7.208  23.334  0.00  0.00    +0.004 C 
ENDBRANCH  77  79
ENDBRANCH  47  77
ENDBRANCH  44  47
ENDBRANCH   1  43
BRANCH   1  81
ATOM     81  C   UNL     1       5.710  -4.743  23.386  0.00  0.00    +0.031 C 
BRANCH  81  83
ATOM     82  C   UNL     1       7.011  -5.703  21.436  0.00  0.00    +0.004 C 
ATOM     83  C   UNL     1       5.720  -5.029  21.880  0.00  0.00    -0.001 C 
ENDBRANCH  81  83
ENDBRANCH   1  81
TORSDOF 31
ENDMDL
MODEL 8
REMARK VINA RESULT:      -2.9      2.263      4.121
REMARK  Name = 
REMARK  42 active torsions:
REMARK  status: ('A' for Active; 'I' for Inactive)
REMARK    1  A    between atoms: C_1  and  C_2
REMARK    2  A    between atoms: C_2  and  C_3
REMARK    3  A    between atoms: C_3  and  C_4
REMARK    4  A    between atoms: C_4  and  N_6
REMARK    5  A    between atoms: C_4  and  C_46
REMARK    6  A    between atoms: C_7  and  C_9
REMARK    7  A    between atoms: C_9  and  N_11
REMARK    8  A    between atoms: C_9  and  C_42
REMARK    9  A    between atoms: C_12  and  C_14
REMARK   10  A    between atoms: C_14  and  N_16
REMARK   11  A    between atoms: C_14  and  C_37
REMARK   12  A    between atoms: C_17  and  C_19
REMARK   13  A    between atoms: C_19  and  N_21
REMARK   14  A    between atoms: C_19  and  C_34
REMARK   15  A    between atoms: C_22  and  C_24
REMARK   16  A    between atoms: C_24  and  N_25
REMARK   17  A    between atoms: C_26  and  C_28
REMARK   18  A    between atoms: C_28  and  N_29
REMARK   19  A    between atoms: N_29  and  C_30
REMARK   20  A    between atoms: C_31  and  C_32
REMARK   21  A    between atoms: C_34  and  C_35
REMARK   22  A    between atoms: C_34  and  C_36
REMARK   23  A    between atoms: C_37  and  C_39
REMARK   24  A    between atoms: C_37  and  C_40
REMARK   25  A    between atoms: C_40  and  C_41
REMARK   26  A    between atoms: C_42  and  C_44
REMARK   27  A    between atoms: C_42  and  O_45
REMARK   28  A    between atoms: N_48  and  C_49
REMARK   29  A    between atoms: C_49  and  C_51
REMARK   30  A    between atoms: C_49  and  C_56
REMARK   31  A    between atoms: C_51  and  C_53
REMARK   32  A    between atoms: C_51  and  C_54
REMARK   33  A    between atoms: C_54  and  C_55
REMARK   34  A    between atoms: N_58  and  C_59
REMARK   35  A    between atoms: C_59  and  C_61
REMARK   36  A    between atoms: C_59  and  C_68
REMARK   37  A    between atoms: C_61  and  C_62
REMARK   38  A    between atoms: C_62  and  C_63
REMARK   39  A    between atoms: C_63  and  N_64
REMARK   40  A    between atoms: C_74  and  C_76
REMARK   41  A    between atoms: N_78  and  C_79
REMARK   42  A    between atoms: C_79  and  C_80
REMARK                            x       y       z     vdW  Elec       q    Type
REMARK                         _______ _______ _______ _____ _____    ______ ____
ROOT
ATOM      1  C   UNL     1       7.644  -4.194  24.364  0.00  0.00    +0.159 C 
ENDROOT
BRANCH   1   2
ATOM      2  N   UNL     1       6.506  -4.937  24.946  0.00  0.00    -0.302 N 
ATOM      3  H   UNL     1       6.662  -5.928  25.113  0.00  0.00    +0.150 HD
ATOM      4  C   UNL     1       5.222  -4.433  25.047  0.00  0.00    +0.236 C 
ATOM      5  O   UNL     1       4.956  -3.267  24.752  0.00  0.00    -0.274 OA
BRANCH   4   6
ATOM      6  C   UNL     1       4.154  -5.393  25.660  0.00  0.00    +0.187 C 
BRANCH   6   7
ATOM      7  N   UNL     1       3.874  -4.953  27.021  0.00  0.00    -0.300 N 
ATOM      8  H   UNL     1       3.943  -3.944  27.169  0.00  0.00    +0.150 HD
ATOM      9  C   UNL     1       3.078  -5.635  27.908  0.00  0.00    +0.234 C 
ATOM     10  O   UNL     1       2.696  -6.786  27.702  0.00  0.00    -0.274 OA
BRANCH   9  11
ATOM     11  C   UNL     1       2.815  -4.915  29.267  0.00  0.00    +0.162 C 
BRANCH  11  12
ATOM     12  N   UNL     1       2.971  -3.439  29.269  0.00  0.00    -0.302 N 
ATOM     13  H   UNL     1       3.442  -3.016  30.059  0.00  0.00    +0.150 HD
ATOM     14  C   UNL     1       2.255  -2.603  28.443  0.00  0.00    +0.234 C 
ATOM     15  O   UNL     1       1.453  -3.091  27.643  0.00  0.00    -0.274 OA
BRANCH  14  16
ATOM     16  C   UNL     1       2.494  -1.082  28.508  0.00  0.00    +0.161 C 
BRANCH  16  17
ATOM     17  N   UNL     1       1.435  -0.377  27.781  0.00  0.00    -0.302 N 
ATOM     18  H   UNL     1       0.476  -0.694  27.897  0.00  0.00    +0.150 HD
ATOM     19  C   UNL     1       1.689   0.640  26.888  0.00  0.00    +0.231 C 
ATOM     20  O   UNL     1       2.821   0.952  26.525  0.00  0.00    -0.274 OA
BRANCH  19  21
ATOM     21  C   UNL     1       0.443   1.299  26.289  0.00  0.00    +0.200 C 
BRANCH  21  22
ATOM     22  N   UNL     1       0.676   2.715  26.071  0.00  0.00    -0.305 N 
ATOM     23  H   UNL     1       0.954   3.266  26.875  0.00  0.00    +0.149 HD
ATOM     24  C   UNL     1       0.810   3.232  24.797  0.00  0.00    +0.231 C 
ATOM     25  O   UNL     1       0.754   2.513  23.804  0.00  0.00    -0.274 OA
BRANCH  24  26
ATOM     26  C   UNL     1       1.109   4.750  24.762  0.00  0.00    +0.203 C 
BRANCH  26  27
ATOM     27  N   UNL     1       2.474   5.136  24.377  0.00  0.00    -0.296 N 
ATOM     28  C   UNL     1       3.084   4.951  23.146  0.00  0.00    +0.213 C 
ATOM     29  O   UNL     1       4.233   5.354  22.930  0.00  0.00    -0.276 OA
ATOM     30  C   UNL     1       2.344   4.293  22.009  0.00  0.00    +0.109 C 
ATOM     31  C   UNL     1       3.245   5.905  25.346  0.00  0.00    +0.132 C 
ENDBRANCH  26  27
ENDBRANCH  24  26
ENDBRANCH  21  22
ENDBRANCH  19  21
ENDBRANCH  16  17
BRANCH  16  32
ATOM     32  C   UNL     1       2.583  -0.610  29.998  0.00  0.00    +0.012 C 
ATOM     33  C   UNL     1       1.898   0.731  30.319  0.00  0.00    +0.009 C 
ATOM     34  C   UNL     1       4.032  -0.511  30.485  0.00  0.00    +0.009 C 
ENDBRANCH  16  32
ENDBRANCH  14  16
ENDBRANCH  11  12
BRANCH  11  35
ATOM     35  C   UNL     1       3.531  -5.720  30.398  0.00  0.00    +0.015 C 
ATOM     36  C   UNL     1       3.331  -7.242  30.404  0.00  0.00    +0.010 C 
BRANCH  35  37
ATOM     37  C   UNL     1       5.029  -5.366  30.485  0.00  0.00    +0.002 C 
ATOM     38  C   UNL     1       5.891  -6.316  29.660  0.00  0.00    +0.004 C 
ENDBRANCH  35  37
ENDBRANCH  11  35
ENDBRANCH   9  11
ENDBRANCH   6   7
BRANCH   6  39
ATOM     39  C   UNL     1       2.848  -5.362  24.815  0.00  0.00    +0.141 C 
ATOM     40  C   UNL     1       3.107  -5.397  23.310  0.00  0.00    +0.040 C 
BRANCH  39  41
ATOM     41  O   UNL     1       2.001  -6.487  25.101  0.00  0.00    -0.390 OA
ATOM     42  H   UNL     1       1.255  -6.446  24.463  0.00  0.00    +0.210 HD
ENDBRANCH  39  41
ENDBRANCH   6  39
ENDBRANCH   4   6
ENDBRANCH   1   2
BRANCH   1  43
ATOM     43  C   UNL     1       7.897  -2.904  25.209  0.00  0.00    +0.234 C 
ATOM     44  N   UNL     1       7.309  -1.741  24.760  0.00  0.00    -0.302 N 
ATOM     45  H   UNL     1       6.714  -1.742  23.937  0.00  0.00    +0.150 HD
ATOM     46  O   UNL     1       8.613  -2.927  26.211  0.00  0.00    -0.274 OA
BRANCH  44  47
ATOM     47  C   UNL     1       7.438  -0.439  25.451  0.00  0.00    +0.162 C 
BRANCH  47  48
ATOM     48  C   UNL     1       8.735   0.229  24.927  0.00  0.00    +0.234 C 
ATOM     49  N   UNL     1       8.629   1.519  24.441  0.00  0.00    -0.302 N 
ATOM     50  H   UNL     1       7.733   1.996  24.425  0.00  0.00    +0.150 HD
ATOM     51  O   UNL     1       9.816  -0.359  24.990  0.00  0.00    -0.274 OA
BRANCH  49  52
ATOM     52  C   UNL     1       9.816   2.308  24.068  0.00  0.00    +0.159 C 
BRANCH  52  53
ATOM     53  C   UNL     1       9.586   3.834  24.314  0.00  0.00    +0.237 C 
ATOM     54  N   UNL     1       8.607   4.230  25.211  0.00  0.00    -0.288 N 
ATOM     55  C   UNL     1       8.208   5.650  25.363  0.00  0.00    +0.162 C 
ATOM     56  C   UNL     1       6.678   5.596  25.571  0.00  0.00    +0.033 C 
ATOM     57  C   UNL     1       6.291   4.126  25.454  0.00  0.00    +0.021 C 
ATOM     58  C   UNL     1       7.570   3.379  25.773  0.00  0.00    +0.109 C 
ATOM     59  O   UNL     1      10.302   4.665  23.739  0.00  0.00    -0.274 OA
BRANCH  55  60
ATOM     60  C   UNL     1       8.833   6.423  26.554  0.00  0.00    +0.234 C 
ATOM     61  N   UNL     1       8.157   6.355  27.744  0.00  0.00    -0.314 N 
ATOM     62  H   UNL     1       7.492   5.605  27.861  0.00  0.00    +0.149 HD
ATOM     63  O   UNL     1       9.920   7.002  26.456  0.00  0.00    -0.274 OA
BRANCH  61  64
ATOM     64  C   UNL     1       8.581   7.103  28.914  0.00  0.00    +0.101 C 
ATOM     65  C   UNL     1       8.189   6.423  30.212  0.00  0.00    +0.024 C 
ENDBRANCH  61  64
ENDBRANCH  55  60
ENDBRANCH  52  53
BRANCH  52  66
ATOM     66  C   UNL     1      10.321   1.991  22.645  0.00  0.00    +0.035 C 
BRANCH  66  67
ATOM     67  C   UNL     1       9.520   0.952  21.848  0.00  0.00    +0.043 C 
BRANCH  67  68
ATOM     68  C   UNL     1       8.360   1.541  21.058  0.00  0.00    +0.243 C 
BRANCH  68  69
ATOM     69  N   UNL     1       7.111   1.390  21.791  0.00  0.00    -0.114 NA
ATOM     70  C   UNL     1       6.459   2.440  22.123  0.00  0.00    +0.376 C 
ATOM     71  N   UNL     1       5.299   2.309  22.801  0.00  0.00    -0.289 N 
ATOM     72  H   UNL     1       5.250   2.926  23.603  0.00  0.00    +0.255 HD
ATOM     73  H   UNL     1       5.182   1.343  23.088  0.00  0.00    +0.255 HD
ATOM     74  N   UNL     1       6.728   3.750  21.924  0.00  0.00    -0.289 N 
ATOM     75  H   UNL     1       5.891   4.301  21.788  0.00  0.00    +0.255 HD
ATOM     76  H   UNL     1       7.406   3.950  21.198  0.00  0.00    +0.255 HD
ENDBRANCH  68  69
ENDBRANCH  67  68
ENDBRANCH  66  67
ENDBRANCH  52  66
ENDBRANCH  49  52
ENDBRANCH  47  48
BRANCH  47  77
ATOM     77  C   UNL     1       7.457  -0.620  26.998  0.00  0.00    +0.015 C 
ATOM     78  C   UNL     1       8.820  -0.252  27.613  0.00  0.00    +0.010 C 
BRANCH  77  79
ATOM     79  C   UNL     1       6.353   0.159  27.744  0.00  0.00    +0.002 C 
ATOM     80  C   UNL     1       6.879   1.188  28.732  0.00  0.00    +0.004 C 
ENDBRANCH  77  79
ENDBRANCH  47  77
ENDBRANCH  44  47
ENDBRANCH   1  43
BRANCH   1  81
ATOM     81  C   UNL     1       7.447  -3.901  22.862  0.00  0.00    +0.031 C 
BRANCH  81  83
ATOM     82  C   UNL     1       6.637  -6.287  22.602  0.00  0.00    +0.004 C 
ATOM     83  C   UNL     1       7.443  -5.155  21.981  0.00  0.00    -0.001 C 
ENDBRANCH  81  83
ENDBRANCH   1  81
TORSDOF 31
ENDMDL
MODEL 9
REMARK VINA RESULT:      -2.7      2.359      7.398
REMARK  Name = 
REMARK  42 active torsions:
REMARK  status: ('A' for Active; 'I' for Inactive)
REMARK    1  A    between atoms: C_1  and  C_2
REMARK    2  A    between atoms: C_2  and  C_3
REMARK    3  A    between atoms: C_3  and  C_4
REMARK    4  A    between atoms: C_4  and  N_6
REMARK    5  A    between atoms: C_4  and  C_46
REMARK    6  A    between atoms: C_7  and  C_9
REMARK    7  A    between atoms: C_9  and  N_11
REMARK    8  A    between atoms: C_9  and  C_42
REMARK    9  A    between atoms: C_12  and  C_14
REMARK   10  A    between atoms: C_14  and  N_16
REMARK   11  A    between atoms: C_14  and  C_37
REMARK   12  A    between atoms: C_17  and  C_19
REMARK   13  A    between atoms: C_19  and  N_21
REMARK   14  A    between atoms: C_19  and  C_34
REMARK   15  A    between atoms: C_22  and  C_24
REMARK   16  A    between atoms: C_24  and  N_25
REMARK   17  A    between atoms: C_26  and  C_28
REMARK   18  A    between atoms: C_28  and  N_29
REMARK   19  A    between atoms: N_29  and  C_30
REMARK   20  A    between atoms: C_31  and  C_32
REMARK   21  A    between atoms: C_34  and  C_35
REMARK   22  A    between atoms: C_34  and  C_36
REMARK   23  A    between atoms: C_37  and  C_39
REMARK   24  A    between atoms: C_37  and  C_40
REMARK   25  A    between atoms: C_40  and  C_41
REMARK   26  A    between atoms: C_42  and  C_44
REMARK   27  A    between atoms: C_42  and  O_45
REMARK   28  A    between atoms: N_48  and  C_49
REMARK   29  A    between atoms: C_49  and  C_51
REMARK   30  A    between atoms: C_49  and  C_56
REMARK   31  A    between atoms: C_51  and  C_53
REMARK   32  A    between atoms: C_51  and  C_54
REMARK   33  A    between atoms: C_54  and  C_55
REMARK   34  A    between atoms: N_58  and  C_59
REMARK   35  A    between atoms: C_59  and  C_61
REMARK   36  A    between atoms: C_59  and  C_68
REMARK   37  A    between atoms: C_61  and  C_62
REMARK   38  A    between atoms: C_62  and  C_63
REMARK   39  A    between atoms: C_63  and  N_64
REMARK   40  A    between atoms: C_74  and  C_76
REMARK   41  A    between atoms: N_78  and  C_79
REMARK   42  A    between atoms: C_79  and  C_80
REMARK                            x       y       z     vdW  Elec       q    Type
REMARK                         _______ _______ _______ _____ _____    ______ ____
ROOT
ATOM      1  C   UNL     1       7.102  -0.477  24.678  0.00  0.00    +0.159 C 
ENDROOT
BRANCH   1   2
ATOM      2  N   UNL     1       7.342   0.441  25.812  0.00  0.00    -0.302 N 
ATOM      3  H   UNL     1       8.097   0.179  26.442  0.00  0.00    +0.150 HD
ATOM      4  C   UNL     1       6.481   1.456  26.182  0.00  0.00    +0.236 C 
ATOM      5  O   UNL     1       5.487   1.743  25.512  0.00  0.00    -0.274 OA
BRANCH   4   6
ATOM      6  C   UNL     1       6.899   2.290  27.435  0.00  0.00    +0.187 C 
BRANCH   6   7
ATOM      7  N   UNL     1       6.089   3.502  27.466  0.00  0.00    -0.300 N 
ATOM      8  H   UNL     1       5.509   3.653  26.638  0.00  0.00    +0.150 HD
ATOM      9  C   UNL     1       5.663   4.120  28.616  0.00  0.00    +0.234 C 
ATOM     10  O   UNL     1       6.102   3.823  29.726  0.00  0.00    -0.274 OA
BRANCH   9  11
ATOM     11  C   UNL     1       4.701   5.332  28.412  0.00  0.00    +0.162 C 
BRANCH  11  12
ATOM     12  N   UNL     1       4.075   5.454  27.072  0.00  0.00    -0.302 N 
ATOM     13  H   UNL     1       4.569   5.053  26.283  0.00  0.00    +0.150 HD
ATOM     14  C   UNL     1       3.052   6.329  26.793  0.00  0.00    +0.234 C 
ATOM     15  O   UNL     1       2.609   7.043  27.697  0.00  0.00    -0.274 OA
BRANCH  14  16
ATOM     16  C   UNL     1       2.456   6.377  25.373  0.00  0.00    +0.161 C 
BRANCH  16  17
ATOM     17  N   UNL     1       3.447   6.906  24.431  0.00  0.00    -0.302 N 
ATOM     18  H   UNL     1       3.171   7.667  23.818  0.00  0.00    +0.150 HD
ATOM     19  C   UNL     1       4.705   6.365  24.287  0.00  0.00    +0.231 C 
ATOM     20  O   UNL     1       5.057   5.321  24.830  0.00  0.00    -0.274 OA
BRANCH  19  21
ATOM     21  C   UNL     1       5.617   7.108  23.306  0.00  0.00    +0.200 C 
BRANCH  21  22
ATOM     22  N   UNL     1       7.007   6.961  23.699  0.00  0.00    -0.305 N 
ATOM     23  H   UNL     1       7.250   7.228  24.646  0.00  0.00    +0.149 HD
ATOM     24  C   UNL     1       7.892   6.220  22.940  0.00  0.00    +0.231 C 
ATOM     25  O   UNL     1       7.533   5.645  21.915  0.00  0.00    -0.274 OA
BRANCH  24  26
ATOM     26  C   UNL     1       9.315   6.128  23.541  0.00  0.00    +0.203 C 
BRANCH  26  27
ATOM     27  N   UNL     1       9.876   4.776  23.681  0.00  0.00    -0.296 N 
ATOM     28  C   UNL     1      11.189   4.386  23.466  0.00  0.00    +0.213 C 
ATOM     29  O   UNL     1      11.552   3.219  23.654  0.00  0.00    -0.276 OA
ATOM     30  C   UNL     1      12.233   5.388  23.044  0.00  0.00    +0.109 C 
ATOM     31  C   UNL     1       8.998   3.745  24.218  0.00  0.00    +0.132 C 
ENDBRANCH  26  27
ENDBRANCH  24  26
ENDBRANCH  21  22
ENDBRANCH  19  21
ENDBRANCH  16  17
BRANCH  16  32
ATOM     32  C   UNL     1       1.956   4.957  24.946  0.00  0.00    +0.012 C 
ATOM     33  C   UNL     1       1.936   4.678  23.432  0.00  0.00    +0.009 C 
ATOM     34  C   UNL     1       0.554   4.653  25.485  0.00  0.00    +0.009 C 
ENDBRANCH  16  32
ENDBRANCH  14  16
ENDBRANCH  11  12
BRANCH  11  35
ATOM     35  C   UNL     1       5.378   6.604  29.015  0.00  0.00    +0.015 C 
ATOM     36  C   UNL     1       5.815   6.532  30.484  0.00  0.00    +0.010 C 
BRANCH  35  37
ATOM     37  C   UNL     1       6.532   7.108  28.126  0.00  0.00    +0.002 C 
ATOM     38  C   UNL     1       7.890   6.936  28.799  0.00  0.00    +0.004 C 
ENDBRANCH  35  37
ENDBRANCH  11  35
ENDBRANCH   9  11
ENDBRANCH   6   7
BRANCH   6  39
ATOM     39  C   UNL     1       6.672   1.468  28.735  0.00  0.00    +0.141 C 
ATOM     40  C   UNL     1       5.729   0.282  28.538  0.00  0.00    +0.040 C 
BRANCH  39  41
ATOM     41  O   UNL     1       7.900   0.922  29.243  0.00  0.00    -0.390 OA
ATOM     42  H   UNL     1       7.706  -0.001  29.517  0.00  0.00    +0.210 HD
ENDBRANCH  39  41
ENDBRANCH   6  39
ENDBRANCH   4   6
ENDBRANCH   1   2
BRANCH   1  43
ATOM     43  C   UNL     1       6.282  -1.708  25.182  0.00  0.00    +0.234 C 
ATOM     44  N   UNL     1       6.555  -2.922  24.591  0.00  0.00    -0.302 N 
ATOM     45  H   UNL     1       7.281  -3.006  23.886  0.00  0.00    +0.150 HD
ATOM     46  O   UNL     1       5.413  -1.585  26.048  0.00  0.00    -0.274 OA
BRANCH  44  47
ATOM     47  C   UNL     1       5.878  -4.184  24.962  0.00  0.00    +0.162 C 
BRANCH  47  48
ATOM     48  C   UNL     1       4.396  -4.054  24.524  0.00  0.00    +0.234 C 
ATOM     49  N   UNL     1       3.465  -3.802  25.515  0.00  0.00    -0.302 N 
ATOM     50  H   UNL     1       3.750  -3.716  26.486  0.00  0.00    +0.150 HD
ATOM     51  O   UNL     1       4.083  -4.127  23.335  0.00  0.00    -0.274 OA
BRANCH  49  52
ATOM     52  C   UNL     1       2.059  -3.500  25.199  0.00  0.00    +0.159 C 
BRANCH  52  53
ATOM     53  C   UNL     1       1.417  -2.575  26.283  0.00  0.00    +0.237 C 
ATOM     54  N   UNL     1       1.884  -2.643  27.586  0.00  0.00    -0.288 N 
ATOM     55  C   UNL     1       1.210  -1.934  28.700  0.00  0.00    +0.162 C 
ATOM     56  C   UNL     1       1.308  -2.914  29.890  0.00  0.00    +0.033 C 
ATOM     57  C   UNL     1       1.984  -4.167  29.346  0.00  0.00    +0.021 C 
ATOM     58  C   UNL     1       2.745  -3.680  28.130  0.00  0.00    +0.109 C 
ATOM     59  O   UNL     1       0.533  -1.771  25.960  0.00  0.00    -0.274 OA
BRANCH  55  60
ATOM     60  C   UNL     1       1.826  -0.579  29.135  0.00  0.00    +0.234 C 
ATOM     61  N   UNL     1       1.028   0.526  28.988  0.00  0.00    -0.314 N 
ATOM     62  H   UNL     1       0.034   0.376  28.896  0.00  0.00    +0.149 HD
ATOM     63  O   UNL     1       2.943  -0.509  29.659  0.00  0.00    -0.274 OA
BRANCH  61  64
ATOM     64  C   UNL     1       1.510   1.866  29.272  0.00  0.00    +0.101 C 
ATOM     65  C   UNL     1       2.152   2.520  28.063  0.00  0.00    +0.024 C 
ENDBRANCH  61  64
ENDBRANCH  55  60
ENDBRANCH  52  53
BRANCH  52  66
ATOM     66  C   UNL     1       1.226  -4.767  24.911  0.00  0.00    +0.035 C 
BRANCH  66  67
ATOM     67  C   UNL     1       0.961  -5.699  26.101  0.00  0.00    +0.043 C 
BRANCH  67  68
ATOM     68  C   UNL     1       1.450  -7.125  25.889  0.00  0.00    +0.243 C 
BRANCH  68  69
ATOM     69  N   UNL     1       2.847  -7.132  25.480  0.00  0.00    -0.114 NA
ATOM     70  C   UNL     1       3.129  -7.358  24.252  0.00  0.00    +0.376 C 
ATOM     71  N   UNL     1       4.422  -7.364  23.863  0.00  0.00    -0.289 N 
ATOM     72  H   UNL     1       4.649  -8.170  23.293  0.00  0.00    +0.255 HD
ATOM     73  H   UNL     1       5.022  -7.328  24.681  0.00  0.00    +0.255 HD
ATOM     74  N   UNL     1       2.331  -7.621  23.193  0.00  0.00    -0.289 N 
ATOM     75  H   UNL     1       2.697  -7.243  22.329  0.00  0.00    +0.255 HD
ATOM     76  H   UNL     1       1.357  -7.364  23.307  0.00  0.00    +0.255 HD
ENDBRANCH  68  69
ENDBRANCH  67  68
ENDBRANCH  66  67
ENDBRANCH  52  66
ENDBRANCH  49  52
ENDBRANCH  47  48
BRANCH  47  77
ATOM     77  C   UNL     1       6.014  -4.470  26.487  0.00  0.00    +0.015 C 
ATOM     78  C   UNL     1       5.464  -5.854  26.875  0.00  0.00    +0.010 C 
BRANCH  77  79
ATOM     79  C   UNL     1       7.453  -4.341  27.033  0.00  0.00    +0.002 C 
ATOM     80  C   UNL     1       8.516  -4.944  26.128  0.00  0.00    +0.004 C 
ENDBRANCH  77  79
ENDBRANCH  47  77
ENDBRANCH  44  47
ENDBRANCH   1  43
BRANCH   1  81
ATOM     81  C   UNL     1       8.408  -0.877  23.960  0.00  0.00    +0.031 C 
BRANCH  81  83
ATOM     82  C   UNL     1       9.732  -0.643  21.813  0.00  0.00    +0.004 C 
ATOM     83  C   UNL     1       8.346  -0.738  22.435  0.00  0.00    -0.001 C 
ENDBRANCH  81  83
ENDBRANCH   1  81
TORSDOF 31
ENDMDL
