MODEL 1
REMARK VINA RESULT:      -4.2      0.000      0.000
REMARK  Name = 
REMARK  9 active torsions:
REMARK  status: ('A' for Active; 'I' for Inactive)
REMARK    1  A    between atoms: C_1  and  C_2
REMARK    2  A    between atoms: C_2  and  O_4
REMARK    3  A    between atoms: C_2  and  C_5
REMARK    4  A    between atoms: C_5  and  O_7
REMARK    5  A    between atoms: C_5  and  C_8
REMARK    6  A    between atoms: C_8  and  O_10
REMARK    7  A    between atoms: C_8  and  C_11
REMARK    8  A    between atoms: C_11  and  O_13
REMARK    9  A    between atoms: C_11  and  C_14
REMARK                            x       y       z     vdW  Elec       q    Type
REMARK                         _______ _______ _______ _____ _____    ______ ____
ROOT
ATOM      1  C   UNL     1       8.861  -0.011  23.362  0.00  0.00    +0.181 C 
ENDROOT
BRANCH   1   2
ATOM      2  O   UNL     1       8.379  -0.521  24.613  0.00  0.00    -0.386 OA
ATOM      3  H   UNL     1       7.656   0.071  24.901  0.00  0.00    +0.210 HD
ENDBRANCH   1   2
BRANCH   1   4
ATOM      4  C   UNL     1      10.080   0.903  23.599  0.00  0.00    +0.174 C 
BRANCH   4   6
ATOM      5  C   UNL     1      10.976   3.343  23.416  0.00  0.00    +0.040 C 
ATOM      6  C   UNL     1       9.949   2.310  22.974  0.00  0.00    +0.142 C 
BRANCH   6   7
ATOM      7  O   UNL     1      10.081   2.144  21.553  0.00  0.00    -0.389 OA
ATOM      8  H   UNL     1      10.735   1.437  21.406  0.00  0.00    +0.210 HD
ENDBRANCH   6   7
ENDBRANCH   4   6
BRANCH   4   9
ATOM      9  O   UNL     1      10.375   1.002  25.006  0.00  0.00    -0.387 OA
ATOM     10  H   UNL     1      10.713   0.116  25.249  0.00  0.00    +0.210 HD
ENDBRANCH   4   9
ENDBRANCH   1   4
BRANCH   1  11
ATOM     11  C   UNL     1       9.218  -1.186  22.426  0.00  0.00    +0.208 C 
BRANCH  11  12
ATOM     12  C   UNL     1      10.318  -2.032  23.038  0.00  0.00    +0.257 C 
ATOM     13  O   UNL     1      10.127  -2.925  23.862  0.00  0.00    -0.298 OA
ENDBRANCH  11  12
BRANCH  11  14
ATOM     14  O   UNL     1       9.656  -0.757  21.141  0.00  0.00    -0.382 OA
ATOM     15  H   UNL     1      10.041  -1.549  20.702  0.00  0.00    +0.210 HD
ENDBRANCH  11  14
ENDBRANCH   1  11
TORSDOF 8
ENDMDL
MODEL 2
REMARK VINA RESULT:      -4.1      1.610      2.271
REMARK  Name = 
REMARK  9 active torsions:
REMARK  status: ('A' for Active; 'I' for Inactive)
REMARK    1  A    between atoms: C_1  and  C_2
REMARK    2  A    between atoms: C_2  and  O_4
REMARK    3  A    between atoms: C_2  and  C_5
REMARK    4  A    between atoms: C_5  and  O_7
REMARK    5  A    between atoms: C_5  and  C_8
REMARK    6  A    between atoms: C_8  and  O_10
REMARK    7  A    between atoms: C_8  and  C_11
REMARK    8  A    between atoms: C_11  and  O_13
REMARK    9  A    between atoms: C_11  and  C_14
REMARK                            x       y       z     vdW  Elec       q    Type
REMARK                         _______ _______ _______ _____ _____    ______ ____
ROOT
ATOM      1  C   UNL     1       9.078   0.016  23.438  0.00  0.00    +0.181 C 
ENDROOT
BRANCH   1   2
ATOM      2  O   UNL     1      10.493   0.112  23.653  0.00  0.00    -0.386 OA
ATOM      3  H   UNL     1      10.907   0.211  22.772  0.00  0.00    +0.210 HD
ENDBRANCH   1   2
BRANCH   1   4
ATOM      4  C   UNL     1       8.750   0.265  21.953  0.00  0.00    +0.174 C 
BRANCH   4   6
ATOM      5  C   UNL     1       7.991   2.717  22.401  0.00  0.00    +0.040 C 
ATOM      6  C   UNL     1       8.788   1.752  21.535  0.00  0.00    +0.142 C 
BRANCH   6   7
ATOM      7  O   UNL     1      10.166   2.159  21.584  0.00  0.00    -0.389 OA
ATOM      8  H   UNL     1      10.673   1.409  21.944  0.00  0.00    +0.210 HD
ENDBRANCH   6   7
ENDBRANCH   4   6
BRANCH   4   9
ATOM      9  O   UNL     1       9.612  -0.519  21.104  0.00  0.00    -0.387 OA
ATOM     10  H   UNL     1       9.683   0.004  20.279  0.00  0.00    +0.210 HD
ENDBRANCH   4   9
ENDBRANCH   1   4
BRANCH   1  11
ATOM     11  C   UNL     1       8.577  -1.371  23.896  0.00  0.00    +0.208 C 
BRANCH  11  12
ATOM     12  C   UNL     1       9.741  -2.337  24.021  0.00  0.00    +0.257 C 
ATOM     13  O   UNL     1      10.505  -2.621  23.100  0.00  0.00    -0.298 OA
ENDBRANCH  11  12
BRANCH  11  14
ATOM     14  O   UNL     1       7.628  -1.940  23.000  0.00  0.00    -0.382 OA
ATOM     15  H   UNL     1       7.837  -2.901  22.951  0.00  0.00    +0.210 HD
ENDBRANCH  11  14
ENDBRANCH   1  11
TORSDOF 8
ENDMDL
MODEL 3
REMARK VINA RESULT:      -4.0      1.345      3.911
REMARK  Name = 
REMARK  9 active torsions:
REMARK  status: ('A' for Active; 'I' for Inactive)
REMARK    1  A    between atoms: C_1  and  C_2
REMARK    2  A    between atoms: C_2  and  O_4
REMARK    3  A    between atoms: C_2  and  C_5
REMARK    4  A    between atoms: C_5  and  O_7
REMARK    5  A    between atoms: C_5  and  C_8
REMARK    6  A    between atoms: C_8  and  O_10
REMARK    7  A    between atoms: C_8  and  C_11
REMARK    8  A    between atoms: C_11  and  O_13
REMARK    9  A    between atoms: C_11  and  C_14
REMARK                            x       y       z     vdW  Elec       q    Type
REMARK                         _______ _______ _______ _____ _____    ______ ____
ROOT
ATOM      1  C   UNL     1       8.688   1.115  22.218  0.00  0.00    +0.181 C 
ENDROOT
BRANCH   1   2
ATOM      2  O   UNL     1       8.684   1.124  20.784  0.00  0.00    -0.386 OA
ATOM      3  H   UNL     1       9.200   1.907  20.504  0.00  0.00    +0.210 HD
ENDBRANCH   1   2
BRANCH   1   4
ATOM      4  C   UNL     1       8.573  -0.332  22.739  0.00  0.00    +0.174 C 
BRANCH   4   6
ATOM      5  C   UNL     1       9.959  -2.349  23.633  0.00  0.00    +0.040 C 
ATOM      6  C   UNL     1       9.909  -1.108  22.753  0.00  0.00    +0.142 C 
BRANCH   6   7
ATOM      7  O   UNL     1      10.160  -1.523  21.400  0.00  0.00    -0.389 OA
ATOM      8  H   UNL     1       9.360  -1.313  20.884  0.00  0.00    +0.210 HD
ENDBRANCH   6   7
ENDBRANCH   4   6
BRANCH   4   9
ATOM      9  O   UNL     1       7.963  -0.355  24.044  0.00  0.00    -0.387 OA
ATOM     10  H   UNL     1       7.111  -0.817  23.907  0.00  0.00    +0.210 HD
ENDBRANCH   4   9
ENDBRANCH   1   4
BRANCH   1  11
ATOM     11  C   UNL     1       9.973   1.795  22.737  0.00  0.00    +0.208 C 
BRANCH  11  12
ATOM     12  C   UNL     1       9.649   2.726  23.890  0.00  0.00    +0.257 C 
ATOM     13  O   UNL     1       8.979   2.404  24.870  0.00  0.00    -0.298 OA
ENDBRANCH  11  12
BRANCH  11  14
ATOM     14  O   UNL     1      10.641   2.554  21.734  0.00  0.00    -0.382 OA
ATOM     15  H   UNL     1      10.154   3.408  21.665  0.00  0.00    +0.210 HD
ENDBRANCH  11  14
ENDBRANCH   1  11
TORSDOF 8
ENDMDL
MODEL 4
REMARK VINA RESULT:      -4.0      4.232      6.644
REMARK  Name = 
REMARK  9 active torsions:
REMARK  status: ('A' for Active; 'I' for Inactive)
REMARK    1  A    between atoms: C_1  and  C_2
REMARK    2  A    between atoms: C_2  and  O_4
REMARK    3  A    between atoms: C_2  and  C_5
REMARK    4  A    between atoms: C_5  and  O_7
REMARK    5  A    between atoms: C_5  and  C_8
REMARK    6  A    between atoms: C_8  and  O_10
REMARK    7  A    between atoms: C_8  and  C_11
REMARK    8  A    between atoms: C_11  and  O_13
REMARK    9  A    between atoms: C_11  and  C_14
REMARK                            x       y       z     vdW  Elec       q    Type
REMARK                         _______ _______ _______ _____ _____    ______ ____
ROOT
ATOM      1  C   UNL     1       8.265  -5.143  24.736  0.00  0.00    +0.181 C 
ENDROOT
BRANCH   1   2
ATOM      2  O   UNL     1       9.538  -5.756  24.489  0.00  0.00    -0.386 OA
ATOM      3  H   UNL     1       9.811  -6.190  25.322  0.00  0.00    +0.210 HD
ENDBRANCH   1   2
BRANCH   1   4
ATOM      4  C   UNL     1       8.216  -4.587  26.173  0.00  0.00    +0.174 C 
BRANCH   4   6
ATOM      5  C   UNL     1       5.928  -5.829  26.285  0.00  0.00    +0.040 C 
ATOM      6  C   UNL     1       7.071  -5.162  27.037  0.00  0.00    +0.142 C 
BRANCH   6   7
ATOM      7  O   UNL     1       7.661  -6.150  27.899  0.00  0.00    -0.389 OA
ATOM      8  H   UNL     1       7.688  -6.986  27.400  0.00  0.00    +0.210 HD
ENDBRANCH   6   7
ENDBRANCH   4   6
BRANCH   4   9
ATOM      9  O   UNL     1       9.484  -4.770  26.832  0.00  0.00    -0.387 OA
ATOM     10  H   UNL     1       9.955  -3.922  26.697  0.00  0.00    +0.210 HD
ENDBRANCH   4   9
ENDBRANCH   1   4
BRANCH   1  11
ATOM     11  C   UNL     1       8.016  -4.028  23.697  0.00  0.00    +0.208 C 
BRANCH  11  12
ATOM     12  C   UNL     1       9.053  -2.931  23.842  0.00  0.00    +0.257 C 
ATOM     13  O   UNL     1      10.254  -3.133  24.014  0.00  0.00    -0.298 OA
ENDBRANCH  11  12
BRANCH  11  14
ATOM     14  O   UNL     1       6.728  -3.435  23.821  0.00  0.00    -0.382 OA
ATOM     15  H   UNL     1       6.872  -2.541  24.207  0.00  0.00    +0.210 HD
ENDBRANCH  11  14
ENDBRANCH   1  11
TORSDOF 8
ENDMDL
MODEL 5
REMARK VINA RESULT:      -4.0      4.317      5.919
REMARK  Name = 
REMARK  9 active torsions:
REMARK  status: ('A' for Active; 'I' for Inactive)
REMARK    1  A    between atoms: C_1  and  C_2
REMARK    2  A    between atoms: C_2  and  O_4
REMARK    3  A    between atoms: C_2  and  C_5
REMARK    4  A    between atoms: C_5  and  O_7
REMARK    5  A    between atoms: C_5  and  C_8
REMARK    6  A    between atoms: C_8  and  O_10
REMARK    7  A    between atoms: C_8  and  C_11
REMARK    8  A    between atoms: C_11  and  O_13
REMARK    9  A    between atoms: C_11  and  C_14
REMARK                            x       y       z     vdW  Elec       q    Type
REMARK                         _______ _______ _______ _____ _____    ______ ____
ROOT
ATOM      1  C   UNL     1       7.663  -4.133  23.995  0.00  0.00    +0.181 C 
ENDROOT
BRANCH   1   2
ATOM      2  O   UNL     1       8.062  -5.214  23.140  0.00  0.00    -0.386 OA
ATOM      3  H   UNL     1       8.926  -4.966  22.754  0.00  0.00    +0.210 HD
ENDBRANCH   1   2
BRANCH   1   4
ATOM      4  C   UNL     1       8.828  -3.734  24.922  0.00  0.00    +0.174 C 
BRANCH   4   6
ATOM      5  C   UNL     1       7.856  -5.241  26.812  0.00  0.00    +0.040 C 
ATOM      6  C   UNL     1       9.086  -4.725  26.079  0.00  0.00    +0.142 C 
BRANCH   6   7
ATOM      7  O   UNL     1       9.761  -5.859  25.508  0.00  0.00    -0.389 OA
ATOM      8  H   UNL     1      10.458  -5.512  24.923  0.00  0.00    +0.210 HD
ENDBRANCH   6   7
ENDBRANCH   4   6
BRANCH   4   9
ATOM      9  O   UNL     1      10.034  -3.524  24.161  0.00  0.00    -0.387 OA
ATOM     10  H   UNL     1       9.721  -3.211  23.288  0.00  0.00    +0.210 HD
ENDBRANCH   4   9
ENDBRANCH   1   4
BRANCH   1  11
ATOM     11  C   UNL     1       7.199  -2.937  23.135  0.00  0.00    +0.208 C 
BRANCH  11  12
ATOM     12  C   UNL     1       5.887  -3.261  22.446  0.00  0.00    +0.257 C 
ATOM     13  O   UNL     1       5.784  -3.998  21.467  0.00  0.00    -0.298 OA
ENDBRANCH  11  12
BRANCH  11  14
ATOM     14  O   UNL     1       8.145  -2.576  22.133  0.00  0.00    -0.382 OA
ATOM     15  H   UNL     1       8.216  -1.594  22.163  0.00  0.00    +0.210 HD
ENDBRANCH  11  14
ENDBRANCH   1  11
TORSDOF 8
ENDMDL
MODEL 6
REMARK VINA RESULT:      -4.0      1.653      2.261
REMARK  Name = 
REMARK  9 active torsions:
REMARK  status: ('A' for Active; 'I' for Inactive)
REMARK    1  A    between atoms: C_1  and  C_2
REMARK    2  A    between atoms: C_2  and  O_4
REMARK    3  A    between atoms: C_2  and  C_5
REMARK    4  A    between atoms: C_5  and  O_7
REMARK    5  A    between atoms: C_5  and  C_8
REMARK    6  A    between atoms: C_8  and  O_10
REMARK    7  A    between atoms: C_8  and  C_11
REMARK    8  A    between atoms: C_11  and  O_13
REMARK    9  A    between atoms: C_11  and  C_14
REMARK                            x       y       z     vdW  Elec       q    Type
REMARK                         _______ _______ _______ _____ _____    ______ ____
ROOT
ATOM      1  C   UNL     1       9.523  -0.746  22.616  0.00  0.00    +0.181 C 
ENDROOT
BRANCH   1   2
ATOM      2  O   UNL     1      10.010  -1.473  21.480  0.00  0.00    -0.386 OA
ATOM      3  H   UNL     1      10.190  -0.816  20.778  0.00  0.00    +0.210 HD
ENDBRANCH   1   2
BRANCH   1   4
ATOM      4  C   UNL     1       8.960   0.618  22.170  0.00  0.00    +0.174 C 
BRANCH   4   6
ATOM      5  C   UNL     1      10.624   1.543  23.948  0.00  0.00    +0.040 C 
ATOM      6  C   UNL     1       9.679   1.836  22.792  0.00  0.00    +0.142 C 
BRANCH   6   7
ATOM      7  O   UNL     1      10.451   2.440  21.740  0.00  0.00    -0.389 OA
ATOM      8  H   UNL     1      11.292   1.952  21.686  0.00  0.00    +0.210 HD
ENDBRANCH   6   7
ENDBRANCH   4   6
BRANCH   4   9
ATOM      9  O   UNL     1       8.951   0.718  20.732  0.00  0.00    -0.387 OA
ATOM     10  H   UNL     1       8.991  -0.209  20.422  0.00  0.00    +0.210 HD
ENDBRANCH   4   9
ENDBRANCH   1   4
BRANCH   1  11
ATOM     11  C   UNL     1       8.449  -1.583  23.345  0.00  0.00    +0.208 C 
BRANCH  11  12
ATOM     12  C   UNL     1       9.016  -2.929  23.752  0.00  0.00    +0.257 C 
ATOM     13  O   UNL     1      10.212  -3.151  23.928  0.00  0.00    -0.298 OA
ENDBRANCH  11  12
BRANCH  11  14
ATOM     14  O   UNL     1       7.293  -1.815  22.546  0.00  0.00    -0.382 OA
ATOM     15  H   UNL     1       7.600  -1.814  21.610  0.00  0.00    +0.210 HD
ENDBRANCH  11  14
ENDBRANCH   1  11
TORSDOF 8
ENDMDL
MODEL 7
REMARK VINA RESULT:      -4.0      4.100      6.503
REMARK  Name = 
REMARK  9 active torsions:
REMARK  status: ('A' for Active; 'I' for Inactive)
REMARK    1  A    between atoms: C_1  and  C_2
REMARK    2  A    between atoms: C_2  and  O_4
REMARK    3  A    between atoms: C_2  and  C_5
REMARK    4  A    between atoms: C_5  and  O_7
REMARK    5  A    between atoms: C_5  and  C_8
REMARK    6  A    between atoms: C_8  and  O_10
REMARK    7  A    between atoms: C_8  and  C_11
REMARK    8  A    between atoms: C_11  and  O_13
REMARK    9  A    between atoms: C_11  and  C_14
REMARK                            x       y       z     vdW  Elec       q    Type
REMARK                         _______ _______ _______ _____ _____    ______ ____
ROOT
ATOM      1  C   UNL     1       8.616  -4.608  24.857  0.00  0.00    +0.181 C 
ENDROOT
BRANCH   1   2
ATOM      2  O   UNL     1       9.720  -5.491  24.617  0.00  0.00    -0.386 OA
ATOM      3  H   UNL     1       9.645  -6.222  25.264  0.00  0.00    +0.210 HD
ENDBRANCH   1   2
BRANCH   1   4
ATOM      4  C   UNL     1       8.429  -4.394  26.372  0.00  0.00    +0.174 C 
BRANCH   4   6
ATOM      5  C   UNL     1       6.186  -5.650  25.946  0.00  0.00    +0.040 C 
ATOM      6  C   UNL     1       7.158  -5.052  26.954  0.00  0.00    +0.142 C 
BRANCH   6   7
ATOM      7  O   UNL     1       7.602  -6.114  27.815  0.00  0.00    -0.389 OA
ATOM      8  H   UNL     1       7.000  -6.867  27.674  0.00  0.00    +0.210 HD
ENDBRANCH   6   7
ENDBRANCH   4   6
BRANCH   4   9
ATOM      9  O   UNL     1       9.597  -4.829  27.095  0.00  0.00    -0.387 OA
ATOM     10  H   UNL     1       9.720  -5.761  26.823  0.00  0.00    +0.210 HD
ENDBRANCH   4   9
ENDBRANCH   1   4
BRANCH   1  11
ATOM     11  C   UNL     1       8.858  -3.267  24.129  0.00  0.00    +0.208 C 
BRANCH  11  12
ATOM     12  C   UNL     1       8.052  -3.212  22.845  0.00  0.00    +0.257 C 
ATOM     13  O   UNL     1       7.454  -2.214  22.448  0.00  0.00    -0.298 OA
ENDBRANCH  11  12
BRANCH  11  14
ATOM     14  O   UNL     1      10.227  -3.056  23.799  0.00  0.00    -0.382 OA
ATOM     15  H   UNL     1      10.651  -2.687  24.607  0.00  0.00    +0.210 HD
ENDBRANCH  11  14
ENDBRANCH   1  11
TORSDOF 8
ENDMDL
MODEL 8
REMARK VINA RESULT:      -3.9      2.331      4.966
REMARK  Name = 
REMARK  9 active torsions:
REMARK  status: ('A' for Active; 'I' for Inactive)
REMARK    1  A    between atoms: C_1  and  C_2
REMARK    2  A    between atoms: C_2  and  O_4
REMARK    3  A    between atoms: C_2  and  C_5
REMARK    4  A    between atoms: C_5  and  O_7
REMARK    5  A    between atoms: C_5  and  C_8
REMARK    6  A    between atoms: C_8  and  O_10
REMARK    7  A    between atoms: C_8  and  C_11
REMARK    8  A    between atoms: C_11  and  O_13
REMARK    9  A    between atoms: C_11  and  C_14
REMARK                            x       y       z     vdW  Elec       q    Type
REMARK                         _______ _______ _______ _____ _____    ______ ____
ROOT
ATOM      1  C   UNL     1       9.591  -2.567  23.590  0.00  0.00    +0.181 C 
ENDROOT
BRANCH   1   2
ATOM      2  O   UNL     1       9.242  -1.971  24.847  0.00  0.00    -0.386 OA
ATOM      3  H   UNL     1       9.709  -1.113  24.895  0.00  0.00    +0.210 HD
ENDBRANCH   1   2
BRANCH   1   4
ATOM      4  C   UNL     1       8.320  -3.047  22.861  0.00  0.00    +0.174 C 
BRANCH   4   6
ATOM      5  C   UNL     1       7.236  -5.365  22.372  0.00  0.00    +0.040 C 
ATOM      6  C   UNL     1       7.736  -4.369  23.408  0.00  0.00    +0.142 C 
BRANCH   6   7
ATOM      7  O   UNL     1       8.787  -5.006  24.154  0.00  0.00    -0.389 OA
ATOM      8  H   UNL     1       8.878  -5.911  23.805  0.00  0.00    +0.210 HD
ENDBRANCH   6   7
ENDBRANCH   4   6
BRANCH   4   9
ATOM      9  O   UNL     1       7.315  -2.015  22.860  0.00  0.00    -0.387 OA
ATOM     10  H   UNL     1       7.785  -1.215  22.546  0.00  0.00    +0.210 HD
ENDBRANCH   4   9
ENDBRANCH   1   4
BRANCH   1  11
ATOM     11  C   UNL     1      10.374  -1.547  22.734  0.00  0.00    +0.208 C 
BRANCH  11  12
ATOM     12  C   UNL     1      10.183  -0.144  23.278  0.00  0.00    +0.257 C 
ATOM     13  O   UNL     1       9.108   0.453  23.286  0.00  0.00    -0.298 OA
ENDBRANCH  11  12
BRANCH  11  14
ATOM     14  O   UNL     1       9.973  -1.548  21.368  0.00  0.00    -0.382 OA
ATOM     15  H   UNL     1      10.649  -2.074  20.883  0.00  0.00    +0.210 HD
ENDBRANCH  11  14
ENDBRANCH   1  11
TORSDOF 8
ENDMDL
MODEL 9
REMARK VINA RESULT:      -3.9      1.857      4.146
REMARK  Name = 
REMARK  9 active torsions:
REMARK  status: ('A' for Active; 'I' for Inactive)
REMARK    1  A    between atoms: C_1  and  C_2
REMARK    2  A    between atoms: C_2  and  O_4
REMARK    3  A    between atoms: C_2  and  C_5
REMARK    4  A    between atoms: C_5  and  O_7
REMARK    5  A    between atoms: C_5  and  C_8
REMARK    6  A    between atoms: C_8  and  O_10
REMARK    7  A    between atoms: C_8  and  C_11
REMARK    8  A    between atoms: C_11  and  O_13
REMARK    9  A    between atoms: C_11  and  C_14
REMARK                            x       y       z     vdW  Elec       q    Type
REMARK                         _______ _______ _______ _____ _____    ______ ____
ROOT
ATOM      1  C   UNL     1       8.861   0.992  21.707  0.00  0.00    +0.181 C 
ENDROOT
BRANCH   1   2
ATOM      2  O   UNL     1       9.931   1.921  21.485  0.00  0.00    -0.386 OA
ATOM      3  H   UNL     1       9.992   2.479  22.286  0.00  0.00    +0.210 HD
ENDBRANCH   1   2
BRANCH   1   4
ATOM      4  C   UNL     1       9.149   0.141  22.959  0.00  0.00    +0.174 C 
BRANCH   4   6
ATOM      5  C   UNL     1       9.957  -2.273  23.517  0.00  0.00    +0.040 C 
ATOM      6  C   UNL     1      10.182  -0.987  22.735  0.00  0.00    +0.142 C 
BRANCH   6   7
ATOM      7  O   UNL     1      10.139  -1.313  21.336  0.00  0.00    -0.389 OA
ATOM      8  H   UNL     1      10.618  -0.609  20.863  0.00  0.00    +0.210 HD
ENDBRANCH   6   7
ENDBRANCH   4   6
BRANCH   4   9
ATOM      9  O   UNL     1       9.549   0.978  24.062  0.00  0.00    -0.387 OA
ATOM     10  H   UNL     1      10.380   0.575  24.387  0.00  0.00    +0.210 HD
ENDBRANCH   4   9
ENDBRANCH   1   4
BRANCH   1  11
ATOM     11  C   UNL     1       7.529   1.761  21.849  0.00  0.00    +0.208 C 
BRANCH  11  12
ATOM     12  C   UNL     1       7.793   3.214  22.195  0.00  0.00    +0.257 C 
ATOM     13  O   UNL     1       8.343   3.589  23.229  0.00  0.00    -0.298 OA
ENDBRANCH  11  12
BRANCH  11  14
ATOM     14  O   UNL     1       6.681   1.217  22.855  0.00  0.00    -0.382 OA
ATOM     15  H   UNL     1       7.268   0.724  23.474  0.00  0.00    +0.210 HD
ENDBRANCH  11  14
ENDBRANCH   1  11
TORSDOF 8
ENDMDL
