MODEL 1
REMARK VINA RESULT:      -6.3      0.000      0.000
REMARK  Name = 
REMARK  7 active torsions:
REMARK  status: ('A' for Active; 'I' for Inactive)
REMARK    1  A    between atoms: C_2  and  N_3
REMARK    2  A    between atoms: C_2  and  C_4
REMARK    3  A    between atoms: C_2  and  C_11
REMARK    4  A    between atoms: C_4  and  C_5
REMARK    5  A    between atoms: C_5  and  C_6
REMARK    6  A    between atoms: C_6  and  N_7
REMARK    7  A    between atoms: C_11  and  C_13
REMARK                            x       y       z     vdW  Elec       q    Type
REMARK                         _______ _______ _______ _____ _____    ______ ____
ROOT
ATOM      1  C   UNL     1       6.100  -4.225  22.828  0.00  0.00    +0.125 C 
ENDROOT
BRANCH   1   2
ATOM      2  N   UNL     1       5.981  -4.339  21.356  0.00  0.00    -0.321 NA
ATOM      3  H   UNL     1       5.918  -3.407  20.945  0.00  0.00    +0.119 HD
ATOM      4  H   UNL     1       6.828  -4.771  20.981  0.00  0.00    +0.119 HD
ENDBRANCH   1   2
BRANCH   1   5
ATOM      5  C   UNL     1       7.597  -4.194  23.227  0.00  0.00    +0.204 C 
ATOM      6  O   UNL     1       8.182  -5.247  23.503  0.00  0.00    -0.288 OA
BRANCH   5   7
ATOM      7  C   UNL     1       8.260  -2.891  23.188  0.00  0.00    +0.146 A 
ATOM      8  S   UNL     1       9.048  -2.290  24.587  0.00  0.00    -0.064 S 
ATOM      9  C   UNL     1       9.489  -0.863  23.736  0.00  0.00    +0.040 A 
ATOM     10  C   UNL     1       9.013  -0.952  22.426  0.00  0.00    +0.079 A 
ATOM     11  C   UNL     1       9.267   0.124  21.546  0.00  0.00    +0.029 A 
ATOM     12  C   UNL     1       9.970   1.245  21.999  0.00  0.00    +0.002 A 
ATOM     13  C   UNL     1      10.431   1.310  23.311  0.00  0.00    +0.001 A 
ATOM     14  C   UNL     1      10.201   0.257  24.198  0.00  0.00    +0.017 A 
ATOM     15  N   UNL     1       8.318  -2.119  22.122  0.00  0.00    -0.236 NA
ENDBRANCH   5   7
ENDBRANCH   1   5
BRANCH   1  16
ATOM     16  C   UNL     1       5.357  -5.434  23.436  0.00  0.00    +0.029 C 
BRANCH  16  17
ATOM     17  C   UNL     1       4.518  -5.143  24.691  0.00  0.00    +0.039 C 
BRANCH  17  18
ATOM     18  C   UNL     1       4.905  -6.022  25.875  0.00  0.00    +0.196 C 
BRANCH  18  19
ATOM     19  N   UNL     1       6.345  -6.167  25.974  0.00  0.00    -0.276 N 
ATOM     20  H   UNL     1       6.822  -6.272  25.084  0.00  0.00    +0.258 HD
ATOM     21  C   UNL     1       7.086  -5.495  26.884  0.00  0.00    +0.376 C 
ATOM     22  N   UNL     1       6.677  -4.821  27.893  0.00  0.00    -0.130 NA
ATOM     23  H   UNL     1       5.658  -4.843  27.935  0.00  0.00    +0.306 HD
ATOM     24  N   UNL     1       8.404  -5.598  26.648  0.00  0.00    -0.289 N 
ATOM     25  H   UNL     1       8.908  -5.222  27.446  0.00  0.00    +0.255 HD
ATOM     26  H   UNL     1       8.701  -6.546  26.457  0.00  0.00    +0.255 HD
ENDBRANCH  18  19
ENDBRANCH  17  18
ENDBRANCH  16  17
ENDBRANCH   1  16
TORSDOF 7
ENDMDL
MODEL 2
REMARK VINA RESULT:      -6.2      1.648      3.048
REMARK  Name = 
REMARK  7 active torsions:
REMARK  status: ('A' for Active; 'I' for Inactive)
REMARK    1  A    between atoms: C_2  and  N_3
REMARK    2  A    between atoms: C_2  and  C_4
REMARK    3  A    between atoms: C_2  and  C_11
REMARK    4  A    between atoms: C_4  and  C_5
REMARK    5  A    between atoms: C_5  and  C_6
REMARK    6  A    between atoms: C_6  and  N_7
REMARK    7  A    between atoms: C_11  and  C_13
REMARK                            x       y       z     vdW  Elec       q    Type
REMARK                         _______ _______ _______ _____ _____    ______ ____
ROOT
ATOM      1  C   UNL     1       8.576  -3.944  25.900  0.00  0.00    +0.125 C 
ENDROOT
BRANCH   1   2
ATOM      2  N   UNL     1       7.716  -2.937  26.565  0.00  0.00    -0.321 NA
ATOM      3  H   UNL     1       6.753  -3.275  26.593  0.00  0.00    +0.119 HD
ATOM      4  H   UNL     1       8.017  -2.822  27.535  0.00  0.00    +0.119 HD
ENDBRANCH   1   2
BRANCH   1   5
ATOM      5  C   UNL     1       8.548  -3.717  24.367  0.00  0.00    +0.204 C 
ATOM      6  O   UNL     1       8.168  -4.622  23.617  0.00  0.00    -0.288 OA
BRANCH   5   7
ATOM      7  C   UNL     1       8.924  -2.384  23.894  0.00  0.00    +0.146 A 
ATOM      8  S   UNL     1       8.607  -1.931  22.272  0.00  0.00    -0.064 S 
ATOM      9  C   UNL     1       9.306  -0.387  22.558  0.00  0.00    +0.040 A 
ATOM     10  C   UNL     1       9.723  -0.318  23.889  0.00  0.00    +0.079 A 
ATOM     11  C   UNL     1      10.330   0.875  24.341  0.00  0.00    +0.029 A 
ATOM     12  C   UNL     1      10.510   1.945  23.458  0.00  0.00    +0.002 A 
ATOM     13  C   UNL     1      10.088   1.850  22.135  0.00  0.00    +0.001 A 
ATOM     14  C   UNL     1       9.477   0.686  21.666  0.00  0.00    +0.017 A 
ATOM     15  N   UNL     1       9.493  -1.463  24.646  0.00  0.00    -0.236 NA
ENDBRANCH   5   7
ENDBRANCH   1   5
BRANCH   1  16
ATOM     16  C   UNL     1       8.032  -5.334  26.296  0.00  0.00    +0.029 C 
BRANCH  16  17
ATOM     17  C   UNL     1       6.697  -5.339  27.056  0.00  0.00    +0.039 C 
BRANCH  17  18
ATOM     18  C   UNL     1       5.582  -6.037  26.283  0.00  0.00    +0.196 C 
BRANCH  18  19
ATOM     19  N   UNL     1       5.663  -5.743  24.865  0.00  0.00    -0.276 N 
ATOM     20  H   UNL     1       6.550  -5.355  24.562  0.00  0.00    +0.258 HD
ATOM     21  C   UNL     1       5.093  -6.529  23.923  0.00  0.00    +0.376 C 
ATOM     22  N   UNL     1       4.257  -7.485  24.092  0.00  0.00    -0.130 NA
ATOM     23  H   UNL     1       4.059  -7.601  25.086  0.00  0.00    +0.306 HD
ATOM     24  N   UNL     1       5.484  -6.206  22.680  0.00  0.00    -0.289 N 
ATOM     25  H   UNL     1       4.904  -6.708  22.014  0.00  0.00    +0.255 HD
ATOM     26  H   UNL     1       5.450  -5.211  22.498  0.00  0.00    +0.255 HD
ENDBRANCH  18  19
ENDBRANCH  17  18
ENDBRANCH  16  17
ENDBRANCH   1  16
TORSDOF 7
ENDMDL
MODEL 3
REMARK VINA RESULT:      -6.0      3.252      7.436
REMARK  Name = 
REMARK  7 active torsions:
REMARK  status: ('A' for Active; 'I' for Inactive)
REMARK    1  A    between atoms: C_2  and  N_3
REMARK    2  A    between atoms: C_2  and  C_4
REMARK    3  A    between atoms: C_2  and  C_11
REMARK    4  A    between atoms: C_4  and  C_5
REMARK    5  A    between atoms: C_5  and  C_6
REMARK    6  A    between atoms: C_6  and  N_7
REMARK    7  A    between atoms: C_11  and  C_13
REMARK                            x       y       z     vdW  Elec       q    Type
REMARK                         _______ _______ _______ _____ _____    ______ ____
ROOT
ATOM      1  C   UNL     1      10.110  -0.416  22.534  0.00  0.00    +0.125 C 
ENDROOT
BRANCH   1   2
ATOM      2  N   UNL     1      10.158  -1.493  21.517  0.00  0.00    -0.321 NA
ATOM      3  H   UNL     1       9.609  -2.291  21.838  0.00  0.00    +0.119 HD
ATOM      4  H   UNL     1       9.721  -1.162  20.654  0.00  0.00    +0.119 HD
ENDBRANCH   1   2
BRANCH   1   5
ATOM      5  C   UNL     1       9.296  -0.899  23.761  0.00  0.00    +0.204 C 
ATOM      6  O   UNL     1       9.464  -0.362  24.861  0.00  0.00    -0.288 OA
BRANCH   5   7
ATOM      7  C   UNL     1       8.305  -1.947  23.520  0.00  0.00    +0.146 A 
ATOM      8  S   UNL     1       6.649  -1.536  23.351  0.00  0.00    -0.064 S 
ATOM      9  C   UNL     1       6.252  -3.194  23.128  0.00  0.00    +0.040 A 
ATOM     10  C   UNL     1       7.424  -3.952  23.183  0.00  0.00    +0.079 A 
ATOM     11  C   UNL     1       7.325  -5.352  23.021  0.00  0.00    +0.029 A 
ATOM     12  C   UNL     1       6.074  -5.946  22.824  0.00  0.00    +0.002 A 
ATOM     13  C   UNL     1       4.921  -5.168  22.775  0.00  0.00    +0.001 A 
ATOM     14  C   UNL     1       4.992  -3.782  22.923  0.00  0.00    +0.017 A 
ATOM     15  N   UNL     1       8.592  -3.228  23.400  0.00  0.00    -0.236 NA
ENDBRANCH   5   7
ENDBRANCH   1   5
BRANCH   1  16
ATOM     16  C   UNL     1       9.473   0.817  21.857  0.00  0.00    +0.029 C 
BRANCH  16  17
ATOM     17  C   UNL     1       9.915   2.183  22.405  0.00  0.00    +0.039 C 
BRANCH  17  18
ATOM     18  C   UNL     1       8.875   2.812  23.327  0.00  0.00    +0.196 C 
BRANCH  18  19
ATOM     19  N   UNL     1       8.518   4.146  22.882  0.00  0.00    -0.276 N 
ATOM     20  H   UNL     1       9.304   4.723  22.599  0.00  0.00    +0.258 HD
ATOM     21  C   UNL     1       7.401   4.402  22.164  0.00  0.00    +0.376 C 
ATOM     22  N   UNL     1       6.411   3.622  21.938  0.00  0.00    -0.130 NA
ATOM     23  H   UNL     1       6.572   2.720  22.387  0.00  0.00    +0.306 HD
ATOM     24  N   UNL     1       7.387   5.649  21.666  0.00  0.00    -0.289 N 
ATOM     25  H   UNL     1       6.464   5.838  21.286  0.00  0.00    +0.255 HD
ATOM     26  H   UNL     1       7.639   6.353  22.347  0.00  0.00    +0.255 HD
ENDBRANCH  18  19
ENDBRANCH  17  18
ENDBRANCH  16  17
ENDBRANCH   1  16
TORSDOF 7
ENDMDL
MODEL 4
REMARK VINA RESULT:      -6.0      2.275      3.386
REMARK  Name = 
REMARK  7 active torsions:
REMARK  status: ('A' for Active; 'I' for Inactive)
REMARK    1  A    between atoms: C_2  and  N_3
REMARK    2  A    between atoms: C_2  and  C_4
REMARK    3  A    between atoms: C_2  and  C_11
REMARK    4  A    between atoms: C_4  and  C_5
REMARK    5  A    between atoms: C_5  and  C_6
REMARK    6  A    between atoms: C_6  and  N_7
REMARK    7  A    between atoms: C_11  and  C_13
REMARK                            x       y       z     vdW  Elec       q    Type
REMARK                         _______ _______ _______ _____ _____    ______ ____
ROOT
ATOM      1  C   UNL     1       9.094  -4.532  24.564  0.00  0.00    +0.125 C 
ENDROOT
BRANCH   1   2
ATOM      2  N   UNL     1       9.937  -5.499  25.305  0.00  0.00    -0.321 NA
ATOM      3  H   UNL     1      10.922  -5.268  25.170  0.00  0.00    +0.119 HD
ATOM      4  H   UNL     1       9.748  -5.415  26.306  0.00  0.00    +0.119 HD
ENDBRANCH   1   2
BRANCH   1   5
ATOM      5  C   UNL     1       8.830  -3.288  25.450  0.00  0.00    +0.204 C 
ATOM      6  O   UNL     1       8.463  -3.433  26.621  0.00  0.00    -0.288 OA
BRANCH   5   7
ATOM      7  C   UNL     1       9.101  -1.984  24.846  0.00  0.00    +0.146 A 
ATOM      8  S   UNL     1       9.083  -0.572  25.818  0.00  0.00    -0.064 S 
ATOM      9  C   UNL     1       9.453   0.390  24.441  0.00  0.00    +0.040 A 
ATOM     10  C   UNL     1       9.581  -0.443  23.328  0.00  0.00    +0.079 A 
ATOM     11  C   UNL     1       9.887   0.146  22.081  0.00  0.00    +0.029 A 
ATOM     12  C   UNL     1      10.042   1.532  21.983  0.00  0.00    +0.002 A 
ATOM     13  C   UNL     1       9.906   2.341  23.107  0.00  0.00    +0.001 A 
ATOM     14  C   UNL     1       9.614   1.783  24.353  0.00  0.00    +0.017 A 
ATOM     15  N   UNL     1       9.385  -1.800  23.572  0.00  0.00    -0.236 NA
ENDBRANCH   5   7
ENDBRANCH   1   5
BRANCH   1  16
ATOM     16  C   UNL     1       7.790  -5.268  24.185  0.00  0.00    +0.029 C 
BRANCH  16  17
ATOM     17  C   UNL     1       7.534  -5.443  22.680  0.00  0.00    +0.039 C 
BRANCH  17  18
ATOM     18  C   UNL     1       6.365  -4.601  22.179  0.00  0.00    +0.196 C 
BRANCH  18  19
ATOM     19  N   UNL     1       6.637  -3.183  22.329  0.00  0.00    -0.276 N 
ATOM     20  H   UNL     1       6.879  -2.705  21.468  0.00  0.00    +0.258 HD
ATOM     21  C   UNL     1       5.949  -2.395  23.186  0.00  0.00    +0.376 C 
ATOM     22  N   UNL     1       5.139  -2.752  24.111  0.00  0.00    -0.130 NA
ATOM     23  H   UNL     1       5.059  -3.769  24.129  0.00  0.00    +0.306 HD
ATOM     24  N   UNL     1       6.202  -1.089  22.997  0.00  0.00    -0.289 N 
ATOM     25  H   UNL     1       5.797  -0.564  23.765  0.00  0.00    +0.255 HD
ATOM     26  H   UNL     1       7.189  -0.884  22.910  0.00  0.00    +0.255 HD
ENDBRANCH  18  19
ENDBRANCH  17  18
ENDBRANCH  16  17
ENDBRANCH   1  16
TORSDOF 7
ENDMDL
MODEL 5
REMARK VINA RESULT:      -6.0      2.226      6.544
REMARK  Name = 
REMARK  7 active torsions:
REMARK  status: ('A' for Active; 'I' for Inactive)
REMARK    1  A    between atoms: C_2  and  N_3
REMARK    2  A    between atoms: C_2  and  C_4
REMARK    3  A    between atoms: C_2  and  C_11
REMARK    4  A    between atoms: C_4  and  C_5
REMARK    5  A    between atoms: C_5  and  C_6
REMARK    6  A    between atoms: C_6  and  N_7
REMARK    7  A    between atoms: C_11  and  C_13
REMARK                            x       y       z     vdW  Elec       q    Type
REMARK                         _______ _______ _______ _____ _____    ______ ____
ROOT
ATOM      1  C   UNL     1       8.621  -1.929  22.290  0.00  0.00    +0.125 C 
ENDROOT
BRANCH   1   2
ATOM      2  N   UNL     1       7.477  -1.051  22.631  0.00  0.00    -0.321 NA
ATOM      3  H   UNL     1       7.565  -0.734  23.596  0.00  0.00    +0.119 HD
ATOM      4  H   UNL     1       7.504  -0.217  22.041  0.00  0.00    +0.119 HD
ENDBRANCH   1   2
BRANCH   1   5
ATOM      5  C   UNL     1       9.027  -2.757  23.536  0.00  0.00    +0.204 C 
ATOM      6  O   UNL     1      10.128  -2.574  24.065  0.00  0.00    -0.288 OA
BRANCH   5   7
ATOM      7  C   UNL     1       8.026  -3.686  24.060  0.00  0.00    +0.146 A 
ATOM      8  S   UNL     1       7.928  -3.975  25.747  0.00  0.00    -0.064 S 
ATOM      9  C   UNL     1       6.633  -5.075  25.492  0.00  0.00    +0.040 A 
ATOM     10  C   UNL     1       6.351  -5.135  24.125  0.00  0.00    +0.079 A 
ATOM     11  C   UNL     1       5.311  -5.986  23.691  0.00  0.00    +0.029 A 
ATOM     12  C   UNL     1       4.600  -6.751  24.621  0.00  0.00    +0.002 A 
ATOM     13  C   UNL     1       4.901  -6.675  25.978  0.00  0.00    +0.001 A 
ATOM     14  C   UNL     1       5.919  -5.835  26.434  0.00  0.00    +0.017 A 
ATOM     15  N   UNL     1       7.150  -4.331  23.317  0.00  0.00    -0.236 NA
ENDBRANCH   5   7
ENDBRANCH   1   5
BRANCH   1  16
ATOM     16  C   UNL     1       9.763  -1.012  21.800  0.00  0.00    +0.029 C 
BRANCH  16  17
ATOM     17  C   UNL     1       9.366   0.436  21.475  0.00  0.00    +0.039 C 
BRANCH  17  18
ATOM     18  C   UNL     1       9.999   1.448  22.425  0.00  0.00    +0.196 C 
BRANCH  18  19
ATOM     19  N   UNL     1       9.188   1.631  23.614  0.00  0.00    -0.276 N 
ATOM     20  H   UNL     1       8.189   1.683  23.442  0.00  0.00    +0.258 HD
ATOM     21  C   UNL     1       9.481   1.040  24.795  0.00  0.00    +0.376 C 
ATOM     22  N   UNL     1      10.557   0.431  25.129  0.00  0.00    -0.130 NA
ATOM     23  H   UNL     1      11.213   0.435  24.348  0.00  0.00    +0.306 HD
ATOM     24  N   UNL     1       8.483   1.155  25.687  0.00  0.00    -0.289 N 
ATOM     25  H   UNL     1       8.819   0.848  26.594  0.00  0.00    +0.255 HD
ATOM     26  H   UNL     1       8.109   2.093  25.748  0.00  0.00    +0.255 HD
ENDBRANCH  18  19
ENDBRANCH  17  18
ENDBRANCH  16  17
ENDBRANCH   1  16
TORSDOF 7
ENDMDL
MODEL 6
REMARK VINA RESULT:      -5.9      2.641      7.319
REMARK  Name = 
REMARK  7 active torsions:
REMARK  status: ('A' for Active; 'I' for Inactive)
REMARK    1  A    between atoms: C_2  and  N_3
REMARK    2  A    between atoms: C_2  and  C_4
REMARK    3  A    between atoms: C_2  and  C_11
REMARK    4  A    between atoms: C_4  and  C_5
REMARK    5  A    between atoms: C_5  and  C_6
REMARK    6  A    between atoms: C_6  and  N_7
REMARK    7  A    between atoms: C_11  and  C_13
REMARK                            x       y       z     vdW  Elec       q    Type
REMARK                         _______ _______ _______ _____ _____    ______ ____
ROOT
ATOM      1  C   UNL     1       8.742  -1.606  23.773  0.00  0.00    +0.125 C 
ENDROOT
BRANCH   1   2
ATOM      2  N   UNL     1       9.801  -0.751  24.357  0.00  0.00    -0.321 NA
ATOM      3  H   UNL     1       9.383   0.101  24.733  0.00  0.00    +0.119 HD
ATOM      4  H   UNL     1      10.235  -1.239  25.142  0.00  0.00    +0.119 HD
ENDBRANCH   1   2
BRANCH   1   5
ATOM      5  C   UNL     1       9.097  -3.098  23.998  0.00  0.00    +0.204 C 
ATOM      6  O   UNL     1      10.281  -3.450  24.035  0.00  0.00    -0.288 OA
BRANCH   5   7
ATOM      7  C   UNL     1       7.978  -4.012  24.223  0.00  0.00    +0.146 A 
ATOM      8  S   UNL     1       7.093  -4.626  22.889  0.00  0.00    -0.064 S 
ATOM      9  C   UNL     1       6.077  -5.508  23.959  0.00  0.00    +0.040 A 
ATOM     10  C   UNL     1       6.497  -5.283  25.272  0.00  0.00    +0.079 A 
ATOM     11  C   UNL     1       5.794  -5.919  26.319  0.00  0.00    +0.029 A 
ATOM     12  C   UNL     1       4.700  -6.740  26.028  0.00  0.00    +0.002 A 
ATOM     13  C   UNL     1       4.299  -6.946  24.711  0.00  0.00    +0.001 A 
ATOM     14  C   UNL     1       4.983  -6.337  23.657  0.00  0.00    +0.017 A 
ATOM     15  N   UNL     1       7.589  -4.432  25.411  0.00  0.00    -0.236 NA
ENDBRANCH   5   7
ENDBRANCH   1   5
BRANCH   1  16
ATOM     16  C   UNL     1       8.647  -1.247  22.274  0.00  0.00    +0.029 C 
BRANCH  16  17
ATOM     17  C   UNL     1       9.714  -0.272  21.751  0.00  0.00    +0.039 C 
BRANCH  17  18
ATOM     18  C   UNL     1       9.167   1.134  21.525  0.00  0.00    +0.196 C 
BRANCH  18  19
ATOM     19  N   UNL     1      10.169   2.140  21.819  0.00  0.00    -0.276 N 
ATOM     20  H   UNL     1      10.326   2.812  21.074  0.00  0.00    +0.258 HD
ATOM     21  C   UNL     1      10.320   2.684  23.048  0.00  0.00    +0.376 C 
ATOM     22  N   UNL     1       9.800   2.297  24.153  0.00  0.00    -0.130 NA
ATOM     23  H   UNL     1       9.212   1.479  23.991  0.00  0.00    +0.306 HD
ATOM     24  N   UNL     1      11.138   3.749  23.041  0.00  0.00    -0.289 N 
ATOM     25  H   UNL     1      11.345   4.008  24.000  0.00  0.00    +0.255 HD
ATOM     26  H   UNL     1      11.994   3.590  22.525  0.00  0.00    +0.255 HD
ENDBRANCH  18  19
ENDBRANCH  17  18
ENDBRANCH  16  17
ENDBRANCH   1  16
TORSDOF 7
ENDMDL
MODEL 7
REMARK VINA RESULT:      -5.9      1.792      2.213
REMARK  Name = 
REMARK  7 active torsions:
REMARK  status: ('A' for Active; 'I' for Inactive)
REMARK    1  A    between atoms: C_2  and  N_3
REMARK    2  A    between atoms: C_2  and  C_4
REMARK    3  A    between atoms: C_2  and  C_11
REMARK    4  A    between atoms: C_4  and  C_5
REMARK    5  A    between atoms: C_5  and  C_6
REMARK    6  A    between atoms: C_6  and  N_7
REMARK    7  A    between atoms: C_11  and  C_13
REMARK                            x       y       z     vdW  Elec       q    Type
REMARK                         _______ _______ _______ _____ _____    ______ ____
ROOT
ATOM      1  C   UNL     1       7.401  -4.269  23.918  0.00  0.00    +0.125 C 
ENDROOT
BRANCH   1   2
ATOM      2  N   UNL     1       7.361  -5.080  22.679  0.00  0.00    -0.321 NA
ATOM      3  H   UNL     1       6.754  -4.628  21.994  0.00  0.00    +0.119 HD
ATOM      4  H   UNL     1       8.296  -5.116  22.268  0.00  0.00    +0.119 HD
ENDBRANCH   1   2
BRANCH   1   5
ATOM      5  C   UNL     1       8.852  -3.793  24.180  0.00  0.00    +0.204 C 
ATOM      6  O   UNL     1       9.687  -4.582  24.633  0.00  0.00    -0.288 OA
BRANCH   5   7
ATOM      7  C   UNL     1       9.169  -2.415  23.802  0.00  0.00    +0.146 A 
ATOM      8  S   UNL     1       8.861  -1.874  22.205  0.00  0.00    -0.064 S 
ATOM      9  C   UNL     1       9.473  -0.319  22.605  0.00  0.00    +0.040 A 
ATOM     10  C   UNL     1       9.859  -0.315  23.947  0.00  0.00    +0.079 A 
ATOM     11  C   UNL     1      10.393   0.876  24.488  0.00  0.00    +0.029 A 
ATOM     12  C   UNL     1      10.535   2.008  23.680  0.00  0.00    +0.002 A 
ATOM     13  C   UNL     1      10.146   1.978  22.344  0.00  0.00    +0.001 A 
ATOM     14  C   UNL     1       9.606   0.817  21.787  0.00  0.00    +0.017 A 
ATOM     15  N   UNL     1       9.673  -1.517  24.624  0.00  0.00    -0.236 NA
ENDBRANCH   5   7
ENDBRANCH   1   5
BRANCH   1  16
ATOM     16  C   UNL     1       6.863  -5.161  25.059  0.00  0.00    +0.029 C 
BRANCH  16  17
ATOM     17  C   UNL     1       5.347  -5.095  25.302  0.00  0.00    +0.039 C 
BRANCH  17  18
ATOM     18  C   UNL     1       4.832  -6.267  26.131  0.00  0.00    +0.196 C 
BRANCH  18  19
ATOM     19  N   UNL     1       5.797  -6.660  27.141  0.00  0.00    -0.276 N 
ATOM     20  H   UNL     1       6.655  -6.118  27.141  0.00  0.00    +0.258 HD
ATOM     21  C   UNL     1       5.434  -7.057  28.382  0.00  0.00    +0.376 C 
ATOM     22  N   UNL     1       4.261  -7.347  28.807  0.00  0.00    -0.130 NA
ATOM     23  H   UNL     1       3.581  -7.233  28.055  0.00  0.00    +0.306 HD
ATOM     24  N   UNL     1       6.481  -7.148  29.218  0.00  0.00    -0.289 N 
ATOM     25  H   UNL     1       6.178  -7.606  30.072  0.00  0.00    +0.255 HD
ATOM     26  H   UNL     1       7.269  -7.638  28.816  0.00  0.00    +0.255 HD
ENDBRANCH  18  19
ENDBRANCH  17  18
ENDBRANCH  16  17
ENDBRANCH   1  16
TORSDOF 7
ENDMDL
MODEL 8
REMARK VINA RESULT:      -5.8      4.080      8.059
REMARK  Name = 
REMARK  7 active torsions:
REMARK  status: ('A' for Active; 'I' for Inactive)
REMARK    1  A    between atoms: C_2  and  N_3
REMARK    2  A    between atoms: C_2  and  C_4
REMARK    3  A    between atoms: C_2  and  C_11
REMARK    4  A    between atoms: C_4  and  C_5
REMARK    5  A    between atoms: C_5  and  C_6
REMARK    6  A    between atoms: C_6  and  N_7
REMARK    7  A    between atoms: C_11  and  C_13
REMARK                            x       y       z     vdW  Elec       q    Type
REMARK                         _______ _______ _______ _____ _____    ______ ____
ROOT
ATOM      1  C   UNL     1       9.492   0.387  23.508  0.00  0.00    +0.125 C 
ENDROOT
BRANCH   1   2
ATOM      2  N   UNL     1       8.231   1.003  23.032  0.00  0.00    -0.321 NA
ATOM      3  H   UNL     1       7.521   0.280  22.913  0.00  0.00    +0.119 HD
ATOM      4  H   UNL     1       7.881   1.648  23.743  0.00  0.00    +0.119 HD
ENDBRANCH   1   2
BRANCH   1   5
ATOM      5  C   UNL     1       9.165  -0.775  24.481  0.00  0.00    +0.204 C 
ATOM      6  O   UNL     1       9.370  -0.639  25.692  0.00  0.00    -0.288 OA
BRANCH   5   7
ATOM      7  C   UNL     1       8.558  -1.970  23.896  0.00  0.00    +0.146 A 
ATOM      8  S   UNL     1       9.030  -3.524  24.443  0.00  0.00    -0.064 S 
ATOM      9  C   UNL     1       7.941  -4.255  23.331  0.00  0.00    +0.040 A 
ATOM     10  C   UNL     1       7.276  -3.252  22.623  0.00  0.00    +0.079 A 
ATOM     11  C   UNL     1       6.327  -3.635  21.650  0.00  0.00    +0.029 A 
ATOM     12  C   UNL     1       6.083  -4.991  21.407  0.00  0.00    +0.002 A 
ATOM     13  C   UNL     1       6.762  -5.972  22.125  0.00  0.00    +0.001 A 
ATOM     14  C   UNL     1       7.698  -5.620  23.099  0.00  0.00    +0.017 A 
ATOM     15  N   UNL     1       7.631  -1.949  22.960  0.00  0.00    -0.236 NA
ENDBRANCH   5   7
ENDBRANCH   1   5
BRANCH   1  16
ATOM     16  C   UNL     1      10.314   1.505  24.186  0.00  0.00    +0.029 C 
BRANCH  16  17
ATOM     17  C   UNL     1      10.056   2.930  23.672  0.00  0.00    +0.039 C 
BRANCH  17  18
ATOM     18  C   UNL     1      11.293   3.563  23.044  0.00  0.00    +0.196 C 
BRANCH  18  19
ATOM     19  N   UNL     1      11.502   4.910  23.540  0.00  0.00    -0.276 N 
ATOM     20  H   UNL     1      10.887   5.183  24.299  0.00  0.00    +0.258 HD
ATOM     21  C   UNL     1      12.730   5.468  23.642  0.00  0.00    +0.376 C 
ATOM     22  N   UNL     1      13.836   5.038  23.161  0.00  0.00    -0.130 NA
ATOM     23  H   UNL     1      13.679   4.162  22.661  0.00  0.00    +0.306 HD
ATOM     24  N   UNL     1      12.715   6.619  24.335  0.00  0.00    -0.289 N 
ATOM     25  H   UNL     1      13.618   7.072  24.235  0.00  0.00    +0.255 HD
ATOM     26  H   UNL     1      11.973   7.245  24.050  0.00  0.00    +0.255 HD
ENDBRANCH  18  19
ENDBRANCH  17  18
ENDBRANCH  16  17
ENDBRANCH   1  16
TORSDOF 7
ENDMDL
MODEL 9
REMARK VINA RESULT:      -5.7      4.255      8.056
REMARK  Name = 
REMARK  7 active torsions:
REMARK  status: ('A' for Active; 'I' for Inactive)
REMARK    1  A    between atoms: C_2  and  N_3
REMARK    2  A    between atoms: C_2  and  C_4
REMARK    3  A    between atoms: C_2  and  C_11
REMARK    4  A    between atoms: C_4  and  C_5
REMARK    5  A    between atoms: C_5  and  C_6
REMARK    6  A    between atoms: C_6  and  N_7
REMARK    7  A    between atoms: C_11  and  C_13
REMARK                            x       y       z     vdW  Elec       q    Type
REMARK                         _______ _______ _______ _____ _____    ______ ____
ROOT
ATOM      1  C   UNL     1       9.695   1.088  22.520  0.00  0.00    +0.125 C 
ENDROOT
BRANCH   1   2
ATOM      2  N   UNL     1       9.470   2.008  21.381  0.00  0.00    -0.321 NA
ATOM      3  H   UNL     1       8.943   2.822  21.699  0.00  0.00    +0.119 HD
ATOM      4  H   UNL     1      10.370   2.353  21.041  0.00  0.00    +0.119 HD
ENDBRANCH   1   2
BRANCH   1   5
ATOM      5  C   UNL     1       8.341   0.490  22.979  0.00  0.00    +0.204 C 
ATOM      6  O   UNL     1       7.291   1.101  22.756  0.00  0.00    -0.288 OA
BRANCH   5   7
ATOM      7  C   UNL     1       8.387  -0.830  23.608  0.00  0.00    +0.146 A 
ATOM      8  S   UNL     1       8.419  -2.241  22.635  0.00  0.00    -0.064 S 
ATOM      9  C   UNL     1       8.455  -3.222  24.046  0.00  0.00    +0.040 A 
ATOM     10  C   UNL     1       8.455  -2.397  25.173  0.00  0.00    +0.079 A 
ATOM     11  C   UNL     1       8.483  -3.003  26.448  0.00  0.00    +0.029 A 
ATOM     12  C   UNL     1       8.497  -4.397  26.559  0.00  0.00    +0.002 A 
ATOM     13  C   UNL     1       8.494  -5.198  25.420  0.00  0.00    +0.001 A 
ATOM     14  C   UNL     1       8.476  -4.624  24.148  0.00  0.00    +0.017 A 
ATOM     15  N   UNL     1       8.423  -1.030  24.910  0.00  0.00    -0.236 NA
ENDBRANCH   5   7
ENDBRANCH   1   5
BRANCH   1  16
ATOM     16  C   UNL     1      10.380   1.908  23.635  0.00  0.00    +0.029 C 
BRANCH  16  17
ATOM     17  C   UNL     1       9.600   3.131  24.141  0.00  0.00    +0.039 C 
BRANCH  17  18
ATOM     18  C   UNL     1      10.205   4.451  23.675  0.00  0.00    +0.196 C 
BRANCH  18  19
ATOM     19  N   UNL     1      11.605   4.293  23.326  0.00  0.00    -0.276 N 
ATOM     20  H   UNL     1      11.770   3.810  22.449  0.00  0.00    +0.258 HD
ATOM     21  C   UNL     1      12.532   5.244  23.579  0.00  0.00    +0.376 C 
ATOM     22  N   UNL     1      12.413   6.290  24.308  0.00  0.00    -0.130 NA
ATOM     23  H   UNL     1      11.472   6.334  24.700  0.00  0.00    +0.306 HD
ATOM     24  N   UNL     1      13.703   4.992  22.971  0.00  0.00    -0.289 N 
ATOM     25  H   UNL     1      14.401   5.638  23.328  0.00  0.00    +0.255 HD
ATOM     26  H   UNL     1      14.014   4.037  23.087  0.00  0.00    +0.255 HD
ENDBRANCH  18  19
ENDBRANCH  17  18
ENDBRANCH  16  17
ENDBRANCH   1  16
TORSDOF 7
ENDMDL
