MODEL 1
REMARK VINA RESULT:      -6.7      0.000      0.000
REMARK  Name = 
REMARK  25 active torsions:
REMARK  status: ('A' for Active; 'I' for Inactive)
REMARK    1  A    between atoms: N_10  and  C_11
REMARK    2  A    between atoms: C_14  and  C_16
REMARK    3  A    between atoms: C_16  and  O_17
REMARK    4  A    between atoms: O_17  and  P_18
REMARK    5  A    between atoms: P_18  and  O_19
REMARK    6  A    between atoms: P_18  and  O_21
REMARK    7  A    between atoms: O_21  and  P_22
REMARK    8  A    between atoms: P_22  and  O_23
REMARK    9  A    between atoms: P_22  and  O_25
REMARK   10  A    between atoms: O_25  and  P_26
REMARK   11  A    between atoms: P_26  and  O_27
REMARK   12  A    between atoms: P_26  and  O_29
REMARK   13  A    between atoms: O_29  and  P_30
REMARK   14  A    between atoms: P_30  and  O_31
REMARK   15  A    between atoms: P_30  and  O_33
REMARK   16  A    between atoms: O_33  and  P_34
REMARK   17  A    between atoms: P_34  and  O_35
REMARK   18  A    between atoms: P_34  and  O_37
REMARK   19  A    between atoms: O_37  and  C_38
REMARK   20  A    between atoms: C_38  and  C_39
REMARK   21  A    between atoms: C_42  and  N_50
REMARK   22  A    between atoms: C_44  and  O_46
REMARK   23  A    between atoms: C_47  and  O_49
REMARK   24  A    between atoms: C_58  and  O_60
REMARK   25  A    between atoms: C_61  and  O_63
REMARK                            x       y       z     vdW  Elec       q    Type
REMARK                         _______ _______ _______ _____ _____    ______ ____
ROOT
ATOM      1  P   UNL     1       5.056   2.059  28.680  0.00  0.00    +0.492 P 
ATOM      2  O   UNL     1       3.952   1.986  29.734  0.00  0.00    -0.226 OA
ENDROOT
BRANCH   1   3
ATOM      3  O   UNL     1       5.137   0.337  28.820  0.00  0.00    -0.302 OA
ATOM      4  H   UNL     1       5.210   0.112  27.855  0.00  0.00    +0.222 HD
ENDBRANCH   1   3
BRANCH   1   5
ATOM      5  O   UNL     1       4.974   3.782  28.539  0.00  0.00    -0.186 OA
BRANCH   5   6
ATOM      6  P   UNL     1       6.477   4.382  27.928  0.00  0.00    +0.492 P 
ATOM      7  O   UNL     1       7.246   4.969  29.112  0.00  0.00    -0.226 OA
BRANCH   6   8
ATOM      8  O   UNL     1       7.224   2.860  28.270  0.00  0.00    -0.302 OA
ATOM      9  H   UNL     1       7.192   2.372  27.418  0.00  0.00    +0.222 HD
ENDBRANCH   6   8
BRANCH   6  10
ATOM     10  O   UNL     1       5.729   5.904  27.586  0.00  0.00    -0.186 OA
BRANCH  10  11
ATOM     11  P   UNL     1       5.512   5.743  25.965  0.00  0.00    +0.483 P 
ATOM     12  O   UNL     1       4.106   5.973  25.518  0.00  0.00    -0.227 OA
BRANCH  11  13
ATOM     13  O   UNL     1       5.939   4.218  25.729  0.00  0.00    -0.302 OA
ATOM     14  H   UNL     1       6.818   4.014  26.119  0.00  0.00    +0.222 HD
ENDBRANCH  11  13
BRANCH  11  15
ATOM     15  O   UNL     1       6.609   6.535  25.077  0.00  0.00    -0.284 OA
BRANCH  15  16
ATOM     16  C   UNL     1       6.468   6.292  23.657  0.00  0.00    +0.206 C 
BRANCH  16  17
ATOM     17  C   UNL     1       7.759   6.020  22.845  0.00  0.00    +0.178 C 
ATOM     18  C   UNL     1       9.012   5.871  23.703  0.00  0.00    +0.178 C 
ATOM     19  C   UNL     1       9.092   4.371  23.980  0.00  0.00    +0.195 C 
ATOM     20  C   UNL     1       8.016   3.768  23.051  0.00  0.00    +0.255 C 
ATOM     21  O   UNL     1       7.690   4.779  22.091  0.00  0.00    -0.346 OA
BRANCH  20  22
ATOM     22  N   UNL     1       8.426   2.495  22.468  0.00  0.00    -0.271 N 
ATOM     23  C   UNL     1       7.371   1.633  22.195  0.00  0.00    +0.331 A 
ATOM     24  O   UNL     1       6.192   1.916  22.415  0.00  0.00    -0.246 OA
ATOM     25  N   UNL     1       7.707   0.410  21.704  0.00  0.00    -0.275 N 
ATOM     26  H   UNL     1       6.949  -0.236  21.561  0.00  0.00    +0.173 HD
ATOM     27  C   UNL     1       8.969  -0.103  21.692  0.00  0.00    +0.254 A 
ATOM     28  O   UNL     1       9.204  -1.290  21.485  0.00  0.00    -0.268 OA
ATOM     29  C   UNL     1      10.059   0.856  21.972  0.00  0.00    +0.088 A 
ATOM     30  C   UNL     1       9.740   2.100  22.343  0.00  0.00    +0.098 A 
ENDBRANCH  20  22
BRANCH  19  31
ATOM     31  O   UNL     1       8.838   4.081  25.354  0.00  0.00    -0.385 OA
ATOM     32  H   UNL     1       9.554   3.485  25.661  0.00  0.00    +0.210 HD
ENDBRANCH  19  31
BRANCH  18  33
ATOM     33  O   UNL     1      10.163   6.280  22.940  0.00  0.00    -0.386 OA
ATOM     34  H   UNL     1      10.245   5.699  22.163  0.00  0.00    +0.210 HD
ENDBRANCH  18  33
ENDBRANCH  16  17
ENDBRANCH  15  16
ENDBRANCH  11  15
ENDBRANCH  10  11
ENDBRANCH   6  10
ENDBRANCH   5   6
ENDBRANCH   1   5
BRANCH   1  35
ATOM     35  O   UNL     1       4.280   1.897  27.142  0.00  0.00    -0.186 OA
BRANCH  35  36
ATOM     36  P   UNL     1       5.209   0.827  26.151  0.00  0.00    +0.492 P 
ATOM     37  O   UNL     1       4.113  -0.234  26.277  0.00  0.00    -0.226 OA
BRANCH  36  38
ATOM     38  O   UNL     1       4.809   1.670  24.786  0.00  0.00    -0.302 OA
ATOM     39  H   UNL     1       4.299   1.063  24.203  0.00  0.00    +0.222 HD
ENDBRANCH  36  38
BRANCH  36  40
ATOM     40  O   UNL     1       6.138  -0.244  25.160  0.00  0.00    -0.186 OA
BRANCH  40  41
ATOM     41  P   UNL     1       7.824   0.058  25.408  0.00  0.00    +0.483 P 
ATOM     42  O   UNL     1       7.579   1.525  25.733  0.00  0.00    -0.227 OA
BRANCH  41  43
ATOM     43  O   UNL     1       9.509   0.361  25.656  0.00  0.00    -0.302 OA
ATOM     44  H   UNL     1       9.539   1.338  25.757  0.00  0.00    +0.222 HD
ENDBRANCH  41  43
BRANCH  41  45
ATOM     45  O   UNL     1       7.810  -0.828  26.792  0.00  0.00    -0.284 OA
BRANCH  45  46
ATOM     46  C   UNL     1       8.775  -1.874  26.788  0.00  0.00    +0.206 C 
BRANCH  46  50
ATOM     47  C   UNL     1       7.969  -5.372  26.170  0.00  0.00    +0.253 C 
ATOM     48  C   UNL     1       9.072  -5.176  25.115  0.00  0.00    +0.195 C 
ATOM     49  C   UNL     1       9.236  -3.652  25.006  0.00  0.00    +0.178 C 
ATOM     50  C   UNL     1       8.267  -3.103  26.054  0.00  0.00    +0.178 C 
ATOM     51  O   UNL     1       8.050  -4.175  26.989  0.00  0.00    -0.346 OA
BRANCH  47  59
ATOM     52  N   UNL     1       2.502  -5.584  23.537  0.00  0.00    -0.341 N 
ATOM     53  H   UNL     1       2.144  -6.025  24.375  0.00  0.00    +0.144 HD
ATOM     54  H   UNL     1       2.148  -5.898  22.641  0.00  0.00    +0.144 HD
ATOM     55  C   UNL     1       3.892  -5.495  23.522  0.00  0.00    +0.147 A 
ATOM     56  C   UNL     1       4.682  -5.548  24.686  0.00  0.00    +0.147 A 
ATOM     57  N   UNL     1       4.370  -5.680  26.018  0.00  0.00    -0.231 NA
ATOM     58  C   UNL     1       5.533  -5.636  26.637  0.00  0.00    +0.203 A 
ATOM     59  N   UNL     1       6.586  -5.511  25.758  0.00  0.00    -0.286 N 
ATOM     60  C   UNL     1       6.053  -5.457  24.504  0.00  0.00    +0.167 A 
ATOM     61  N   UNL     1       6.697  -5.325  23.339  0.00  0.00    -0.216 NA
ATOM     62  C   UNL     1       5.848  -5.278  22.299  0.00  0.00    +0.225 A 
ATOM     63  N   UNL     1       4.503  -5.363  22.324  0.00  0.00    -0.219 NA
ENDBRANCH  47  59
BRANCH  49  64
ATOM     64  O   UNL     1       8.907  -3.175  23.707  0.00  0.00    -0.386 OA
ATOM     65  H   UNL     1       9.657  -2.640  23.387  0.00  0.00    +0.210 HD
ENDBRANCH  49  64
BRANCH  48  66
ATOM     66  O   UNL     1      10.302  -5.768  25.597  0.00  0.00    -0.385 OA
ATOM     67  H   UNL     1      10.384  -5.591  26.551  0.00  0.00    +0.210 HD
ENDBRANCH  48  66
ENDBRANCH  46  50
ENDBRANCH  45  46
ENDBRANCH  41  45
ENDBRANCH  40  41
ENDBRANCH  36  40
ENDBRANCH  35  36
ENDBRANCH   1  35
TORSDOF 25
ENDMDL
MODEL 2
REMARK VINA RESULT:      -6.5      1.690      2.578
REMARK  Name = 
REMARK  25 active torsions:
REMARK  status: ('A' for Active; 'I' for Inactive)
REMARK    1  A    between atoms: N_10  and  C_11
REMARK    2  A    between atoms: C_14  and  C_16
REMARK    3  A    between atoms: C_16  and  O_17
REMARK    4  A    between atoms: O_17  and  P_18
REMARK    5  A    between atoms: P_18  and  O_19
REMARK    6  A    between atoms: P_18  and  O_21
REMARK    7  A    between atoms: O_21  and  P_22
REMARK    8  A    between atoms: P_22  and  O_23
REMARK    9  A    between atoms: P_22  and  O_25
REMARK   10  A    between atoms: O_25  and  P_26
REMARK   11  A    between atoms: P_26  and  O_27
REMARK   12  A    between atoms: P_26  and  O_29
REMARK   13  A    between atoms: O_29  and  P_30
REMARK   14  A    between atoms: P_30  and  O_31
REMARK   15  A    between atoms: P_30  and  O_33
REMARK   16  A    between atoms: O_33  and  P_34
REMARK   17  A    between atoms: P_34  and  O_35
REMARK   18  A    between atoms: P_34  and  O_37
REMARK   19  A    between atoms: O_37  and  C_38
REMARK   20  A    between atoms: C_38  and  C_39
REMARK   21  A    between atoms: C_42  and  N_50
REMARK   22  A    between atoms: C_44  and  O_46
REMARK   23  A    between atoms: C_47  and  O_49
REMARK   24  A    between atoms: C_58  and  O_60
REMARK   25  A    between atoms: C_61  and  O_63
REMARK                            x       y       z     vdW  Elec       q    Type
REMARK                         _______ _______ _______ _____ _____    ______ ____
ROOT
ATOM      1  P   UNL     1       2.280   1.025  28.058  0.00  0.00    +0.492 P 
ATOM      2  O   UNL     1       0.785   1.335  28.134  0.00  0.00    -0.226 OA
ENDROOT
BRANCH   1   3
ATOM      3  O   UNL     1       1.954  -0.234  29.198  0.00  0.00    -0.302 OA
ATOM      4  H   UNL     1       1.387  -0.814  28.622  0.00  0.00    +0.222 HD
ENDBRANCH   1   3
BRANCH   1   5
ATOM      5  O   UNL     1       2.606   2.285  26.917  0.00  0.00    -0.186 OA
BRANCH   5   6
ATOM      6  P   UNL     1       3.687   3.437  27.624  0.00  0.00    +0.492 P 
ATOM      7  O   UNL     1       2.859   4.323  28.556  0.00  0.00    -0.226 OA
BRANCH   6   8
ATOM      8  O   UNL     1       3.947   2.372  28.962  0.00  0.00    -0.302 OA
ATOM      9  H   UNL     1       3.581   2.853  29.736  0.00  0.00    +0.222 HD
ENDBRANCH   6   8
BRANCH   6  10
ATOM     10  O   UNL     1       3.426   4.502  26.285  0.00  0.00    -0.186 OA
BRANCH  10  11
ATOM     11  P   UNL     1       4.613   3.971  25.281  0.00  0.00    +0.483 P 
ATOM     12  O   UNL     1       4.122   3.097  24.174  0.00  0.00    -0.227 OA
BRANCH  11  13
ATOM     13  O   UNL     1       5.546   3.143  26.286  0.00  0.00    -0.302 OA
ATOM     14  H   UNL     1       5.696   2.222  25.978  0.00  0.00    +0.222 HD
ENDBRANCH  11  13
BRANCH  11  15
ATOM     15  O   UNL     1       5.618   5.138  24.783  0.00  0.00    -0.284 OA
BRANCH  15  16
ATOM     16  C   UNL     1       5.600   5.324  23.348  0.00  0.00    +0.206 C 
BRANCH  16  17
ATOM     17  C   UNL     1       6.949   5.224  22.594  0.00  0.00    +0.178 C 
ATOM     18  C   UNL     1       8.174   5.381  23.491  0.00  0.00    +0.178 C 
ATOM     19  C   UNL     1       8.512   3.952  23.906  0.00  0.00    +0.195 C 
ATOM     20  C   UNL     1       7.599   3.084  23.011  0.00  0.00    +0.255 C 
ATOM     21  O   UNL     1       7.135   3.932  21.955  0.00  0.00    -0.346 OA
BRANCH  20  22
ATOM     22  N   UNL     1       8.255   1.863  22.556  0.00  0.00    -0.271 N 
ATOM     23  C   UNL     1       7.536   0.704  22.821  0.00  0.00    +0.331 A 
ATOM     24  O   UNL     1       6.439   0.701  23.380  0.00  0.00    -0.246 OA
ATOM     25  N   UNL     1       8.134  -0.466  22.468  0.00  0.00    -0.275 N 
ATOM     26  H   UNL     1       7.640  -1.309  22.711  0.00  0.00    +0.173 HD
ATOM     27  C   UNL     1       9.442  -0.595  22.111  0.00  0.00    +0.254 A 
ATOM     28  O   UNL     1      10.012  -1.681  22.049  0.00  0.00    -0.268 OA
ATOM     29  C   UNL     1      10.160   0.665  21.823  0.00  0.00    +0.088 A 
ATOM     30  C   UNL     1       9.539   1.826  22.056  0.00  0.00    +0.098 A 
ENDBRANCH  20  22
BRANCH  19  31
ATOM     31  O   UNL     1       8.260   3.738  25.294  0.00  0.00    -0.385 OA
ATOM     32  H   UNL     1       7.686   4.473  25.600  0.00  0.00    +0.210 HD
ENDBRANCH  19  31
BRANCH  18  33
ATOM     33  O   UNL     1       9.262   5.928  22.721  0.00  0.00    -0.386 OA
ATOM     34  H   UNL     1       9.359   5.405  21.905  0.00  0.00    +0.210 HD
ENDBRANCH  18  33
ENDBRANCH  16  17
ENDBRANCH  15  16
ENDBRANCH  11  15
ENDBRANCH  10  11
ENDBRANCH   6  10
ENDBRANCH   5   6
ENDBRANCH   1   5
BRANCH   1  35
ATOM     35  O   UNL     1       2.477  -0.155  26.809  0.00  0.00    -0.186 OA
BRANCH  35  36
ATOM     36  P   UNL     1       4.102  -0.748  26.844  0.00  0.00    +0.492 P 
ATOM     37  O   UNL     1       3.669  -1.968  26.027  0.00  0.00    -0.226 OA
BRANCH  36  38
ATOM     38  O   UNL     1       4.577   0.358  25.710  0.00  0.00    -0.302 OA
ATOM     39  H   UNL     1       4.953   1.130  26.191  0.00  0.00    +0.222 HD
ENDBRANCH  36  38
BRANCH  36  40
ATOM     40  O   UNL     1       5.727  -1.340  26.878  0.00  0.00    -0.186 OA
BRANCH  40  41
ATOM     41  P   UNL     1       6.828  -0.012  26.734  0.00  0.00    +0.483 P 
ATOM     42  O   UNL     1       6.304   0.643  28.005  0.00  0.00    -0.227 OA
BRANCH  41  43
ATOM     43  O   UNL     1       7.928   1.315  26.592  0.00  0.00    -0.302 OA
ATOM     44  H   UNL     1       8.789   0.907  26.834  0.00  0.00    +0.222 HD
ENDBRANCH  41  43
BRANCH  41  45
ATOM     45  O   UNL     1       8.099  -0.989  27.097  0.00  0.00    -0.284 OA
BRANCH  45  46
ATOM     46  C   UNL     1       8.716  -1.543  25.941  0.00  0.00    +0.206 C 
BRANCH  46  50
ATOM     47  C   UNL     1       8.435  -5.147  26.385  0.00  0.00    +0.253 C 
ATOM     48  C   UNL     1       9.142  -5.116  25.019  0.00  0.00    +0.195 C 
ATOM     49  C   UNL     1       8.983  -3.666  24.536  0.00  0.00    +0.178 C 
ATOM     50  C   UNL     1       8.261  -2.970  25.691  0.00  0.00    +0.178 C 
ATOM     51  O   UNL     1       8.517  -3.775  26.856  0.00  0.00    -0.346 OA
BRANCH  47  59
ATOM     52  N   UNL     1       2.868  -7.201  27.673  0.00  0.00    -0.341 N 
ATOM     53  H   UNL     1       2.536  -6.761  26.823  0.00  0.00    +0.144 HD
ATOM     54  H   UNL     1       2.266  -7.183  28.487  0.00  0.00    +0.144 HD
ATOM     55  C   UNL     1       4.169  -6.832  28.004  0.00  0.00    +0.147 A 
ATOM     56  C   UNL     1       5.088  -6.319  27.068  0.00  0.00    +0.147 A 
ATOM     57  N   UNL     1       5.001  -6.064  25.721  0.00  0.00    -0.231 NA
ATOM     58  C   UNL     1       6.196  -5.616  25.390  0.00  0.00    +0.203 A 
ATOM     59  N   UNL     1       7.042  -5.543  26.474  0.00  0.00    -0.286 N 
ATOM     60  C   UNL     1       6.342  -5.988  27.556  0.00  0.00    +0.167 A 
ATOM     61  N   UNL     1       6.764  -6.105  28.820  0.00  0.00    -0.216 NA
ATOM     62  C   UNL     1       5.812  -6.610  29.622  0.00  0.00    +0.225 A 
ATOM     63  N   UNL     1       4.555  -6.966  29.292  0.00  0.00    -0.219 NA
ENDBRANCH  47  59
BRANCH  49  64
ATOM     64  O   UNL     1       8.220  -3.587  23.337  0.00  0.00    -0.386 OA
ATOM     65  H   UNL     1       8.214  -4.474  22.929  0.00  0.00    +0.210 HD
ENDBRANCH  49  64
BRANCH  48  66
ATOM     66  O   UNL     1      10.546  -5.419  25.203  0.00  0.00    -0.385 OA
ATOM     67  H   UNL     1      10.980  -5.440  24.332  0.00  0.00    +0.210 HD
ENDBRANCH  48  66
ENDBRANCH  46  50
ENDBRANCH  45  46
ENDBRANCH  41  45
ENDBRANCH  40  41
ENDBRANCH  36  40
ENDBRANCH  35  36
ENDBRANCH   1  35
TORSDOF 25
ENDMDL
MODEL 3
REMARK VINA RESULT:      -6.3      1.720      2.276
REMARK  Name = 
REMARK  25 active torsions:
REMARK  status: ('A' for Active; 'I' for Inactive)
REMARK    1  A    between atoms: N_10  and  C_11
REMARK    2  A    between atoms: C_14  and  C_16
REMARK    3  A    between atoms: C_16  and  O_17
REMARK    4  A    between atoms: O_17  and  P_18
REMARK    5  A    between atoms: P_18  and  O_19
REMARK    6  A    between atoms: P_18  and  O_21
REMARK    7  A    between atoms: O_21  and  P_22
REMARK    8  A    between atoms: P_22  and  O_23
REMARK    9  A    between atoms: P_22  and  O_25
REMARK   10  A    between atoms: O_25  and  P_26
REMARK   11  A    between atoms: P_26  and  O_27
REMARK   12  A    between atoms: P_26  and  O_29
REMARK   13  A    between atoms: O_29  and  P_30
REMARK   14  A    between atoms: P_30  and  O_31
REMARK   15  A    between atoms: P_30  and  O_33
REMARK   16  A    between atoms: O_33  and  P_34
REMARK   17  A    between atoms: P_34  and  O_35
REMARK   18  A    between atoms: P_34  and  O_37
REMARK   19  A    between atoms: O_37  and  C_38
REMARK   20  A    between atoms: C_38  and  C_39
REMARK   21  A    between atoms: C_42  and  N_50
REMARK   22  A    between atoms: C_44  and  O_46
REMARK   23  A    between atoms: C_47  and  O_49
REMARK   24  A    between atoms: C_58  and  O_60
REMARK   25  A    between atoms: C_61  and  O_63
REMARK                            x       y       z     vdW  Elec       q    Type
REMARK                         _______ _______ _______ _____ _____    ______ ____
ROOT
ATOM      1  P   UNL     1       2.111   1.003  27.503  0.00  0.00    +0.492 P 
ATOM      2  O   UNL     1       0.769   0.303  27.714  0.00  0.00    -0.226 OA
ENDROOT
BRANCH   1   3
ATOM      3  O   UNL     1       2.691   0.017  28.801  0.00  0.00    -0.302 OA
ATOM      4  H   UNL     1       1.966  -0.662  28.809  0.00  0.00    +0.222 HD
ENDBRANCH   1   3
BRANCH   1   5
ATOM      5  O   UNL     1       1.530   1.988  26.205  0.00  0.00    -0.186 OA
BRANCH   5   6
ATOM      6  P   UNL     1       2.545   3.380  26.039  0.00  0.00    +0.492 P 
ATOM      7  O   UNL     1       1.797   4.562  26.658  0.00  0.00    -0.226 OA
BRANCH   6   8
ATOM      8  O   UNL     1       3.226   3.069  27.599  0.00  0.00    -0.302 OA
ATOM      9  H   UNL     1       2.457   3.065  28.209  0.00  0.00    +0.222 HD
ENDBRANCH   6   8
BRANCH   6  10
ATOM     10  O   UNL     1       1.863   3.690  24.480  0.00  0.00    -0.186 OA
BRANCH  10  11
ATOM     11  P   UNL     1       3.222   3.584  23.563  0.00  0.00    +0.483 P 
ATOM     12  O   UNL     1       2.955   3.431  22.102  0.00  0.00    -0.227 OA
BRANCH  11  13
ATOM     13  O   UNL     1       3.913   2.265  24.153  0.00  0.00    -0.302 OA
ATOM     14  H   UNL     1       3.572   2.037  25.047  0.00  0.00    +0.222 HD
ENDBRANCH  11  13
BRANCH  11  15
ATOM     15  O   UNL     1       4.329   4.716  23.900  0.00  0.00    -0.284 OA
BRANCH  15  16
ATOM     16  C   UNL     1       4.971   5.249  22.718  0.00  0.00    +0.206 C 
BRANCH  16  17
ATOM     17  C   UNL     1       6.520   5.263  22.687  0.00  0.00    +0.178 C 
ATOM     18  C   UNL     1       7.169   5.157  24.064  0.00  0.00    +0.178 C 
ATOM     19  C   UNL     1       7.371   3.657  24.260  0.00  0.00    +0.195 C 
ATOM     20  C   UNL     1       7.045   3.057  22.875  0.00  0.00    +0.255 C 
ATOM     21  O   UNL     1       7.072   4.143  21.942  0.00  0.00    -0.346 OA
BRANCH  20  22
ATOM     22  N   UNL     1       7.920   1.944  22.523  0.00  0.00    -0.271 N 
ATOM     23  C   UNL     1       7.412   0.697  22.865  0.00  0.00    +0.331 A 
ATOM     24  O   UNL     1       6.317   0.538  23.406  0.00  0.00    -0.246 OA
ATOM     25  N   UNL     1       8.218  -0.369  22.611  0.00  0.00    -0.275 N 
ATOM     26  H   UNL     1       7.876  -1.267  22.911  0.00  0.00    +0.173 HD
ATOM     27  C   UNL     1       9.538  -0.286  22.285  0.00  0.00    +0.254 A 
ATOM     28  O   UNL     1      10.294  -1.254  22.315  0.00  0.00    -0.268 OA
ATOM     29  C   UNL     1      10.029   1.058  21.913  0.00  0.00    +0.088 A 
ATOM     30  C   UNL     1       9.204   2.102  22.048  0.00  0.00    +0.098 A 
ENDBRANCH  20  22
BRANCH  19  31
ATOM     31  O   UNL     1       6.515   3.144  25.280  0.00  0.00    -0.385 OA
ATOM     32  H   UNL     1       6.074   2.347  24.915  0.00  0.00    +0.210 HD
ENDBRANCH  19  31
BRANCH  18  33
ATOM     33  O   UNL     1       8.449   5.816  24.040  0.00  0.00    -0.386 OA
ATOM     34  H   UNL     1       9.148   5.140  24.100  0.00  0.00    +0.210 HD
ENDBRANCH  18  33
ENDBRANCH  16  17
ENDBRANCH  15  16
ENDBRANCH  11  15
ENDBRANCH  10  11
ENDBRANCH   6  10
ENDBRANCH   5   6
ENDBRANCH   1   5
BRANCH   1  35
ATOM     35  O   UNL     1       2.998   0.038  26.374  0.00  0.00    -0.186 OA
BRANCH  35  36
ATOM     36  P   UNL     1       4.529  -0.375  27.065  0.00  0.00    +0.492 P 
ATOM     37  O   UNL     1       4.505  -1.706  26.309  0.00  0.00    -0.226 OA
BRANCH  36  38
ATOM     38  O   UNL     1       5.319   0.662  26.047  0.00  0.00    -0.302 OA
ATOM     39  H   UNL     1       5.719   0.120  25.328  0.00  0.00    +0.222 HD
ENDBRANCH  36  38
BRANCH  36  40
ATOM     40  O   UNL     1       6.060  -0.788  27.755  0.00  0.00    -0.186 OA
BRANCH  40  41
ATOM     41  P   UNL     1       7.311   0.109  26.964  0.00  0.00    +0.483 P 
ATOM     42  O   UNL     1       7.462   1.061  28.143  0.00  0.00    -0.227 OA
BRANCH  41  43
ATOM     43  O   UNL     1       8.561   1.007  26.175  0.00  0.00    -0.302 OA
ATOM     44  H   UNL     1       8.432   0.770  25.230  0.00  0.00    +0.222 HD
ENDBRANCH  41  43
BRANCH  41  45
ATOM     45  O   UNL     1       8.357  -1.148  27.128  0.00  0.00    -0.284 OA
BRANCH  45  46
ATOM     46  C   UNL     1       8.871  -1.603  25.881  0.00  0.00    +0.206 C 
BRANCH  46  50
ATOM     47  C   UNL     1       7.933  -5.116  26.093  0.00  0.00    +0.253 C 
ATOM     48  C   UNL     1       8.919  -5.189  24.914  0.00  0.00    +0.195 C 
ATOM     49  C   UNL     1       9.101  -3.728  24.473  0.00  0.00    +0.178 C 
ATOM     50  C   UNL     1       8.262  -2.934  25.476  0.00  0.00    +0.178 C 
ATOM     51  O   UNL     1       8.125  -3.781  26.632  0.00  0.00    -0.346 OA
BRANCH  47  59
ATOM     52  N   UNL     1       2.206  -5.603  24.134  0.00  0.00    -0.341 N 
ATOM     53  H   UNL     1       1.936  -5.877  25.071  0.00  0.00    +0.144 HD
ATOM     54  H   UNL     1       1.751  -6.058  23.352  0.00  0.00    +0.144 HD
ATOM     55  C   UNL     1       3.587  -5.566  23.956  0.00  0.00    +0.147 A 
ATOM     56  C   UNL     1       4.500  -5.439  25.021  0.00  0.00    +0.147 A 
ATOM     57  N   UNL     1       4.334  -5.324  26.380  0.00  0.00    -0.231 NA
ATOM     58  C   UNL     1       5.559  -5.210  26.855  0.00  0.00    +0.203 A 
ATOM     59  N   UNL     1       6.510  -5.279  25.862  0.00  0.00    -0.286 N 
ATOM     60  C   UNL     1       5.843  -5.429  24.682  0.00  0.00    +0.167 A 
ATOM     61  N   UNL     1       6.357  -5.526  23.451  0.00  0.00    -0.216 NA
ATOM     62  C   UNL     1       5.399  -5.634  22.515  0.00  0.00    +0.225 A 
ATOM     63  N   UNL     1       4.064  -5.668  22.696  0.00  0.00    -0.219 NA
ENDBRANCH  47  59
BRANCH  49  64
ATOM     64  O   UNL     1       8.644  -3.515  23.143  0.00  0.00    -0.386 OA
ATOM     65  H   UNL     1       8.080  -2.719  23.145  0.00  0.00    +0.210 HD
ENDBRANCH  49  64
BRANCH  48  66
ATOM     66  O   UNL     1      10.182  -5.720  25.383  0.00  0.00    -0.385 OA
ATOM     67  H   UNL     1      10.791  -4.980  25.552  0.00  0.00    +0.210 HD
ENDBRANCH  48  66
ENDBRANCH  46  50
ENDBRANCH  45  46
ENDBRANCH  41  45
ENDBRANCH  40  41
ENDBRANCH  36  40
ENDBRANCH  35  36
ENDBRANCH   1  35
TORSDOF 25
ENDMDL
MODEL 4
REMARK VINA RESULT:      -6.2      2.662      8.232
REMARK  Name = 
REMARK  25 active torsions:
REMARK  status: ('A' for Active; 'I' for Inactive)
REMARK    1  A    between atoms: N_10  and  C_11
REMARK    2  A    between atoms: C_14  and  C_16
REMARK    3  A    between atoms: C_16  and  O_17
REMARK    4  A    between atoms: O_17  and  P_18
REMARK    5  A    between atoms: P_18  and  O_19
REMARK    6  A    between atoms: P_18  and  O_21
REMARK    7  A    between atoms: O_21  and  P_22
REMARK    8  A    between atoms: P_22  and  O_23
REMARK    9  A    between atoms: P_22  and  O_25
REMARK   10  A    between atoms: O_25  and  P_26
REMARK   11  A    between atoms: P_26  and  O_27
REMARK   12  A    between atoms: P_26  and  O_29
REMARK   13  A    between atoms: O_29  and  P_30
REMARK   14  A    between atoms: P_30  and  O_31
REMARK   15  A    between atoms: P_30  and  O_33
REMARK   16  A    between atoms: O_33  and  P_34
REMARK   17  A    between atoms: P_34  and  O_35
REMARK   18  A    between atoms: P_34  and  O_37
REMARK   19  A    between atoms: O_37  and  C_38
REMARK   20  A    between atoms: C_38  and  C_39
REMARK   21  A    between atoms: C_42  and  N_50
REMARK   22  A    between atoms: C_44  and  O_46
REMARK   23  A    between atoms: C_47  and  O_49
REMARK   24  A    between atoms: C_58  and  O_60
REMARK   25  A    between atoms: C_61  and  O_63
REMARK                            x       y       z     vdW  Elec       q    Type
REMARK                         _______ _______ _______ _____ _____    ______ ____
ROOT
ATOM      1  P   UNL     1       4.378  -2.328  26.641  0.00  0.00    +0.492 P 
ATOM      2  O   UNL     1       3.186  -1.374  26.569  0.00  0.00    -0.226 OA
ENDROOT
BRANCH   1   3
ATOM      3  O   UNL     1       4.328  -2.329  24.913  0.00  0.00    -0.302 OA
ATOM      4  H   UNL     1       4.172  -3.300  24.768  0.00  0.00    +0.222 HD
ENDBRANCH   1   3
BRANCH   1   5
ATOM      5  O   UNL     1       4.428  -2.327  28.371  0.00  0.00    -0.186 OA
BRANCH   5   6
ATOM      6  P   UNL     1       3.651  -3.752  28.971  0.00  0.00    +0.492 P 
ATOM      7  O   UNL     1       3.508  -3.587  30.485  0.00  0.00    -0.226 OA
BRANCH   6   8
ATOM      8  O   UNL     1       2.110  -2.984  28.800  0.00  0.00    -0.302 OA
ATOM      9  H   UNL     1       2.146  -2.217  29.412  0.00  0.00    +0.222 HD
ENDBRANCH   6   8
BRANCH   6  10
ATOM     10  O   UNL     1       5.192  -4.519  29.142  0.00  0.00    -0.186 OA
BRANCH  10  11
ATOM     11  P   UNL     1       4.859  -5.960  28.428  0.00  0.00    +0.483 P 
ATOM     12  O   UNL     1       3.548  -5.992  27.713  0.00  0.00    -0.227 OA
BRANCH  11  13
ATOM     13  O   UNL     1       4.842  -6.952  29.686  0.00  0.00    -0.302 OA
ATOM     14  H   UNL     1       4.187  -7.677  29.578  0.00  0.00    +0.222 HD
ENDBRANCH  11  13
BRANCH  11  15
ATOM     15  O   UNL     1       6.084  -6.556  27.554  0.00  0.00    -0.284 OA
BRANCH  15  16
ATOM     16  C   UNL     1       7.280  -5.744  27.632  0.00  0.00    +0.206 C 
BRANCH  16  17
ATOM     17  C   UNL     1       7.292  -4.406  26.852  0.00  0.00    +0.178 C 
ATOM     18  C   UNL     1       8.687  -3.932  26.455  0.00  0.00    +0.178 C 
ATOM     19  C   UNL     1       8.899  -4.529  25.067  0.00  0.00    +0.195 C 
ATOM     20  C   UNL     1       7.508  -5.087  24.691  0.00  0.00    +0.255 C 
ATOM     21  O   UNL     1       6.570  -4.490  25.592  0.00  0.00    -0.346 OA
BRANCH  20  22
ATOM     22  N   UNL     1       7.189  -4.898  23.280  0.00  0.00    -0.271 N 
ATOM     23  C   UNL     1       6.952  -3.575  22.928  0.00  0.00    +0.331 A 
ATOM     24  O   UNL     1       7.014  -2.640  23.727  0.00  0.00    -0.246 OA
ATOM     25  N   UNL     1       6.592  -3.355  21.634  0.00  0.00    -0.275 N 
ATOM     26  H   UNL     1       6.363  -2.405  21.392  0.00  0.00    +0.173 HD
ATOM     27  C   UNL     1       6.221  -4.325  20.754  0.00  0.00    +0.254 A 
ATOM     28  O   UNL     1       5.661  -4.080  19.689  0.00  0.00    -0.268 OA
ATOM     29  C   UNL     1       6.508  -5.716  21.166  0.00  0.00    +0.088 A 
ATOM     30  C   UNL     1       6.976  -5.936  22.399  0.00  0.00    +0.098 A 
ENDBRANCH  20  22
BRANCH  19  31
ATOM     31  O   UNL     1       9.897  -5.548  25.085  0.00  0.00    -0.385 OA
ATOM     32  H   UNL     1       9.959  -5.910  24.174  0.00  0.00    +0.210 HD
ENDBRANCH  19  31
BRANCH  18  33
ATOM     33  O   UNL     1       8.695  -2.494  26.366  0.00  0.00    -0.386 OA
ATOM     34  H   UNL     1       7.876  -2.206  25.925  0.00  0.00    +0.210 HD
ENDBRANCH  18  33
ENDBRANCH  16  17
ENDBRANCH  15  16
ENDBRANCH  11  15
ENDBRANCH  10  11
ENDBRANCH   6  10
ENDBRANCH   5   6
ENDBRANCH   1   5
BRANCH   1  35
ATOM     35  O   UNL     1       5.800  -1.344  26.600  0.00  0.00    -0.186 OA
BRANCH  35  36
ATOM     36  P   UNL     1       5.334   0.322  26.594  0.00  0.00    +0.492 P 
ATOM     37  O   UNL     1       6.805   0.728  26.709  0.00  0.00    -0.226 OA
BRANCH  36  38
ATOM     38  O   UNL     1       5.045   0.281  24.966  0.00  0.00    -0.302 OA
ATOM     39  H   UNL     1       5.780  -0.225  24.549  0.00  0.00    +0.222 HD
ENDBRANCH  36  38
BRANCH  36  40
ATOM     40  O   UNL     1       4.868   1.988  26.587  0.00  0.00    -0.186 OA
BRANCH  40  41
ATOM     41  P   UNL     1       4.035   2.348  25.114  0.00  0.00    +0.483 P 
ATOM     42  O   UNL     1       2.683   1.987  25.715  0.00  0.00    -0.227 OA
BRANCH  41  43
ATOM     43  O   UNL     1       3.201   2.708  23.642  0.00  0.00    -0.302 OA
ATOM     44  H   UNL     1       2.260   2.571  23.889  0.00  0.00    +0.222 HD
ENDBRANCH  41  43
BRANCH  41  45
ATOM     45  O   UNL     1       4.319   3.955  25.311  0.00  0.00    -0.284 OA
BRANCH  45  46
ATOM     46  C   UNL     1       5.705   4.260  25.418  0.00  0.00    +0.206 C 
BRANCH  46  50
ATOM     47  C   UNL     1       8.492   3.910  23.099  0.00  0.00    +0.253 C 
ATOM     48  C   UNL     1       7.566   4.798  22.249  0.00  0.00    +0.195 C 
ATOM     49  C   UNL     1       6.200   4.711  22.948  0.00  0.00    +0.178 C 
ATOM     50  C   UNL     1       6.470   3.840  24.175  0.00  0.00    +0.178 C 
ATOM     51  O   UNL     1       7.886   3.931  24.419  0.00  0.00    -0.346 OA
BRANCH  47  59
ATOM     52  N   UNL     1       9.947  -1.947  22.435  0.00  0.00    -0.341 N 
ATOM     53  H   UNL     1       9.281  -2.000  21.674  0.00  0.00    +0.144 HD
ATOM     54  H   UNL     1      10.026  -2.742  23.057  0.00  0.00    +0.144 HD
ATOM     55  C   UNL     1       9.858  -0.757  23.153  0.00  0.00    +0.147 A 
ATOM     56  C   UNL     1       9.286   0.419  22.631  0.00  0.00    +0.147 A 
ATOM     57  N   UNL     1       8.721   0.719  21.415  0.00  0.00    -0.231 NA
ATOM     58  C   UNL     1       8.389   1.992  21.508  0.00  0.00    +0.203 A 
ATOM     59  N   UNL     1       8.689   2.518  22.745  0.00  0.00    -0.286 N 
ATOM     60  C   UNL     1       9.261   1.518  23.475  0.00  0.00    +0.167 A 
ATOM     61  N   UNL     1       9.724   1.573  24.729  0.00  0.00    -0.216 NA
ATOM     62  C   UNL     1      10.253   0.402  25.120  0.00  0.00    +0.225 A 
ATOM     63  N   UNL     1      10.337  -0.745  24.417  0.00  0.00    -0.219 NA
ENDBRANCH  47  59
BRANCH  49  64
ATOM     64  O   UNL     1       5.214   4.121  22.110  0.00  0.00    -0.386 OA
ATOM     65  H   UNL     1       5.010   4.755  21.397  0.00  0.00    +0.210 HD
ENDBRANCH  49  64
BRANCH  48  66
ATOM     66  O   UNL     1       8.049   6.163  22.288  0.00  0.00    -0.385 OA
ATOM     67  H   UNL     1       7.406   6.738  21.837  0.00  0.00    +0.210 HD
ENDBRANCH  48  66
ENDBRANCH  46  50
ENDBRANCH  45  46
ENDBRANCH  41  45
ENDBRANCH  40  41
ENDBRANCH  36  40
ENDBRANCH  35  36
ENDBRANCH   1  35
TORSDOF 25
ENDMDL
MODEL 5
REMARK VINA RESULT:      -6.2      2.613      5.205
REMARK  Name = 
REMARK  25 active torsions:
REMARK  status: ('A' for Active; 'I' for Inactive)
REMARK    1  A    between atoms: N_10  and  C_11
REMARK    2  A    between atoms: C_14  and  C_16
REMARK    3  A    between atoms: C_16  and  O_17
REMARK    4  A    between atoms: O_17  and  P_18
REMARK    5  A    between atoms: P_18  and  O_19
REMARK    6  A    between atoms: P_18  and  O_21
REMARK    7  A    between atoms: O_21  and  P_22
REMARK    8  A    between atoms: P_22  and  O_23
REMARK    9  A    between atoms: P_22  and  O_25
REMARK   10  A    between atoms: O_25  and  P_26
REMARK   11  A    between atoms: P_26  and  O_27
REMARK   12  A    between atoms: P_26  and  O_29
REMARK   13  A    between atoms: O_29  and  P_30
REMARK   14  A    between atoms: P_30  and  O_31
REMARK   15  A    between atoms: P_30  and  O_33
REMARK   16  A    between atoms: O_33  and  P_34
REMARK   17  A    between atoms: P_34  and  O_35
REMARK   18  A    between atoms: P_34  and  O_37
REMARK   19  A    between atoms: O_37  and  C_38
REMARK   20  A    between atoms: C_38  and  C_39
REMARK   21  A    between atoms: C_42  and  N_50
REMARK   22  A    between atoms: C_44  and  O_46
REMARK   23  A    between atoms: C_47  and  O_49
REMARK   24  A    between atoms: C_58  and  O_60
REMARK   25  A    between atoms: C_61  and  O_63
REMARK                            x       y       z     vdW  Elec       q    Type
REMARK                         _______ _______ _______ _____ _____    ______ ____
ROOT
ATOM      1  P   UNL     1       8.062  -1.944  25.025  0.00  0.00    +0.492 P 
ATOM      2  O   UNL     1       8.655  -2.761  26.173  0.00  0.00    -0.226 OA
ENDROOT
BRANCH   1   3
ATOM      3  O   UNL     1       6.541  -2.627  25.486  0.00  0.00    -0.302 OA
ATOM      4  H   UNL     1       6.500  -3.363  24.819  0.00  0.00    +0.222 HD
ENDBRANCH   1   3
BRANCH   1   5
ATOM      5  O   UNL     1       9.584  -1.261  24.565  0.00  0.00    -0.186 OA
BRANCH   5   6
ATOM      6  P   UNL     1       9.574  -0.922  22.869  0.00  0.00    +0.492 P 
ATOM      7  O   UNL     1      10.704  -1.737  22.237  0.00  0.00    -0.226 OA
BRANCH   6   8
ATOM      8  O   UNL     1       8.527  -2.274  22.604  0.00  0.00    -0.302 OA
ATOM      9  H   UNL     1       8.941  -3.009  23.107  0.00  0.00    +0.222 HD
ENDBRANCH   6   8
BRANCH   6  10
ATOM     10  O   UNL     1      10.621   0.430  23.133  0.00  0.00    -0.186 OA
BRANCH  10  11
ATOM     11  P   UNL     1       9.530   1.650  22.996  0.00  0.00    +0.483 P 
ATOM     12  O   UNL     1       8.117   1.185  22.863  0.00  0.00    -0.227 OA
BRANCH  11  13
ATOM     13  O   UNL     1      10.016   2.374  21.652  0.00  0.00    -0.302 OA
ATOM     14  H   UNL     1       9.682   3.296  21.586  0.00  0.00    +0.222 HD
ENDBRANCH  11  13
BRANCH  11  15
ATOM     15  O   UNL     1       9.721   2.825  24.092  0.00  0.00    -0.284 OA
BRANCH  15  16
ATOM     16  C   UNL     1       8.527   3.069  24.872  0.00  0.00    +0.206 C 
BRANCH  16  17
ATOM     17  C   UNL     1       7.898   4.483  24.799  0.00  0.00    +0.178 C 
ATOM     18  C   UNL     1       8.163   5.212  23.484  0.00  0.00    +0.178 C 
ATOM     19  C   UNL     1       6.969   4.838  22.609  0.00  0.00    +0.195 C 
ATOM     20  C   UNL     1       6.006   4.127  23.585  0.00  0.00    +0.255 C 
ATOM     21  O   UNL     1       6.448   4.453  24.907  0.00  0.00    -0.346 OA
BRANCH  20  22
ATOM     22  N   UNL     1       4.606   4.446  23.326  0.00  0.00    -0.271 N 
ATOM     23  C   UNL     1       3.725   3.420  23.643  0.00  0.00    +0.331 A 
ATOM     24  O   UNL     1       4.086   2.339  24.112  0.00  0.00    -0.246 OA
ATOM     25  N   UNL     1       2.413   3.647  23.363  0.00  0.00    -0.275 N 
ATOM     26  H   UNL     1       1.782   2.883  23.539  0.00  0.00    +0.173 HD
ATOM     27  C   UNL     1       1.948   4.672  22.597  0.00  0.00    +0.254 A 
ATOM     28  O   UNL     1       0.803   4.706  22.153  0.00  0.00    -0.268 OA
ATOM     29  C   UNL     1       2.917   5.748  22.299  0.00  0.00    +0.088 A 
ATOM     30  C   UNL     1       4.190   5.587  22.675  0.00  0.00    +0.098 A 
ENDBRANCH  20  22
BRANCH  19  31
ATOM     31  O   UNL     1       7.360   3.989  21.530  0.00  0.00    -0.385 OA
ATOM     32  H   UNL     1       7.285   3.064  21.848  0.00  0.00    +0.210 HD
ENDBRANCH  19  31
BRANCH  18  33
ATOM     33  O   UNL     1       8.160   6.633  23.718  0.00  0.00    -0.386 OA
ATOM     34  H   UNL     1       8.788   6.832  24.435  0.00  0.00    +0.210 HD
ENDBRANCH  18  33
ENDBRANCH  16  17
ENDBRANCH  15  16
ENDBRANCH  11  15
ENDBRANCH  10  11
ENDBRANCH   6  10
ENDBRANCH   5   6
ENDBRANCH   1   5
BRANCH   1  35
ATOM     35  O   UNL     1       7.584  -0.424  25.698  0.00  0.00    -0.186 OA
BRANCH  35  36
ATOM     36  P   UNL     1       5.865  -0.409  25.894  0.00  0.00    +0.492 P 
ATOM     37  O   UNL     1       5.955   0.975  26.540  0.00  0.00    -0.226 OA
BRANCH  36  38
ATOM     38  O   UNL     1       5.640  -0.098  24.286  0.00  0.00    -0.302 OA
ATOM     39  H   UNL     1       5.143  -0.859  23.905  0.00  0.00    +0.222 HD
ENDBRANCH  36  38
BRANCH  36  40
ATOM     40  O   UNL     1       4.146  -0.394  26.089  0.00  0.00    -0.186 OA
BRANCH  40  41
ATOM     41  P   UNL     1       3.753  -0.671  27.752  0.00  0.00    +0.483 P 
ATOM     42  O   UNL     1       2.392  -1.256  27.399  0.00  0.00    -0.227 OA
BRANCH  41  43
ATOM     43  O   UNL     1       3.358  -0.948  29.413  0.00  0.00    -0.302 OA
ATOM     44  H   UNL     1       3.962  -0.330  29.883  0.00  0.00    +0.222 HD
ENDBRANCH  41  43
BRANCH  41  45
ATOM     45  O   UNL     1       4.867  -1.875  27.846  0.00  0.00    -0.284 OA
BRANCH  45  46
ATOM     46  C   UNL     1       4.294  -3.129  28.199  0.00  0.00    +0.206 C 
BRANCH  46  50
ATOM     47  C   UNL     1       4.264  -6.305  26.416  0.00  0.00    +0.253 C 
ATOM     48  C   UNL     1       5.464  -6.550  27.348  0.00  0.00    +0.195 C 
ATOM     49  C   UNL     1       5.824  -5.157  27.887  0.00  0.00    +0.178 C 
ATOM     50  C   UNL     1       4.763  -4.241  27.277  0.00  0.00    +0.178 C 
ATOM     51  O   UNL     1       3.654  -5.094  26.938  0.00  0.00    -0.346 OA
BRANCH  47  59
ATOM     52  N   UNL     1       6.080  -5.053  20.759  0.00  0.00    -0.341 N 
ATOM     53  H   UNL     1       5.226  -5.478  20.418  0.00  0.00    +0.144 HD
ATOM     54  H   UNL     1       6.931  -5.197  20.229  0.00  0.00    +0.144 HD
ATOM     55  C   UNL     1       6.292  -5.274  22.118  0.00  0.00    +0.147 A 
ATOM     56  C   UNL     1       5.261  -5.609  23.015  0.00  0.00    +0.147 A 
ATOM     57  N   UNL     1       3.908  -5.789  22.855  0.00  0.00    -0.231 NA
ATOM     58  C   UNL     1       3.463  -6.062  24.065  0.00  0.00    +0.203 A 
ATOM     59  N   UNL     1       4.477  -6.095  24.997  0.00  0.00    -0.286 N 
ATOM     60  C   UNL     1       5.635  -5.809  24.335  0.00  0.00    +0.167 A 
ATOM     61  N   UNL     1       6.871  -5.717  24.838  0.00  0.00    -0.216 NA
ATOM     62  C   UNL     1       7.772  -5.386  23.897  0.00  0.00    +0.225 A 
ATOM     63  N   UNL     1       7.556  -5.172  22.584  0.00  0.00    -0.219 NA
ENDBRANCH  47  59
BRANCH  49  64
ATOM     64  O   UNL     1       7.131  -4.758  27.491  0.00  0.00    -0.386 OA
ATOM     65  H   UNL     1       7.744  -5.485  27.709  0.00  0.00    +0.210 HD
ENDBRANCH  49  64
BRANCH  48  66
ATOM     66  O   UNL     1       5.050  -7.406  28.440  0.00  0.00    -0.385 OA
ATOM     67  H   UNL     1       5.818  -7.580  29.012  0.00  0.00    +0.210 HD
ENDBRANCH  48  66
ENDBRANCH  46  50
ENDBRANCH  45  46
ENDBRANCH  41  45
ENDBRANCH  40  41
ENDBRANCH  36  40
ENDBRANCH  35  36
ENDBRANCH   1  35
TORSDOF 25
ENDMDL
MODEL 6
REMARK VINA RESULT:      -6.2      2.057      3.969
REMARK  Name = 
REMARK  25 active torsions:
REMARK  status: ('A' for Active; 'I' for Inactive)
REMARK    1  A    between atoms: N_10  and  C_11
REMARK    2  A    between atoms: C_14  and  C_16
REMARK    3  A    between atoms: C_16  and  O_17
REMARK    4  A    between atoms: O_17  and  P_18
REMARK    5  A    between atoms: P_18  and  O_19
REMARK    6  A    between atoms: P_18  and  O_21
REMARK    7  A    between atoms: O_21  and  P_22
REMARK    8  A    between atoms: P_22  and  O_23
REMARK    9  A    between atoms: P_22  and  O_25
REMARK   10  A    between atoms: O_25  and  P_26
REMARK   11  A    between atoms: P_26  and  O_27
REMARK   12  A    between atoms: P_26  and  O_29
REMARK   13  A    between atoms: O_29  and  P_30
REMARK   14  A    between atoms: P_30  and  O_31
REMARK   15  A    between atoms: P_30  and  O_33
REMARK   16  A    between atoms: O_33  and  P_34
REMARK   17  A    between atoms: P_34  and  O_35
REMARK   18  A    between atoms: P_34  and  O_37
REMARK   19  A    between atoms: O_37  and  C_38
REMARK   20  A    between atoms: C_38  and  C_39
REMARK   21  A    between atoms: C_42  and  N_50
REMARK   22  A    between atoms: C_44  and  O_46
REMARK   23  A    between atoms: C_47  and  O_49
REMARK   24  A    between atoms: C_58  and  O_60
REMARK   25  A    between atoms: C_61  and  O_63
REMARK                            x       y       z     vdW  Elec       q    Type
REMARK                         _______ _______ _______ _____ _____    ______ ____
ROOT
ATOM      1  P   UNL     1       7.108   0.716  25.845  0.00  0.00    +0.492 P 
ATOM      2  O   UNL     1       8.539   0.347  25.457  0.00  0.00    -0.226 OA
ENDROOT
BRANCH   1   3
ATOM      3  O   UNL     1       6.622  -0.246  24.492  0.00  0.00    -0.302 OA
ATOM      4  H   UNL     1       7.023  -1.112  24.773  0.00  0.00    +0.222 HD
ENDBRANCH   1   3
BRANCH   1   5
ATOM      5  O   UNL     1       7.595   1.679  27.198  0.00  0.00    -0.186 OA
BRANCH   5   6
ATOM      6  P   UNL     1       6.494   3.000  27.391  0.00  0.00    +0.492 P 
ATOM      7  O   UNL     1       5.575   3.006  26.168  0.00  0.00    -0.226 OA
BRANCH   6   8
ATOM      8  O   UNL     1       5.363   1.944  28.164  0.00  0.00    -0.302 OA
ATOM      9  H   UNL     1       5.144   2.393  29.011  0.00  0.00    +0.222 HD
ENDBRANCH   6   8
BRANCH   6  10
ATOM     10  O   UNL     1       7.626   4.055  26.617  0.00  0.00    -0.186 OA
BRANCH  10  11
ATOM     11  P   UNL     1       7.104   5.495  27.210  0.00  0.00    +0.483 P 
ATOM     12  O   UNL     1       8.193   6.347  27.774  0.00  0.00    -0.227 OA
BRANCH  11  13
ATOM     13  O   UNL     1       6.096   5.028  28.364  0.00  0.00    -0.302 OA
ATOM     14  H   UNL     1       5.344   4.503  28.009  0.00  0.00    +0.222 HD
ENDBRANCH  11  13
BRANCH  11  15
ATOM     15  O   UNL     1       6.114   6.294  26.210  0.00  0.00    -0.284 OA
BRANCH  15  16
ATOM     16  C   UNL     1       6.806   6.891  25.088  0.00  0.00    +0.206 C 
BRANCH  16  17
ATOM     17  C   UNL     1       6.479   6.351  23.673  0.00  0.00    +0.178 C 
ATOM     18  C   UNL     1       7.443   6.826  22.589  0.00  0.00    +0.178 C 
ATOM     19  C   UNL     1       8.517   5.742  22.551  0.00  0.00    +0.195 C 
ATOM     20  C   UNL     1       7.940   4.622  23.445  0.00  0.00    +0.255 C 
ATOM     21  O   UNL     1       6.545   4.901  23.601  0.00  0.00    -0.346 OA
BRANCH  20  22
ATOM     22  N   UNL     1       8.232   3.288  22.932  0.00  0.00    -0.271 N 
ATOM     23  C   UNL     1       9.452   2.775  23.353  0.00  0.00    +0.331 A 
ATOM     24  O   UNL     1      10.220   3.383  24.100  0.00  0.00    -0.246 OA
ATOM     25  N   UNL     1       9.796   1.557  22.853  0.00  0.00    -0.275 N 
ATOM     26  H   UNL     1      10.705   1.211  23.111  0.00  0.00    +0.173 HD
ATOM     27  C   UNL     1       9.167   0.936  21.817  0.00  0.00    +0.254 A 
ATOM     28  O   UNL     1       9.648  -0.027  21.226  0.00  0.00    -0.268 OA
ATOM     29  C   UNL     1       7.864   1.508  21.416  0.00  0.00    +0.088 A 
ATOM     30  C   UNL     1       7.459   2.647  21.987  0.00  0.00    +0.098 A 
ENDBRANCH  20  22
BRANCH  19  31
ATOM     31  O   UNL     1       9.765   6.229  23.042  0.00  0.00    -0.385 OA
ATOM     32  H   UNL     1       9.851   5.923  23.971  0.00  0.00    +0.210 HD
ENDBRANCH  19  31
BRANCH  18  33
ATOM     33  O   UNL     1       6.756   6.866  21.324  0.00  0.00    -0.386 OA
ATOM     34  H   UNL     1       6.745   5.968  20.947  0.00  0.00    +0.210 HD
ENDBRANCH  18  33
ENDBRANCH  16  17
ENDBRANCH  15  16
ENDBRANCH  11  15
ENDBRANCH  10  11
ENDBRANCH   6  10
ENDBRANCH   5   6
ENDBRANCH   1   5
BRANCH   1  35
ATOM     35  O   UNL     1       6.555  -0.519  26.923  0.00  0.00    -0.186 OA
BRANCH  35  36
ATOM     36  P   UNL     1       5.117  -1.230  26.276  0.00  0.00    +0.492 P 
ATOM     37  O   UNL     1       4.725  -1.700  27.679  0.00  0.00    -0.226 OA
BRANCH  36  38
ATOM     38  O   UNL     1       4.399   0.251  26.124  0.00  0.00    -0.302 OA
ATOM     39  H   UNL     1       5.112   0.908  25.950  0.00  0.00    +0.222 HD
ENDBRANCH  36  38
BRANCH  36  40
ATOM     40  O   UNL     1       3.679  -1.941  25.630  0.00  0.00    -0.186 OA
BRANCH  40  41
ATOM     41  P   UNL     1       2.568  -2.268  26.916  0.00  0.00    +0.483 P 
ATOM     42  O   UNL     1       1.685  -1.087  26.540  0.00  0.00    -0.227 OA
BRANCH  41  43
ATOM     43  O   UNL     1       1.458  -2.594  28.202  0.00  0.00    -0.302 OA
ATOM     44  H   UNL     1       0.617  -2.762  27.721  0.00  0.00    +0.222 HD
ENDBRANCH  41  43
BRANCH  41  45
ATOM     45  O   UNL     1       2.037  -3.624  26.153  0.00  0.00    -0.284 OA
BRANCH  45  46
ATOM     46  C   UNL     1       2.450  -4.820  26.805  0.00  0.00    +0.206 C 
BRANCH  46  50
ATOM     47  C   UNL     1       5.881  -6.013  26.544  0.00  0.00    +0.253 C 
ATOM     48  C   UNL     1       5.659  -6.211  28.053  0.00  0.00    +0.195 C 
ATOM     49  C   UNL     1       4.392  -5.400  28.367  0.00  0.00    +0.178 C 
ATOM     50  C   UNL     1       3.954  -4.861  27.004  0.00  0.00    +0.178 C 
ATOM     51  O   UNL     1       4.553  -5.731  26.027  0.00  0.00    -0.346 OA
BRANCH  47  59
ATOM     52  N   UNL     1       9.386  -2.002  23.630  0.00  0.00    -0.341 N 
ATOM     53  H   UNL     1       9.502  -1.505  24.505  0.00  0.00    +0.144 HD
ATOM     54  H   UNL     1       9.302  -1.458  22.779  0.00  0.00    +0.144 HD
ATOM     55  C   UNL     1       8.407  -2.991  23.691  0.00  0.00    +0.147 A 
ATOM     56  C   UNL     1       7.973  -3.573  24.897  0.00  0.00    +0.147 A 
ATOM     57  N   UNL     1       8.335  -3.378  26.209  0.00  0.00    -0.231 NA
ATOM     58  C   UNL     1       7.598  -4.235  26.887  0.00  0.00    +0.203 A 
ATOM     59  N   UNL     1       6.754  -4.955  26.071  0.00  0.00    -0.286 N 
ATOM     60  C   UNL     1       6.983  -4.537  24.793  0.00  0.00    +0.167 A 
ATOM     61  N   UNL     1       6.401  -4.967  23.668  0.00  0.00    -0.216 NA
ATOM     62  C   UNL     1       6.896  -4.351  22.581  0.00  0.00    +0.225 A 
ATOM     63  N   UNL     1       7.846  -3.396  22.531  0.00  0.00    -0.219 NA
ENDBRANCH  47  59
BRANCH  49  64
ATOM     64  O   UNL     1       4.656  -4.337  29.275  0.00  0.00    -0.386 OA
ATOM     65  H   UNL     1       5.607  -4.359  29.493  0.00  0.00    +0.210 HD
ENDBRANCH  49  64
BRANCH  48  66
ATOM     66  O   UNL     1       5.419  -7.615  28.318  0.00  0.00    -0.385 OA
ATOM     67  H   UNL     1       4.566  -7.868  27.924  0.00  0.00    +0.210 HD
ENDBRANCH  48  66
ENDBRANCH  46  50
ENDBRANCH  45  46
ENDBRANCH  41  45
ENDBRANCH  40  41
ENDBRANCH  36  40
ENDBRANCH  35  36
ENDBRANCH   1  35
TORSDOF 25
ENDMDL
MODEL 7
REMARK VINA RESULT:      -6.1      3.146      9.929
REMARK  Name = 
REMARK  25 active torsions:
REMARK  status: ('A' for Active; 'I' for Inactive)
REMARK    1  A    between atoms: N_10  and  C_11
REMARK    2  A    between atoms: C_14  and  C_16
REMARK    3  A    between atoms: C_16  and  O_17
REMARK    4  A    between atoms: O_17  and  P_18
REMARK    5  A    between atoms: P_18  and  O_19
REMARK    6  A    between atoms: P_18  and  O_21
REMARK    7  A    between atoms: O_21  and  P_22
REMARK    8  A    between atoms: P_22  and  O_23
REMARK    9  A    between atoms: P_22  and  O_25
REMARK   10  A    between atoms: O_25  and  P_26
REMARK   11  A    between atoms: P_26  and  O_27
REMARK   12  A    between atoms: P_26  and  O_29
REMARK   13  A    between atoms: O_29  and  P_30
REMARK   14  A    between atoms: P_30  and  O_31
REMARK   15  A    between atoms: P_30  and  O_33
REMARK   16  A    between atoms: O_33  and  P_34
REMARK   17  A    between atoms: P_34  and  O_35
REMARK   18  A    between atoms: P_34  and  O_37
REMARK   19  A    between atoms: O_37  and  C_38
REMARK   20  A    between atoms: C_38  and  C_39
REMARK   21  A    between atoms: C_42  and  N_50
REMARK   22  A    between atoms: C_44  and  O_46
REMARK   23  A    between atoms: C_47  and  O_49
REMARK   24  A    between atoms: C_58  and  O_60
REMARK   25  A    between atoms: C_61  and  O_63
REMARK                            x       y       z     vdW  Elec       q    Type
REMARK                         _______ _______ _______ _____ _____    ______ ____
ROOT
ATOM      1  P   UNL     1       8.725  -2.115  24.372  0.00  0.00    +0.492 P 
ATOM      2  O   UNL     1       7.772  -1.052  23.828  0.00  0.00    -0.226 OA
ENDROOT
BRANCH   1   3
ATOM      3  O   UNL     1       9.933  -0.878  24.337  0.00  0.00    -0.302 OA
ATOM      4  H   UNL     1      10.307  -1.060  23.434  0.00  0.00    +0.222 HD
ENDBRANCH   1   3
BRANCH   1   5
ATOM      5  O   UNL     1       7.516  -3.353  24.407  0.00  0.00    -0.186 OA
BRANCH   5   6
ATOM      6  P   UNL     1       8.257  -4.871  24.786  0.00  0.00    +0.492 P 
ATOM      7  O   UNL     1       8.432  -5.630  23.469  0.00  0.00    -0.226 OA
BRANCH   6   8
ATOM      8  O   UNL     1       9.819  -4.174  24.526  0.00  0.00    -0.302 OA
ATOM      9  H   UNL     1      10.222  -4.130  25.421  0.00  0.00    +0.222 HD
ENDBRANCH   6   8
BRANCH   6  10
ATOM     10  O   UNL     1       6.695  -5.567  25.045  0.00  0.00    -0.186 OA
BRANCH  10  11
ATOM     11  P   UNL     1       6.546  -5.307  26.660  0.00  0.00    +0.483 P 
ATOM     12  O   UNL     1       7.851  -5.220  27.381  0.00  0.00    -0.227 OA
BRANCH  11  13
ATOM     13  O   UNL     1       5.727  -6.603  27.126  0.00  0.00    -0.302 OA
ATOM     14  H   UNL     1       5.949  -6.871  28.045  0.00  0.00    +0.222 HD
ENDBRANCH  11  13
BRANCH  11  15
ATOM     15  O   UNL     1       5.520  -4.114  27.039  0.00  0.00    -0.284 OA
BRANCH  15  16
ATOM     16  C   UNL     1       4.299  -4.592  27.652  0.00  0.00    +0.206 C 
BRANCH  16  17
ATOM     17  C   UNL     1       2.958  -4.184  26.994  0.00  0.00    +0.178 C 
ATOM     18  C   UNL     1       3.103  -3.157  25.874  0.00  0.00    +0.178 C 
ATOM     19  C   UNL     1       3.251  -4.005  24.614  0.00  0.00    +0.195 C 
ATOM     20  C   UNL     1       2.930  -5.438  25.095  0.00  0.00    +0.255 C 
ATOM     21  O   UNL     1       2.282  -5.308  26.365  0.00  0.00    -0.346 OA
BRANCH  20  22
ATOM     22  N   UNL     1       2.173  -6.205  24.111  0.00  0.00    -0.271 N 
ATOM     23  C   UNL     1       2.568  -7.533  24.006  0.00  0.00    +0.331 A 
ATOM     24  O   UNL     1       3.469  -8.027  24.686  0.00  0.00    -0.246 OA
ATOM     25  N   UNL     1       1.931  -8.275  23.060  0.00  0.00    -0.275 N 
ATOM     26  H   UNL     1       2.256  -9.220  22.943  0.00  0.00    +0.173 HD
ATOM     27  C   UNL     1       1.137  -7.766  22.078  0.00  0.00    +0.254 A 
ATOM     28  O   UNL     1       0.788  -8.419  21.097  0.00  0.00    -0.268 OA
ATOM     29  C   UNL     1       0.729  -6.354  22.242  0.00  0.00    +0.088 A 
ATOM     30  C   UNL     1       1.261  -5.645  23.243  0.00  0.00    +0.098 A 
ENDBRANCH  20  22
BRANCH  19  31
ATOM     31  O   UNL     1       4.566  -3.905  24.069  0.00  0.00    -0.385 OA
ATOM     32  H   UNL     1       4.763  -4.760  23.629  0.00  0.00    +0.210 HD
ENDBRANCH  19  31
BRANCH  18  33
ATOM     33  O   UNL     1       1.898  -2.373  25.787  0.00  0.00    -0.386 OA
ATOM     34  H   UNL     1       1.338  -2.576  26.558  0.00  0.00    +0.210 HD
ENDBRANCH  18  33
ENDBRANCH  16  17
ENDBRANCH  15  16
ENDBRANCH  11  15
ENDBRANCH  10  11
ENDBRANCH   6  10
ENDBRANCH   5   6
ENDBRANCH   1   5
BRANCH   1  35
ATOM     35  O   UNL     1       8.659  -2.002  26.097  0.00  0.00    -0.186 OA
BRANCH  35  36
ATOM     36  P   UNL     1       8.055  -0.442  26.537  0.00  0.00    +0.492 P 
ATOM     37  O   UNL     1       6.803  -1.098  27.124  0.00  0.00    -0.226 OA
BRANCH  36  38
ATOM     38  O   UNL     1       9.104  -0.346  27.812  0.00  0.00    -0.302 OA
ATOM     39  H   UNL     1       9.019  -1.182  28.326  0.00  0.00    +0.222 HD
ENDBRANCH  36  38
BRANCH  36  40
ATOM     40  O   UNL     1       7.451   1.118  26.978  0.00  0.00    -0.186 OA
BRANCH  40  41
ATOM     41  P   UNL     1       5.831   0.964  27.567  0.00  0.00    +0.483 P 
ATOM     42  O   UNL     1       6.098   1.907  28.733  0.00  0.00    -0.227 OA
BRANCH  41  43
ATOM     43  O   UNL     1       4.213   0.811  28.157  0.00  0.00    -0.302 OA
ATOM     44  H   UNL     1       4.037  -0.151  28.055  0.00  0.00    +0.222 HD
ENDBRANCH  41  43
BRANCH  41  45
ATOM     45  O   UNL     1       5.253   1.815  26.285  0.00  0.00    -0.284 OA
BRANCH  45  46
ATOM     46  C   UNL     1       5.587   3.197  26.345  0.00  0.00    +0.206 C 
BRANCH  46  50
ATOM     47  C   UNL     1       6.651   5.057  23.400  0.00  0.00    +0.253 C 
ATOM     48  C   UNL     1       6.418   3.678  22.757  0.00  0.00    +0.195 C 
ATOM     49  C   UNL     1       6.333   2.708  23.946  0.00  0.00    +0.178 C 
ATOM     50  C   UNL     1       6.454   3.616  25.171  0.00  0.00    +0.178 C 
ATOM     51  O   UNL     1       6.071   4.930  24.725  0.00  0.00    -0.346 OA
BRANCH  47  59
ATOM     52  N   UNL     1      12.572   6.162  24.161  0.00  0.00    -0.341 N 
ATOM     53  H   UNL     1      12.376   7.150  24.057  0.00  0.00    +0.144 HD
ATOM     54  H   UNL     1      13.428   5.799  23.759  0.00  0.00    +0.144 HD
ATOM     55  C   UNL     1      11.485   5.354  23.837  0.00  0.00    +0.147 A 
ATOM     56  C   UNL     1      10.155   5.814  23.836  0.00  0.00    +0.147 A 
ATOM     57  N   UNL     1       9.591   7.034  24.122  0.00  0.00    -0.231 NA
ATOM     58  C   UNL     1       8.295   6.844  23.974  0.00  0.00    +0.203 A 
ATOM     59  N   UNL     1       8.000   5.559  23.574  0.00  0.00    -0.286 N 
ATOM     60  C   UNL     1       9.185   4.890  23.479  0.00  0.00    +0.167 A 
ATOM     61  N   UNL     1       9.386   3.613  23.136  0.00  0.00    -0.216 NA
ATOM     62  C   UNL     1      10.687   3.281  23.178  0.00  0.00    +0.225 A 
ATOM     63  N   UNL     1      11.733   4.070  23.496  0.00  0.00    -0.219 NA
ENDBRANCH  47  59
BRANCH  49  64
ATOM     64  O   UNL     1       7.380   1.745  23.920  0.00  0.00    -0.386 OA
ATOM     65  H   UNL     1       7.333   1.277  23.065  0.00  0.00    +0.210 HD
ENDBRANCH  49  64
BRANCH  48  66
ATOM     66  O   UNL     1       5.157   3.691  22.045  0.00  0.00    -0.385 OA
ATOM     67  H   UNL     1       5.316   3.438  21.119  0.00  0.00    +0.210 HD
ENDBRANCH  48  66
ENDBRANCH  46  50
ENDBRANCH  45  46
ENDBRANCH  41  45
ENDBRANCH  40  41
ENDBRANCH  36  40
ENDBRANCH  35  36
ENDBRANCH   1  35
TORSDOF 25
ENDMDL
MODEL 8
REMARK VINA RESULT:      -6.1      2.863      5.082
REMARK  Name = 
REMARK  25 active torsions:
REMARK  status: ('A' for Active; 'I' for Inactive)
REMARK    1  A    between atoms: N_10  and  C_11
REMARK    2  A    between atoms: C_14  and  C_16
REMARK    3  A    between atoms: C_16  and  O_17
REMARK    4  A    between atoms: O_17  and  P_18
REMARK    5  A    between atoms: P_18  and  O_19
REMARK    6  A    between atoms: P_18  and  O_21
REMARK    7  A    between atoms: O_21  and  P_22
REMARK    8  A    between atoms: P_22  and  O_23
REMARK    9  A    between atoms: P_22  and  O_25
REMARK   10  A    between atoms: O_25  and  P_26
REMARK   11  A    between atoms: P_26  and  O_27
REMARK   12  A    between atoms: P_26  and  O_29
REMARK   13  A    between atoms: O_29  and  P_30
REMARK   14  A    between atoms: P_30  and  O_31
REMARK   15  A    between atoms: P_30  and  O_33
REMARK   16  A    between atoms: O_33  and  P_34
REMARK   17  A    between atoms: P_34  and  O_35
REMARK   18  A    between atoms: P_34  and  O_37
REMARK   19  A    between atoms: O_37  and  C_38
REMARK   20  A    between atoms: C_38  and  C_39
REMARK   21  A    between atoms: C_42  and  N_50
REMARK   22  A    between atoms: C_44  and  O_46
REMARK   23  A    between atoms: C_47  and  O_49
REMARK   24  A    between atoms: C_58  and  O_60
REMARK   25  A    between atoms: C_61  and  O_63
REMARK                            x       y       z     vdW  Elec       q    Type
REMARK                         _______ _______ _______ _____ _____    ______ ____
ROOT
ATOM      1  P   UNL     1       3.807  -1.732  28.954  0.00  0.00    +0.492 P 
ATOM      2  O   UNL     1       3.824  -0.803  30.167  0.00  0.00    -0.226 OA
ENDROOT
BRANCH   1   3
ATOM      3  O   UNL     1       3.931  -3.026  30.095  0.00  0.00    -0.302 OA
ATOM      4  H   UNL     1       4.359  -2.527  30.841  0.00  0.00    +0.222 HD
ENDBRANCH   1   3
BRANCH   1   5
ATOM      5  O   UNL     1       3.683  -0.437  27.813  0.00  0.00    -0.186 OA
BRANCH   5   6
ATOM      6  P   UNL     1       5.102  -0.404  26.823  0.00  0.00    +0.492 P 
ATOM      7  O   UNL     1       5.936  -1.634  27.184  0.00  0.00    -0.226 OA
BRANCH   6   8
ATOM      8  O   UNL     1       4.296  -1.370  25.635  0.00  0.00    -0.302 OA
ATOM      9  H   UNL     1       4.216  -0.783  24.851  0.00  0.00    +0.222 HD
ENDBRANCH   6   8
BRANCH   6  10
ATOM     10  O   UNL     1       5.908   0.563  28.010  0.00  0.00    -0.186 OA
BRANCH  10  11
ATOM     11  P   UNL     1       6.678   1.624  27.020  0.00  0.00    +0.483 P 
ATOM     12  O   UNL     1       7.569   0.974  26.014  0.00  0.00    -0.227 OA
BRANCH  11  13
ATOM     13  O   UNL     1       7.536   2.482  28.066  0.00  0.00    -0.302 OA
ATOM     14  H   UNL     1       6.995   2.787  28.827  0.00  0.00    +0.222 HD
ENDBRANCH  11  13
BRANCH  11  15
ATOM     15  O   UNL     1       5.705   2.751  26.387  0.00  0.00    -0.284 OA
BRANCH  15  16
ATOM     16  C   UNL     1       5.657   2.708  24.941  0.00  0.00    +0.206 C 
BRANCH  16  17
ATOM     17  C   UNL     1       6.048   3.995  24.171  0.00  0.00    +0.178 C 
ATOM     18  C   UNL     1       6.225   5.221  25.062  0.00  0.00    +0.178 C 
ATOM     19  C   UNL     1       7.710   5.205  25.418  0.00  0.00    +0.195 C 
ATOM     20  C   UNL     1       8.297   4.112  24.499  0.00  0.00    +0.255 C 
ATOM     21  O   UNL     1       7.320   3.865  23.481  0.00  0.00    -0.346 OA
BRANCH  20  22
ATOM     22  N   UNL     1       9.620   4.455  23.990  0.00  0.00    -0.271 N 
ATOM     23  C   UNL     1      10.455   3.360  23.805  0.00  0.00    +0.331 A 
ATOM     24  O   UNL     1      10.111   2.200  24.038  0.00  0.00    -0.246 OA
ATOM     25  N   UNL     1      11.721   3.635  23.388  0.00  0.00    -0.275 N 
ATOM     26  H   UNL     1      12.344   2.848  23.309  0.00  0.00    +0.173 HD
ATOM     27  C   UNL     1      12.283   4.875  23.375  0.00  0.00    +0.254 A 
ATOM     28  O   UNL     1      13.490   5.058  23.242  0.00  0.00    -0.268 OA
ATOM     29  C   UNL     1      11.353   6.009  23.560  0.00  0.00    +0.088 A 
ATOM     30  C   UNL     1      10.075   5.749  23.856  0.00  0.00    +0.098 A 
ENDBRANCH  20  22
BRANCH  19  31
ATOM     31  O   UNL     1       7.912   4.909  26.799  0.00  0.00    -0.385 OA
ATOM     32  H   UNL     1       7.781   3.943  26.910  0.00  0.00    +0.210 HD
ENDBRANCH  19  31
BRANCH  18  33
ATOM     33  O   UNL     1       5.925   6.408  24.305  0.00  0.00    -0.386 OA
ATOM     34  H   UNL     1       6.428   7.153  24.681  0.00  0.00    +0.210 HD
ENDBRANCH  18  33
ENDBRANCH  16  17
ENDBRANCH  15  16
ENDBRANCH  11  15
ENDBRANCH  10  11
ENDBRANCH   6  10
ENDBRANCH   5   6
ENDBRANCH   1   5
BRANCH   1  35
ATOM     35  O   UNL     1       2.151  -2.141  28.669  0.00  0.00    -0.186 OA
BRANCH  35  36
ATOM     36  P   UNL     1       2.081  -3.511  27.614  0.00  0.00    +0.492 P 
ATOM     37  O   UNL     1       1.589  -2.607  26.481  0.00  0.00    -0.226 OA
BRANCH  36  38
ATOM     38  O   UNL     1       3.726  -3.522  27.446  0.00  0.00    -0.302 OA
ATOM     39  H   UNL     1       3.975  -2.721  26.929  0.00  0.00    +0.222 HD
ENDBRANCH  36  38
BRANCH  36  40
ATOM     40  O   UNL     1       2.012  -4.880  26.560  0.00  0.00    -0.186 OA
BRANCH  40  41
ATOM     41  P   UNL     1       3.209  -6.036  27.036  0.00  0.00    +0.483 P 
ATOM     42  O   UNL     1       2.221  -7.192  26.947  0.00  0.00    -0.227 OA
BRANCH  41  43
ATOM     43  O   UNL     1       4.405  -7.192  27.511  0.00  0.00    -0.302 OA
ATOM     44  H   UNL     1       4.647  -7.613  26.657  0.00  0.00    +0.222 HD
ENDBRANCH  41  43
BRANCH  41  45
ATOM     45  O   UNL     1       3.990  -5.862  25.600  0.00  0.00    -0.284 OA
BRANCH  45  46
ATOM     46  C   UNL     1       5.311  -6.393  25.624  0.00  0.00    +0.206 C 
BRANCH  46  50
ATOM     47  C   UNL     1       8.195  -4.729  24.146  0.00  0.00    +0.253 C 
ATOM     48  C   UNL     1       8.731  -4.946  25.572  0.00  0.00    +0.195 C 
ATOM     49  C   UNL     1       7.487  -5.294  26.404  0.00  0.00    +0.178 C 
ATOM     50  C   UNL     1       6.353  -5.316  25.377  0.00  0.00    +0.178 C 
ATOM     51  O   UNL     1       6.983  -5.529  24.101  0.00  0.00    -0.346 OA
BRANCH  47  59
ATOM     52  N   UNL     1       7.730   1.018  22.245  0.00  0.00    -0.341 N 
ATOM     53  H   UNL     1       6.728   0.888  22.176  0.00  0.00    +0.144 HD
ATOM     54  H   UNL     1       8.190   1.581  21.539  0.00  0.00    +0.144 HD
ATOM     55  C   UNL     1       8.419  -0.172  22.464  0.00  0.00    +0.147 A 
ATOM     56  C   UNL     1       7.817  -1.325  23.002  0.00  0.00    +0.147 A 
ATOM     57  N   UNL     1       6.539  -1.596  23.428  0.00  0.00    -0.231 NA
ATOM     58  C   UNL     1       6.589  -2.841  23.858  0.00  0.00    +0.203 A 
ATOM     59  N   UNL     1       7.840  -3.396  23.699  0.00  0.00    -0.286 N 
ATOM     60  C   UNL     1       8.635  -2.434  23.148  0.00  0.00    +0.167 A 
ATOM     61  N   UNL     1       9.931  -2.519  22.830  0.00  0.00    -0.216 NA
ATOM     62  C   UNL     1      10.402  -1.363  22.333  0.00  0.00    +0.225 A 
ATOM     63  N   UNL     1       9.727  -0.214  22.127  0.00  0.00    -0.219 NA
ENDBRANCH  47  59
BRANCH  49  64
ATOM     64  O   UNL     1       7.239  -4.326  27.417  0.00  0.00    -0.386 OA
ATOM     65  H   UNL     1       6.375  -4.531  27.820  0.00  0.00    +0.210 HD
ENDBRANCH  49  64
BRANCH  48  66
ATOM     66  O   UNL     1       9.648  -6.068  25.570  0.00  0.00    -0.385 OA
ATOM     67  H   UNL     1      10.061  -6.138  26.448  0.00  0.00    +0.210 HD
ENDBRANCH  48  66
ENDBRANCH  46  50
ENDBRANCH  45  46
ENDBRANCH  41  45
ENDBRANCH  40  41
ENDBRANCH  36  40
ENDBRANCH  35  36
ENDBRANCH   1  35
TORSDOF 25
ENDMDL
MODEL 9
REMARK VINA RESULT:      -6.1      3.892      8.684
REMARK  Name = 
REMARK  25 active torsions:
REMARK  status: ('A' for Active; 'I' for Inactive)
REMARK    1  A    between atoms: N_10  and  C_11
REMARK    2  A    between atoms: C_14  and  C_16
REMARK    3  A    between atoms: C_16  and  O_17
REMARK    4  A    between atoms: O_17  and  P_18
REMARK    5  A    between atoms: P_18  and  O_19
REMARK    6  A    between atoms: P_18  and  O_21
REMARK    7  A    between atoms: O_21  and  P_22
REMARK    8  A    between atoms: P_22  and  O_23
REMARK    9  A    between atoms: P_22  and  O_25
REMARK   10  A    between atoms: O_25  and  P_26
REMARK   11  A    between atoms: P_26  and  O_27
REMARK   12  A    between atoms: P_26  and  O_29
REMARK   13  A    between atoms: O_29  and  P_30
REMARK   14  A    between atoms: P_30  and  O_31
REMARK   15  A    between atoms: P_30  and  O_33
REMARK   16  A    between atoms: O_33  and  P_34
REMARK   17  A    between atoms: P_34  and  O_35
REMARK   18  A    between atoms: P_34  and  O_37
REMARK   19  A    between atoms: O_37  and  C_38
REMARK   20  A    between atoms: C_38  and  C_39
REMARK   21  A    between atoms: C_42  and  N_50
REMARK   22  A    between atoms: C_44  and  O_46
REMARK   23  A    between atoms: C_47  and  O_49
REMARK   24  A    between atoms: C_58  and  O_60
REMARK   25  A    between atoms: C_61  and  O_63
REMARK                            x       y       z     vdW  Elec       q    Type
REMARK                         _______ _______ _______ _____ _____    ______ ____
ROOT
ATOM      1  P   UNL     1       3.077  -6.392  26.141  0.00  0.00    +0.492 P 
ATOM      2  O   UNL     1       2.435  -7.685  25.640  0.00  0.00    -0.226 OA
ENDROOT
BRANCH   1   3
ATOM      3  O   UNL     1       3.867  -6.331  24.604  0.00  0.00    -0.302 OA
ATOM      4  H   UNL     1       3.133  -6.698  24.043  0.00  0.00    +0.222 HD
ENDBRANCH   1   3
BRANCH   1   5
ATOM      5  O   UNL     1       2.285  -6.453  27.679  0.00  0.00    -0.186 OA
BRANCH   5   6
ATOM      6  P   UNL     1       3.437  -6.858  28.904  0.00  0.00    +0.492 P 
ATOM      7  O   UNL     1       2.993  -6.162  30.192  0.00  0.00    -0.226 OA
BRANCH   6   8
ATOM      8  O   UNL     1       2.467  -8.213  29.370  0.00  0.00    -0.302 OA
ATOM      9  H   UNL     1       2.113  -7.971  30.254  0.00  0.00    +0.222 HD
ENDBRANCH   6   8
BRANCH   6  10
ATOM     10  O   UNL     1       4.408  -5.503  28.439  0.00  0.00    -0.186 OA
BRANCH  10  11
ATOM     11  P   UNL     1       5.887  -6.062  28.886  0.00  0.00    +0.483 P 
ATOM     12  O   UNL     1       5.967  -7.550  28.980  0.00  0.00    -0.227 OA
BRANCH  11  13
ATOM     13  O   UNL     1       6.066  -5.392  30.330  0.00  0.00    -0.302 OA
ATOM     14  H   UNL     1       6.064  -6.060  31.051  0.00  0.00    +0.222 HD
ENDBRANCH  11  13
BRANCH  11  15
ATOM     15  O   UNL     1       7.112  -5.401  28.060  0.00  0.00    -0.284 OA
BRANCH  15  16
ATOM     16  C   UNL     1       6.757  -5.059  26.699  0.00  0.00    +0.206 C 
BRANCH  16  17
ATOM     17  C   UNL     1       7.888  -5.056  25.641  0.00  0.00    +0.178 C 
ATOM     18  C   UNL     1       7.396  -4.882  24.207  0.00  0.00    +0.178 C 
ATOM     19  C   UNL     1       7.437  -3.372  23.985  0.00  0.00    +0.195 C 
ATOM     20  C   UNL     1       8.182  -2.838  25.228  0.00  0.00    +0.255 C 
ATOM     21  O   UNL     1       8.827  -3.963  25.834  0.00  0.00    -0.346 OA
BRANCH  20  22
ATOM     22  N   UNL     1       9.078  -1.730  24.913  0.00  0.00    -0.271 N 
ATOM     23  C   UNL     1       9.151  -0.763  25.907  0.00  0.00    +0.331 A 
ATOM     24  O   UNL     1       8.525  -0.833  26.966  0.00  0.00    -0.246 OA
ATOM     25  N   UNL     1       9.928   0.320  25.635  0.00  0.00    -0.275 N 
ATOM     26  H   UNL     1       9.936   1.049  26.330  0.00  0.00    +0.173 HD
ATOM     27  C   UNL     1      10.427   0.630  24.406  0.00  0.00    +0.254 A 
ATOM     28  O   UNL     1      10.901   1.731  24.138  0.00  0.00    -0.268 OA
ATOM     29  C   UNL     1      10.342  -0.437  23.386  0.00  0.00    +0.088 A 
ATOM     30  C   UNL     1       9.678  -1.558  23.684  0.00  0.00    +0.098 A 
ENDBRANCH  20  22
BRANCH  19  31
ATOM     31  O   UNL     1       6.123  -2.826  23.872  0.00  0.00    -0.385 OA
ATOM     32  H   UNL     1       6.173  -2.082  23.235  0.00  0.00    +0.210 HD
ENDBRANCH  19  31
BRANCH  18  33
ATOM     33  O   UNL     1       8.316  -5.526  23.306  0.00  0.00    -0.386 OA
ATOM     34  H   UNL     1       8.924  -4.854  22.950  0.00  0.00    +0.210 HD
ENDBRANCH  18  33
ENDBRANCH  16  17
ENDBRANCH  15  16
ENDBRANCH  11  15
ENDBRANCH  10  11
ENDBRANCH   6  10
ENDBRANCH   5   6
ENDBRANCH   1   5
BRANCH   1  35
ATOM     35  O   UNL     1       2.032  -5.102  25.655  0.00  0.00    -0.186 OA
BRANCH  35  36
ATOM     36  P   UNL     1       2.935  -3.627  25.618  0.00  0.00    +0.492 P 
ATOM     37  O   UNL     1       1.674  -2.871  25.193  0.00  0.00    -0.226 OA
BRANCH  36  38
ATOM     38  O   UNL     1       2.935  -3.532  27.269  0.00  0.00    -0.302 OA
ATOM     39  H   UNL     1       3.657  -2.916  27.529  0.00  0.00    +0.222 HD
ENDBRANCH  36  38
BRANCH  36  40
ATOM     40  O   UNL     1       3.839  -2.152  25.581  0.00  0.00    -0.186 OA
BRANCH  40  41
ATOM     41  P   UNL     1       3.957  -1.508  27.183  0.00  0.00    +0.483 P 
ATOM     42  O   UNL     1       5.419  -1.914  27.308  0.00  0.00    -0.227 OA
BRANCH  41  43
ATOM     43  O   UNL     1       4.075  -0.864  28.784  0.00  0.00    -0.302 OA
ATOM     44  H   UNL     1       4.663  -1.512  29.233  0.00  0.00    +0.222 HD
ENDBRANCH  41  43
BRANCH  41  45
ATOM     45  O   UNL     1       3.855   0.027  26.605  0.00  0.00    -0.284 OA
BRANCH  45  46
ATOM     46  C   UNL     1       3.883   1.008  27.637  0.00  0.00    +0.206 C 
BRANCH  46  50
ATOM     47  C   UNL     1       7.180   2.406  26.974  0.00  0.00    +0.253 C 
ATOM     48  C   UNL     1       6.956   2.950  28.396  0.00  0.00    +0.195 C 
ATOM     49  C   UNL     1       5.453   2.755  28.651  0.00  0.00    +0.178 C 
ATOM     50  C   UNL     1       4.954   2.055  27.387  0.00  0.00    +0.178 C 
ATOM     51  O   UNL     1       6.111   1.438  26.795  0.00  0.00    -0.346 OA
BRANCH  47  59
ATOM     52  N   UNL     1       7.343   5.362  21.673  0.00  0.00    -0.341 N 
ATOM     53  H   UNL     1       6.918   6.158  22.133  0.00  0.00    +0.144 HD
ATOM     54  H   UNL     1       7.061   5.151  20.724  0.00  0.00    +0.144 HD
ATOM     55  C   UNL     1       7.344   4.215  22.463  0.00  0.00    +0.147 A 
ATOM     56  C   UNL     1       7.229   4.243  23.866  0.00  0.00    +0.147 A 
ATOM     57  N   UNL     1       7.104   5.271  24.769  0.00  0.00    -0.231 NA
ATOM     58  C   UNL     1       7.068   4.676  25.945  0.00  0.00    +0.203 A 
ATOM     59  N   UNL     1       7.134   3.305  25.837  0.00  0.00    -0.286 N 
ATOM     60  C   UNL     1       7.234   3.015  24.508  0.00  0.00    +0.167 A 
ATOM     61  N   UNL     1       7.336   1.812  23.932  0.00  0.00    -0.216 NA
ATOM     62  C   UNL     1       7.448   1.905  22.596  0.00  0.00    +0.225 A 
ATOM     63  N   UNL     1       7.448   3.020  21.840  0.00  0.00    -0.219 NA
ENDBRANCH  47  59
BRANCH  49  64
ATOM     64  O   UNL     1       4.784   3.996  28.846  0.00  0.00    -0.386 OA
ATOM     65  H   UNL     1       5.081   4.364  29.699  0.00  0.00    +0.210 HD
ENDBRANCH  49  64
BRANCH  48  66
ATOM     66  O   UNL     1       7.719   2.155  29.336  0.00  0.00    -0.385 OA
ATOM     67  H   UNL     1       7.106   1.744  29.970  0.00  0.00    +0.210 HD
ENDBRANCH  48  66
ENDBRANCH  46  50
ENDBRANCH  45  46
ENDBRANCH  41  45
ENDBRANCH  40  41
ENDBRANCH  36  40
ENDBRANCH  35  36
ENDBRANCH   1  35
TORSDOF 25
ENDMDL
