MODEL 1
REMARK VINA RESULT:      -7.0      0.000      0.000
REMARK  Name = 
REMARK  1 active torsions:
REMARK  status: ('A' for Active; 'I' for Inactive)
REMARK    1  A    between atoms: C_15  and  C_16
REMARK                            x       y       z     vdW  Elec       q    Type
REMARK                         _______ _______ _______ _____ _____    ______ ____
ROOT
ATOM      1 CL   UNL     1       6.077  -5.650  20.032  0.00  0.00    -0.084 Cl
ATOM      2  C   UNL     1       6.152  -5.492  21.743  0.00  0.00    +0.042 A 
ATOM      3  C   UNL     1       5.141  -6.035  22.530  0.00  0.00    +0.022 A 
ATOM      4  C   UNL     1       5.202  -5.917  23.920  0.00  0.00    +0.028 A 
ATOM      5  C   UNL     1       6.286  -5.256  24.525  0.00  0.00    +0.058 A 
ATOM      6  N   UNL     1       6.368  -5.248  25.937  0.00  0.00    -0.283 N 
ATOM      7  C   UNL     1       7.514  -5.239  26.697  0.00  0.00    +0.159 A 
ATOM      8  C   UNL     1       8.862  -5.275  26.090  0.00  0.00    +0.218 C 
ATOM      9  N   UNL     1       9.091  -4.072  25.311  0.00  0.00    -0.275 NA
ATOM     10  C   UNL     1       8.373  -3.791  24.280  0.00  0.00    +0.075 C 
ATOM     11  N   UNL     1       7.198  -5.298  27.974  0.00  0.00    -0.132 NA
ATOM     12  N   UNL     1       5.831  -5.366  28.069  0.00  0.00    -0.137 NA
ATOM     13  C   UNL     1       5.350  -5.353  26.848  0.00  0.00    +0.230 A 
ATOM     14  C   UNL     1       7.284  -4.663  23.726  0.00  0.00    +0.026 A 
ATOM     15  C   UNL     1       7.217  -4.809  22.329  0.00  0.00    +0.032 A 
ENDROOT
BRANCH  10  16
ATOM     16  C   UNL     1       8.647  -2.462  23.633  0.00  0.00    +0.001 A 
ATOM     17  C   UNL     1       9.913  -2.135  23.132  0.00  0.00    +0.010 A 
ATOM     18  C   UNL     1      10.106  -0.929  22.453  0.00  0.00    +0.001 A 
ATOM     19  C   UNL     1       9.038  -0.053  22.261  0.00  0.00    +0.000 A 
ATOM     20  C   UNL     1       7.774  -0.374  22.753  0.00  0.00    +0.001 A 
ATOM     21  C   UNL     1       7.578  -1.576  23.436  0.00  0.00    +0.010 A 
ENDBRANCH  10  16
TORSDOF 1
ENDMDL
MODEL 2
REMARK VINA RESULT:      -6.8      2.954      4.310
REMARK  Name = 
REMARK  1 active torsions:
REMARK  status: ('A' for Active; 'I' for Inactive)
REMARK    1  A    between atoms: C_15  and  C_16
REMARK                            x       y       z     vdW  Elec       q    Type
REMARK                         _______ _______ _______ _____ _____    ______ ____
ROOT
ATOM      1 CL   UNL     1       4.715   1.255  26.032  0.00  0.00    -0.084 Cl
ATOM      2  C   UNL     1       5.700  -0.138  25.815  0.00  0.00    +0.042 A 
ATOM      3  C   UNL     1       5.660  -1.163  26.755  0.00  0.00    +0.022 A 
ATOM      4  C   UNL     1       6.450  -2.300  26.579  0.00  0.00    +0.028 A 
ATOM      5  C   UNL     1       7.282  -2.414  25.451  0.00  0.00    +0.058 A 
ATOM      6  N   UNL     1       7.987  -3.623  25.251  0.00  0.00    -0.283 N 
ATOM      7  C   UNL     1       8.328  -4.191  24.047  0.00  0.00    +0.159 A 
ATOM      8  C   UNL     1       7.942  -3.586  22.754  0.00  0.00    +0.218 C 
ATOM      9  N   UNL     1       8.589  -2.296  22.593  0.00  0.00    -0.275 NA
ATOM     10  C   UNL     1       8.348  -1.318  23.395  0.00  0.00    +0.075 C 
ATOM     11  N   UNL     1       8.924  -5.347  24.255  0.00  0.00    -0.132 NA
ATOM     12  N   UNL     1       8.966  -5.562  25.610  0.00  0.00    -0.137 NA
ATOM     13  C   UNL     1       8.389  -4.537  26.190  0.00  0.00    +0.230 A 
ATOM     14  C   UNL     1       7.359  -1.354  24.524  0.00  0.00    +0.026 A 
ATOM     15  C   UNL     1       6.541  -0.226  24.707  0.00  0.00    +0.032 A 
ENDROOT
BRANCH  10  16
ATOM     16  C   UNL     1       9.168  -0.077  23.180  0.00  0.00    +0.001 A 
ATOM     17  C   UNL     1       9.090   0.658  21.990  0.00  0.00    +0.010 A 
ATOM     18  C   UNL     1       9.795   1.858  21.862  0.00  0.00    +0.001 A 
ATOM     19  C   UNL     1      10.568   2.334  22.922  0.00  0.00    +0.000 A 
ATOM     20  C   UNL     1      10.646   1.609  24.110  0.00  0.00    +0.001 A 
ATOM     21  C   UNL     1       9.947   0.409  24.240  0.00  0.00    +0.010 A 
ENDBRANCH  10  16
TORSDOF 1
ENDMDL
MODEL 3
REMARK VINA RESULT:      -6.7      5.096      7.255
REMARK  Name = 
REMARK  1 active torsions:
REMARK  status: ('A' for Active; 'I' for Inactive)
REMARK    1  A    between atoms: C_15  and  C_16
REMARK                            x       y       z     vdW  Elec       q    Type
REMARK                         _______ _______ _______ _____ _____    ______ ____
ROOT
ATOM      1 CL   UNL     1       6.239   3.210  27.056  0.00  0.00    -0.084 Cl
ATOM      2  C   UNL     1       7.191   2.142  26.100  0.00  0.00    +0.042 A 
ATOM      3  C   UNL     1       7.256   0.793  26.434  0.00  0.00    +0.022 A 
ATOM      4  C   UNL     1       8.019  -0.079  25.656  0.00  0.00    +0.028 A 
ATOM      5  C   UNL     1       8.717   0.402  24.534  0.00  0.00    +0.058 A 
ATOM      6  N   UNL     1       9.392  -0.527  23.709  0.00  0.00    -0.283 N 
ATOM      7  C   UNL     1       9.593  -0.435  22.353  0.00  0.00    +0.159 A 
ATOM      8  C   UNL     1       9.063   0.691  21.554  0.00  0.00    +0.218 C 
ATOM      9  N   UNL     1       9.690   1.935  21.966  0.00  0.00    -0.275 NA
ATOM     10  C   UNL     1       9.543   2.399  23.158  0.00  0.00    +0.075 C 
ATOM     11  N   UNL     1      10.207  -1.517  21.921  0.00  0.00    -0.132 NA
ATOM     12  N   UNL     1      10.403  -2.348  22.995  0.00  0.00    -0.137 NA
ATOM     13  C   UNL     1       9.897  -1.754  24.050  0.00  0.00    +0.230 A 
ATOM     14  C   UNL     1       8.690   1.777  24.225  0.00  0.00    +0.026 A 
ATOM     15  C   UNL     1       7.899   2.638  25.007  0.00  0.00    +0.032 A 
ENDROOT
BRANCH  10  16
ATOM     16  C   UNL     1      10.335   3.635  23.482  0.00  0.00    +0.001 A 
ATOM     17  C   UNL     1      11.718   3.698  23.268  0.00  0.00    +0.010 A 
ATOM     18  C   UNL     1      12.406   4.894  23.492  0.00  0.00    +0.001 A 
ATOM     19  C   UNL     1      11.718   6.030  23.916  0.00  0.00    +0.000 A 
ATOM     20  C   UNL     1      10.341   5.975  24.127  0.00  0.00    +0.001 A 
ATOM     21  C   UNL     1       9.651   4.782  23.908  0.00  0.00    +0.010 A 
ENDBRANCH  10  16
TORSDOF 1
ENDMDL
MODEL 4
REMARK VINA RESULT:      -6.3      6.403      9.422
REMARK  Name = 
REMARK  1 active torsions:
REMARK  status: ('A' for Active; 'I' for Inactive)
REMARK    1  A    between atoms: C_15  and  C_16
REMARK                            x       y       z     vdW  Elec       q    Type
REMARK                         _______ _______ _______ _____ _____    ______ ____
ROOT
ATOM      1 CL   UNL     1      13.569   4.873  23.000  0.00  0.00    -0.084 Cl
ATOM      2  C   UNL     1      11.911   4.971  23.446  0.00  0.00    +0.042 A 
ATOM      3  C   UNL     1      11.462   6.056  24.193  0.00  0.00    +0.022 A 
ATOM      4  C   UNL     1      10.115   6.145  24.550  0.00  0.00    +0.028 A 
ATOM      5  C   UNL     1       9.212   5.145  24.151  0.00  0.00    +0.058 A 
ATOM      6  N   UNL     1       7.839   5.321  24.439  0.00  0.00    -0.283 N 
ATOM      7  C   UNL     1       6.774   4.875  23.693  0.00  0.00    +0.159 A 
ATOM      8  C   UNL     1       6.956   4.151  22.416  0.00  0.00    +0.218 C 
ATOM      9  N   UNL     1       7.622   2.883  22.651  0.00  0.00    -0.275 NA
ATOM     10  C   UNL     1       8.817   2.829  23.127  0.00  0.00    +0.075 C 
ATOM     11  N   UNL     1       5.648   5.282  24.240  0.00  0.00    -0.132 NA
ATOM     12  N   UNL     1       5.962   6.022  25.352  0.00  0.00    -0.137 NA
ATOM     13  C   UNL     1       7.270   6.052  25.449  0.00  0.00    +0.230 A 
ATOM     14  C   UNL     1       9.676   4.021  23.436  0.00  0.00    +0.026 A 
ATOM     15  C   UNL     1      11.031   3.958  23.068  0.00  0.00    +0.032 A 
ENDROOT
BRANCH  10  16
ATOM     16  C   UNL     1       9.343   1.453  23.424  0.00  0.00    +0.001 A 
ATOM     17  C   UNL     1       9.410   0.958  24.732  0.00  0.00    +0.010 A 
ATOM     18  C   UNL     1       9.815  -0.360  24.962  0.00  0.00    +0.001 A 
ATOM     19  C   UNL     1      10.143  -1.190  23.890  0.00  0.00    +0.000 A 
ATOM     20  C   UNL     1      10.075  -0.705  22.585  0.00  0.00    +0.001 A 
ATOM     21  C   UNL     1       9.675   0.612  22.352  0.00  0.00    +0.010 A 
ENDBRANCH  10  16
TORSDOF 1
ENDMDL
MODEL 5
REMARK VINA RESULT:      -6.3      3.384      6.097
REMARK  Name = 
REMARK  1 active torsions:
REMARK  status: ('A' for Active; 'I' for Inactive)
REMARK    1  A    between atoms: C_15  and  C_16
REMARK                            x       y       z     vdW  Elec       q    Type
REMARK                         _______ _______ _______ _____ _____    ______ ____
ROOT
ATOM      1 CL   UNL     1       4.157  -1.752  26.795  0.00  0.00    -0.084 Cl
ATOM      2  C   UNL     1       5.306  -1.097  25.695  0.00  0.00    +0.042 A 
ATOM      3  C   UNL     1       5.302   0.268  25.428  0.00  0.00    +0.022 A 
ATOM      4  C   UNL     1       6.238   0.807  24.543  0.00  0.00    +0.028 A 
ATOM      5  C   UNL     1       7.187  -0.027  23.927  0.00  0.00    +0.058 A 
ATOM      6  N   UNL     1       8.185   0.567  23.120  0.00  0.00    -0.283 N 
ATOM      7  C   UNL     1       9.473   0.122  22.937  0.00  0.00    +0.159 A 
ATOM      8  C   UNL     1       9.998  -1.074  23.631  0.00  0.00    +0.218 C 
ATOM      9  N   UNL     1       9.280  -2.259  23.197  0.00  0.00    -0.275 NA
ATOM     10  C   UNL     1       8.017  -2.396  23.410  0.00  0.00    +0.075 C 
ATOM     11  N   UNL     1      10.128   0.966  22.168  0.00  0.00    -0.132 NA
ATOM     12  N   UNL     1       9.278   1.994  21.849  0.00  0.00    -0.137 NA
ATOM     13  C   UNL     1       8.129   1.753  22.436  0.00  0.00    +0.230 A 
ATOM     14  C   UNL     1       7.160  -1.418  24.160  0.00  0.00    +0.026 A 
ATOM     15  C   UNL     1       6.223  -1.939  25.070  0.00  0.00    +0.032 A 
ENDROOT
BRANCH  10  16
ATOM     16  C   UNL     1       7.380  -3.619  22.813  0.00  0.00    +0.001 A 
ATOM     17  C   UNL     1       6.426  -3.525  21.792  0.00  0.00    +0.010 A 
ATOM     18  C   UNL     1       5.924  -4.685  21.195  0.00  0.00    +0.001 A 
ATOM     19  C   UNL     1       6.381  -5.938  21.604  0.00  0.00    +0.000 A 
ATOM     20  C   UNL     1       7.334  -6.038  22.616  0.00  0.00    +0.001 A 
ATOM     21  C   UNL     1       7.834  -4.883  23.218  0.00  0.00    +0.010 A 
ENDBRANCH  10  16
TORSDOF 1
ENDMDL
MODEL 6
REMARK VINA RESULT:      -6.3      1.014      1.489
REMARK  Name = 
REMARK  1 active torsions:
REMARK  status: ('A' for Active; 'I' for Inactive)
REMARK    1  A    between atoms: C_15  and  C_16
REMARK                            x       y       z     vdW  Elec       q    Type
REMARK                         _______ _______ _______ _____ _____    ______ ____
ROOT
ATOM      1 CL   UNL     1       6.068  -4.788  20.332  0.00  0.00    -0.084 Cl
ATOM      2  C   UNL     1       6.133  -4.996  22.039  0.00  0.00    +0.042 A 
ATOM      3  C   UNL     1       5.239  -5.862  22.660  0.00  0.00    +0.022 A 
ATOM      4  C   UNL     1       5.293  -6.042  24.044  0.00  0.00    +0.028 A 
ATOM      5  C   UNL     1       6.252  -5.353  24.808  0.00  0.00    +0.058 A 
ATOM      6  N   UNL     1       6.347  -5.640  26.190  0.00  0.00    -0.283 N 
ATOM      7  C   UNL     1       7.481  -5.601  26.965  0.00  0.00    +0.159 A 
ATOM      8  C   UNL     1       8.809  -5.273  26.403  0.00  0.00    +0.218 C 
ATOM      9  N   UNL     1       8.819  -3.907  25.910  0.00  0.00    -0.275 NA
ATOM     10  C   UNL     1       8.053  -3.535  24.944  0.00  0.00    +0.075 C 
ATOM     11  N   UNL     1       7.193  -5.990  28.190  0.00  0.00    -0.132 NA
ATOM     12  N   UNL     1       5.859  -6.309  28.230  0.00  0.00    -0.137 NA
ATOM     13  C   UNL     1       5.371  -6.113  27.027  0.00  0.00    +0.230 A 
ATOM     14  C   UNL     1       7.125  -4.438  24.184  0.00  0.00    +0.026 A 
ATOM     15  C   UNL     1       7.069  -4.286  22.787  0.00  0.00    +0.032 A 
ENDROOT
BRANCH  10  16
ATOM     16  C   UNL     1       8.085  -2.070  24.608  0.00  0.00    +0.001 A 
ATOM     17  C   UNL     1       6.981  -1.240  24.835  0.00  0.00    +0.010 A 
ATOM     18  C   UNL     1       7.079   0.134  24.599  0.00  0.00    +0.001 A 
ATOM     19  C   UNL     1       8.279   0.685  24.150  0.00  0.00    +0.000 A 
ATOM     20  C   UNL     1       9.383  -0.136  23.926  0.00  0.00    +0.001 A 
ATOM     21  C   UNL     1       9.288  -1.509  24.156  0.00  0.00    +0.010 A 
ENDBRANCH  10  16
TORSDOF 1
ENDMDL
MODEL 7
REMARK VINA RESULT:      -6.2      2.988      5.965
REMARK  Name = 
REMARK  1 active torsions:
REMARK  status: ('A' for Active; 'I' for Inactive)
REMARK    1  A    between atoms: C_15  and  C_16
REMARK                            x       y       z     vdW  Elec       q    Type
REMARK                         _______ _______ _______ _____ _____    ______ ____
ROOT
ATOM      1 CL   UNL     1       4.032  -0.569  27.136  0.00  0.00    -0.084 Cl
ATOM      2  C   UNL     1       5.270  -0.755  25.956  0.00  0.00    +0.042 A 
ATOM      3  C   UNL     1       5.700   0.351  25.230  0.00  0.00    +0.022 A 
ATOM      4  C   UNL     1       6.711   0.207  24.277  0.00  0.00    +0.028 A 
ATOM      5  C   UNL     1       7.299  -1.051  24.056  0.00  0.00    +0.058 A 
ATOM      6  N   UNL     1       8.391  -1.138  23.162  0.00  0.00    -0.283 N 
ATOM      7  C   UNL     1       9.448  -2.013  23.233  0.00  0.00    +0.159 A 
ATOM      8  C   UNL     1       9.589  -2.991  24.334  0.00  0.00    +0.218 C 
ATOM      9  N   UNL     1       8.498  -3.949  24.294  0.00  0.00    -0.275 NA
ATOM     10  C   UNL     1       7.275  -3.582  24.456  0.00  0.00    +0.075 C 
ATOM     11  N   UNL     1      10.302  -1.756  22.263  0.00  0.00    -0.132 NA
ATOM     12  N   UNL     1       9.820  -0.688  21.549  0.00  0.00    -0.137 NA
ATOM     13  C   UNL     1       8.690  -0.319  22.105  0.00  0.00    +0.230 A 
ATOM     14  C   UNL     1       6.829  -2.180  24.758  0.00  0.00    +0.026 A 
ATOM     15  C   UNL     1       5.824  -2.013  25.727  0.00  0.00    +0.032 A 
ENDROOT
BRANCH  10  16
ATOM     16  C   UNL     1       6.240  -4.657  24.281  0.00  0.00    +0.001 A 
ATOM     17  C   UNL     1       5.950  -5.571  25.302  0.00  0.00    +0.010 A 
ATOM     18  C   UNL     1       4.916  -6.497  25.139  0.00  0.00    +0.001 A 
ATOM     19  C   UNL     1       4.161  -6.507  23.965  0.00  0.00    +0.000 A 
ATOM     20  C   UNL     1       4.442  -5.597  22.947  0.00  0.00    +0.001 A 
ATOM     21  C   UNL     1       5.476  -4.673  23.105  0.00  0.00    +0.010 A 
ENDBRANCH  10  16
TORSDOF 1
ENDMDL
MODEL 8
REMARK VINA RESULT:      -6.0      3.466      5.291
REMARK  Name = 
REMARK  1 active torsions:
REMARK  status: ('A' for Active; 'I' for Inactive)
REMARK    1  A    between atoms: C_15  and  C_16
REMARK                            x       y       z     vdW  Elec       q    Type
REMARK                         _______ _______ _______ _____ _____    ______ ____
ROOT
ATOM      1 CL   UNL     1      10.538   2.126  22.742  0.00  0.00    -0.084 Cl
ATOM      2  C   UNL     1       9.798   0.580  22.886  0.00  0.00    +0.042 A 
ATOM      3  C   UNL     1       9.678  -0.233  21.763  0.00  0.00    +0.022 A 
ATOM      4  C   UNL     1       9.087  -1.492  21.876  0.00  0.00    +0.028 A 
ATOM      5  C   UNL     1       8.617  -1.942  23.123  0.00  0.00    +0.058 A 
ATOM      6  N   UNL     1       8.121  -3.263  23.221  0.00  0.00    -0.283 N 
ATOM      7  C   UNL     1       8.187  -4.091  24.316  0.00  0.00    +0.159 A 
ATOM      8  C   UNL     1       8.854  -3.683  25.572  0.00  0.00    +0.218 C 
ATOM      9  N   UNL     1       8.150  -2.563  26.170  0.00  0.00    -0.275 NA
ATOM     10  C   UNL     1       8.059  -1.428  25.570  0.00  0.00    +0.075 C 
ATOM     11  N   UNL     1       7.676  -5.266  24.014  0.00  0.00    -0.132 NA
ATOM     12  N   UNL     1       7.281  -5.230  22.701  0.00  0.00    -0.137 NA
ATOM     13  C   UNL     1       7.568  -4.037  22.235  0.00  0.00    +0.230 A 
ATOM     14  C   UNL     1       8.694  -1.099  24.250  0.00  0.00    +0.026 A 
ATOM     15  C   UNL     1       9.311   0.158  24.121  0.00  0.00    +0.032 A 
ENDROOT
BRANCH  10  16
ATOM     16  C   UNL     1       7.211  -0.392  26.252  0.00  0.00    +0.001 A 
ATOM     17  C   UNL     1       5.973   0.004  25.730  0.00  0.00    +0.010 A 
ATOM     18  C   UNL     1       5.168   0.900  26.440  0.00  0.00    +0.001 A 
ATOM     19  C   UNL     1       5.589   1.393  27.675  0.00  0.00    +0.000 A 
ATOM     20  C   UNL     1       6.818   0.999  28.203  0.00  0.00    +0.001 A 
ATOM     21  C   UNL     1       7.626   0.108  27.495  0.00  0.00    +0.010 A 
ENDBRANCH  10  16
TORSDOF 1
ENDMDL
MODEL 9
REMARK VINA RESULT:      -6.0      4.136      6.612
REMARK  Name = 
REMARK  1 active torsions:
REMARK  status: ('A' for Active; 'I' for Inactive)
REMARK    1  A    between atoms: C_15  and  C_16
REMARK                            x       y       z     vdW  Elec       q    Type
REMARK                         _______ _______ _______ _____ _____    ______ ____
ROOT
ATOM      1 CL   UNL     1       5.068  -0.978  27.954  0.00  0.00    -0.084 Cl
ATOM      2  C   UNL     1       6.165  -0.154  26.916  0.00  0.00    +0.042 A 
ATOM      3  C   UNL     1       6.071   1.227  26.772  0.00  0.00    +0.022 A 
ATOM      4  C   UNL     1       6.965   1.901  25.938  0.00  0.00    +0.028 A 
ATOM      5  C   UNL     1       7.963   1.189  25.250  0.00  0.00    +0.058 A 
ATOM      6  N   UNL     1       8.916   1.916  24.499  0.00  0.00    -0.283 N 
ATOM      7  C   UNL     1      10.228   1.573  24.277  0.00  0.00    +0.159 A 
ATOM      8  C   UNL     1      10.834   0.357  24.860  0.00  0.00    +0.218 C 
ATOM      9  N   UNL     1      10.191  -0.829  24.323  0.00  0.00    -0.275 NA
ATOM     10  C   UNL     1       8.941  -1.066  24.523  0.00  0.00    +0.075 C 
ATOM     11  N   UNL     1      10.823   2.524  23.586  0.00  0.00    -0.132 NA
ATOM     12  N   UNL     1       9.906   3.519  23.360  0.00  0.00    -0.137 NA
ATOM     13  C   UNL     1       8.779   3.152  23.924  0.00  0.00    +0.230 A 
ATOM     14  C   UNL     1       8.027  -0.216  25.358  0.00  0.00    +0.026 A 
ATOM     15  C   UNL     1       7.131  -0.876  26.218  0.00  0.00    +0.032 A 
ENDROOT
BRANCH  10  16
ATOM     16  C   UNL     1       8.380  -2.269  23.819  0.00  0.00    +0.001 A 
ATOM     17  C   UNL     1       8.598  -3.567  24.296  0.00  0.00    +0.010 A 
ATOM     18  C   UNL     1       7.983  -4.655  23.670  0.00  0.00    +0.001 A 
ATOM     19  C   UNL     1       7.142  -4.451  22.576  0.00  0.00    +0.000 A 
ATOM     20  C   UNL     1       6.918  -3.160  22.099  0.00  0.00    +0.001 A 
ATOM     21  C   UNL     1       7.533  -2.072  22.719  0.00  0.00    +0.010 A 
ENDBRANCH  10  16
TORSDOF 1
ENDMDL
