MODEL 1
REMARK VINA RESULT:      -5.2      0.000      0.000
REMARK  Name = 
REMARK  1 active torsions:
REMARK  status: ('A' for Active; 'I' for Inactive)
REMARK    1  A    between atoms: C_9  and  O_10
REMARK                            x       y       z     vdW  Elec       q    Type
REMARK                         _______ _______ _______ _____ _____    ______ ____
ROOT
ATOM      1  N   UNL     1       7.091  -4.121  22.290  0.00  0.00    -0.327 N 
ATOM      2  H   UNL     1       7.877  -3.626  21.892  0.00  0.00    +0.145 HD
ATOM      3  H   UNL     1       6.192  -3.658  22.289  0.00  0.00    +0.145 HD
ATOM      4  C   UNL     1       7.406  -4.572  23.557  0.00  0.00    +0.218 A 
ATOM      5  N   UNL     1       8.712  -4.716  23.830  0.00  0.00    -0.178 NA
ATOM      6  C   UNL     1       9.075  -5.170  25.037  0.00  0.00    +0.245 A 
ATOM      7  C   UNL     1       8.093  -5.454  25.949  0.00  0.00    +0.166 A 
ATOM      8  N   UNL     1       8.015  -5.920  27.221  0.00  0.00    -0.251 N 
ATOM      9  H   UNL     1       8.747  -6.207  27.860  0.00  0.00    +0.191 HD
ATOM     10  N   UNL     1       6.742  -5.993  27.647  0.00  0.00    -0.066 NA
ATOM     11  N   UNL     1       5.967  -5.581  26.647  0.00  0.00    -0.109 NA
ATOM     12  C   UNL     1       6.775  -5.250  25.596  0.00  0.00    +0.209 A 
ATOM     13  N   UNL     1       6.390  -4.793  24.392  0.00  0.00    -0.191 NA
ENDROOT
BRANCH   6  14
ATOM     14  O   UNL     1      10.420  -5.308  25.250  0.00  0.00    -0.491 OA
ATOM     15  H   UNL     1      10.862  -4.465  25.092  0.00  0.00    +0.294 HD
ENDBRANCH   6  14
TORSDOF 1
ENDMDL
MODEL 2
REMARK VINA RESULT:      -5.1      1.848      1.921
REMARK  Name = 
REMARK  1 active torsions:
REMARK  status: ('A' for Active; 'I' for Inactive)
REMARK    1  A    between atoms: C_9  and  O_10
REMARK                            x       y       z     vdW  Elec       q    Type
REMARK                         _______ _______ _______ _____ _____    ______ ____
ROOT
ATOM      1  N   UNL     1       8.361  -1.331  24.537  0.00  0.00    -0.327 N 
ATOM      2  H   UNL     1       9.282  -1.136  24.171  0.00  0.00    +0.145 HD
ATOM      3  H   UNL     1       7.921  -0.625  25.110  0.00  0.00    +0.145 HD
ATOM      4  C   UNL     1       8.355  -2.554  25.179  0.00  0.00    +0.218 A 
ATOM      5  N   UNL     1       9.315  -3.420  24.820  0.00  0.00    -0.178 NA
ATOM      6  C   UNL     1       9.344  -4.630  25.396  0.00  0.00    +0.245 A 
ATOM      7  C   UNL     1       8.399  -4.925  26.341  0.00  0.00    +0.166 A 
ATOM      8  N   UNL     1       8.070  -5.978  27.131  0.00  0.00    -0.251 N 
ATOM      9  H   UNL     1       8.489  -6.897  27.205  0.00  0.00    +0.191 HD
ATOM     10  N   UNL     1       7.013  -5.702  27.914  0.00  0.00    -0.066 NA
ATOM     11  N   UNL     1       6.630  -4.458  27.637  0.00  0.00    -0.109 NA
ATOM     12  C   UNL     1       7.464  -3.966  26.673  0.00  0.00    +0.209 A 
ATOM     13  N   UNL     1       7.418  -2.746  26.109  0.00  0.00    -0.191 NA
ENDROOT
BRANCH   6  14
ATOM     14  O   UNL     1      10.339  -5.473  24.977  0.00  0.00    -0.491 OA
ATOM     15  H   UNL     1      10.831  -5.799  25.741  0.00  0.00    +0.294 HD
ENDBRANCH   6  14
TORSDOF 1
ENDMDL
MODEL 3
REMARK VINA RESULT:      -4.9      4.890      5.888
REMARK  Name = 
REMARK  1 active torsions:
REMARK  status: ('A' for Active; 'I' for Inactive)
REMARK    1  A    between atoms: C_9  and  O_10
REMARK                            x       y       z     vdW  Elec       q    Type
REMARK                         _______ _______ _______ _____ _____    ______ ____
ROOT
ATOM      1  N   UNL     1       9.984   2.238  21.486  0.00  0.00    -0.327 N 
ATOM      2  H   UNL     1      10.010   3.073  22.054  0.00  0.00    +0.145 HD
ATOM      3  H   UNL     1       9.345   2.218  20.704  0.00  0.00    +0.145 HD
ATOM      4  C   UNL     1       9.812   1.125  22.286  0.00  0.00    +0.218 A 
ATOM      5  N   UNL     1      10.175   1.254  23.571  0.00  0.00    -0.178 NA
ATOM      6  C   UNL     1      10.049   0.199  24.389  0.00  0.00    +0.245 A 
ATOM      7  C   UNL     1       9.538  -0.964  23.878  0.00  0.00    +0.166 A 
ATOM      8  N   UNL     1       9.260  -2.214  24.326  0.00  0.00    -0.251 N 
ATOM      9  H   UNL     1       9.390  -2.626  25.242  0.00  0.00    +0.191 HD
ATOM     10  N   UNL     1       8.735  -2.984  23.356  0.00  0.00    -0.066 NA
ATOM     11  N   UNL     1       8.671  -2.242  22.254  0.00  0.00    -0.109 NA
ATOM     12  C   UNL     1       9.162  -1.002  22.551  0.00  0.00    +0.209 A 
ATOM     13  N   UNL     1       9.278   0.045  21.715  0.00  0.00    -0.191 NA
ENDROOT
BRANCH   6  14
ATOM     14  O   UNL     1      10.450   0.389  25.684  0.00  0.00    -0.491 OA
ATOM     15  H   UNL     1      10.333   1.316  25.928  0.00  0.00    +0.294 HD
ENDBRANCH   6  14
TORSDOF 1
ENDMDL
MODEL 4
REMARK VINA RESULT:      -4.8      4.638      5.867
REMARK  Name = 
REMARK  1 active torsions:
REMARK  status: ('A' for Active; 'I' for Inactive)
REMARK    1  A    between atoms: C_9  and  O_10
REMARK                            x       y       z     vdW  Elec       q    Type
REMARK                         _______ _______ _______ _____ _____    ______ ____
ROOT
ATOM      1  N   UNL     1       9.717   1.953  21.445  0.00  0.00    -0.327 N 
ATOM      2  H   UNL     1       8.934   2.433  21.023  0.00  0.00    +0.145 HD
ATOM      3  H   UNL     1      10.529   1.778  20.870  0.00  0.00    +0.145 HD
ATOM      4  C   UNL     1       9.289   0.788  22.052  0.00  0.00    +0.218 A 
ATOM      5  N   UNL     1       7.992   0.736  22.392  0.00  0.00    -0.178 NA
ATOM      6  C   UNL     1       7.527  -0.362  23.003  0.00  0.00    +0.245 A 
ATOM      7  C   UNL     1       8.395  -1.394  23.239  0.00  0.00    +0.166 A 
ATOM      8  N   UNL     1       8.353  -2.625  23.809  0.00  0.00    -0.251 N 
ATOM      9  H   UNL     1       7.585  -3.117  24.249  0.00  0.00    +0.191 HD
ATOM     10  N   UNL     1       9.548  -3.240  23.754  0.00  0.00    -0.066 NA
ATOM     11  N   UNL     1      10.393  -2.408  23.150  0.00  0.00    -0.109 NA
ATOM     12  C   UNL     1       9.707  -1.270  22.831  0.00  0.00    +0.209 A 
ATOM     13  N   UNL     1      10.194  -0.178  22.215  0.00  0.00    -0.191 NA
ENDROOT
BRANCH   6  14
ATOM     14  O   UNL     1       6.199  -0.350  23.337  0.00  0.00    -0.491 OA
ATOM     15  H   UNL     1       5.858  -1.253  23.346  0.00  0.00    +0.294 HD
ENDBRANCH   6  14
TORSDOF 1
ENDMDL
MODEL 5
REMARK VINA RESULT:      -4.8      5.754      6.910
REMARK  Name = 
REMARK  1 active torsions:
REMARK  status: ('A' for Active; 'I' for Inactive)
REMARK    1  A    between atoms: C_9  and  O_10
REMARK                            x       y       z     vdW  Elec       q    Type
REMARK                         _______ _______ _______ _____ _____    ______ ____
ROOT
ATOM      1  N   UNL     1       8.306   2.081  25.706  0.00  0.00    -0.327 N 
ATOM      2  H   UNL     1       8.678   3.020  25.726  0.00  0.00    +0.145 HD
ATOM      3  H   UNL     1       8.383   1.524  26.545  0.00  0.00    +0.145 HD
ATOM      4  C   UNL     1       8.807   1.395  24.616  0.00  0.00    +0.218 A 
ATOM      5  N   UNL     1       9.252   2.142  23.595  0.00  0.00    -0.178 NA
ATOM      6  C   UNL     1       9.730   1.529  22.503  0.00  0.00    +0.245 A 
ATOM      7  C   UNL     1       9.759   0.160  22.486  0.00  0.00    +0.166 A 
ATOM      8  N   UNL     1      10.135  -0.821  21.626  0.00  0.00    -0.251 N 
ATOM      9  H   UNL     1      10.515  -0.760  20.689  0.00  0.00    +0.191 HD
ATOM     10  N   UNL     1       9.949  -2.043  22.153  0.00  0.00    -0.066 NA
ATOM     11  N   UNL     1       9.437  -1.875  23.370  0.00  0.00    -0.109 NA
ATOM     12  C   UNL     1       9.310  -0.532  23.591  0.00  0.00    +0.209 A 
ATOM     13  N   UNL     1       8.828   0.063  24.696  0.00  0.00    -0.191 NA
ENDROOT
BRANCH   6  14
ATOM     14  O   UNL     1      10.155   2.345  21.490  0.00  0.00    -0.491 OA
ATOM     15  H   UNL     1       9.772   3.225  21.600  0.00  0.00    +0.294 HD
ENDBRANCH   6  14
TORSDOF 1
ENDMDL
MODEL 6
REMARK VINA RESULT:      -4.7      1.793      3.099
REMARK  Name = 
REMARK  1 active torsions:
REMARK  status: ('A' for Active; 'I' for Inactive)
REMARK    1  A    between atoms: C_9  and  O_10
REMARK                            x       y       z     vdW  Elec       q    Type
REMARK                         _______ _______ _______ _____ _____    ______ ____
ROOT
ATOM      1  N   UNL     1       4.383  -4.746  24.978  0.00  0.00    -0.327 N 
ATOM      2  H   UNL     1       3.796  -5.371  25.512  0.00  0.00    +0.145 HD
ATOM      3  H   UNL     1       4.277  -4.740  23.973  0.00  0.00    +0.145 HD
ATOM      4  C   UNL     1       5.708  -4.924  25.328  0.00  0.00    +0.218 A 
ATOM      5  N   UNL     1       5.937  -5.465  26.534  0.00  0.00    -0.178 NA
ATOM      6  C   UNL     1       7.204  -5.642  26.934  0.00  0.00    +0.245 A 
ATOM      7  C   UNL     1       8.213  -5.277  26.083  0.00  0.00    +0.166 A 
ATOM      8  N   UNL     1       9.570  -5.274  26.085  0.00  0.00    -0.251 N 
ATOM      9  H   UNL     1      10.225  -5.564  26.801  0.00  0.00    +0.191 HD
ATOM     10  N   UNL     1      10.068  -4.796  24.931  0.00  0.00    -0.066 NA
ATOM     11  N   UNL     1       9.035  -4.472  24.158  0.00  0.00    -0.109 NA
ATOM     12  C   UNL     1       7.889  -4.755  24.847  0.00  0.00    +0.209 A 
ATOM     13  N   UNL     1       6.625  -4.571  24.427  0.00  0.00    -0.191 NA
ENDROOT
BRANCH   6  14
ATOM     14  O   UNL     1       7.374  -6.185  28.179  0.00  0.00    -0.491 OA
ATOM     15  H   UNL     1       8.197  -5.861  28.565  0.00  0.00    +0.294 HD
ENDBRANCH   6  14
TORSDOF 1
ENDMDL
MODEL 7
REMARK VINA RESULT:      -4.6      3.249      3.835
REMARK  Name = 
REMARK  1 active torsions:
REMARK  status: ('A' for Active; 'I' for Inactive)
REMARK    1  A    between atoms: C_9  and  O_10
REMARK                            x       y       z     vdW  Elec       q    Type
REMARK                         _______ _______ _______ _____ _____    ______ ____
ROOT
ATOM      1  N   UNL     1       6.377  -0.671  23.103  0.00  0.00    -0.327 N 
ATOM      2  H   UNL     1       6.764  -0.311  23.964  0.00  0.00    +0.145 HD
ATOM      3  H   UNL     1       5.393  -0.520  22.928  0.00  0.00    +0.145 HD
ATOM      4  C   UNL     1       6.700  -2.006  22.958  0.00  0.00    +0.218 A 
ATOM      5  N   UNL     1       7.773  -2.436  23.638  0.00  0.00    -0.178 NA
ATOM      6  C   UNL     1       8.144  -3.719  23.518  0.00  0.00    +0.245 A 
ATOM      7  C   UNL     1       7.399  -4.541  22.717  0.00  0.00    +0.166 A 
ATOM      8  N   UNL     1       7.419  -5.840  22.323  0.00  0.00    -0.251 N 
ATOM      9  H   UNL     1       8.069  -6.582  22.549  0.00  0.00    +0.191 HD
ATOM     10  N   UNL     1       6.393  -6.126  21.503  0.00  0.00    -0.066 NA
ATOM     11  N   UNL     1       5.690  -5.009  21.343  0.00  0.00    -0.109 NA
ATOM     12  C   UNL     1       6.292  -4.024  22.075  0.00  0.00    +0.209 A 
ATOM     13  N   UNL     1       5.901  -2.742  22.184  0.00  0.00    -0.191 NA
ENDROOT
BRANCH   6  14
ATOM     14  O   UNL     1       9.255  -4.093  24.226  0.00  0.00    -0.491 OA
ATOM     15  H   UNL     1       9.840  -4.613  23.660  0.00  0.00    +0.294 HD
ENDBRANCH   6  14
TORSDOF 1
ENDMDL
MODEL 8
REMARK VINA RESULT:      -4.5      2.694      4.630
REMARK  Name = 
REMARK  1 active torsions:
REMARK  status: ('A' for Active; 'I' for Inactive)
REMARK    1  A    between atoms: C_9  and  O_10
REMARK                            x       y       z     vdW  Elec       q    Type
REMARK                         _______ _______ _______ _____ _____    ______ ____
ROOT
ATOM      1  N   UNL     1       6.667  -4.892  26.672  0.00  0.00    -0.327 N 
ATOM      2  H   UNL     1       5.897  -5.040  27.310  0.00  0.00    +0.145 HD
ATOM      3  H   UNL     1       7.086  -3.973  26.644  0.00  0.00    +0.145 HD
ATOM      4  C   UNL     1       6.317  -5.308  25.402  0.00  0.00    +0.218 A 
ATOM      5  N   UNL     1       5.324  -6.206  25.321  0.00  0.00    -0.178 NA
ATOM      6  C   UNL     1       4.957  -6.661  24.115  0.00  0.00    +0.245 A 
ATOM      7  C   UNL     1       5.605  -6.174  23.011  0.00  0.00    +0.166 A 
ATOM      8  N   UNL     1       5.563  -6.356  21.667  0.00  0.00    -0.251 N 
ATOM      9  H   UNL     1       4.984  -6.969  21.107  0.00  0.00    +0.191 HD
ATOM     10  N   UNL     1       6.454  -5.574  21.032  0.00  0.00    -0.066 NA
ATOM     11  N   UNL     1       7.099  -4.874  21.960  0.00  0.00    -0.109 NA
ATOM     12  C   UNL     1       6.597  -5.230  23.181  0.00  0.00    +0.209 A 
ATOM     13  N   UNL     1       6.978  -4.759  24.381  0.00  0.00    -0.191 NA
ENDROOT
BRANCH   6  14
ATOM     14  O   UNL     1       3.948  -7.585  24.100  0.00  0.00    -0.491 OA
ATOM     15  H   UNL     1       4.316  -8.470  24.218  0.00  0.00    +0.294 HD
ENDBRANCH   6  14
TORSDOF 1
ENDMDL
MODEL 9
REMARK VINA RESULT:      -4.4      6.362      7.518
REMARK  Name = 
REMARK  1 active torsions:
REMARK  status: ('A' for Active; 'I' for Inactive)
REMARK    1  A    between atoms: C_9  and  O_10
REMARK                            x       y       z     vdW  Elec       q    Type
REMARK                         _______ _______ _______ _____ _____    ______ ____
ROOT
ATOM      1  N   UNL     1       9.791  -1.086  21.191  0.00  0.00    -0.327 N 
ATOM      2  H   UNL     1      10.599  -1.642  21.434  0.00  0.00    +0.145 HD
ATOM      3  H   UNL     1       9.711  -0.761  20.237  0.00  0.00    +0.145 HD
ATOM      4  C   UNL     1       9.654  -0.037  22.078  0.00  0.00    +0.218 A 
ATOM      5  N   UNL     1      10.236  -0.190  23.277  0.00  0.00    -0.178 NA
ATOM      6  C   UNL     1      10.117   0.789  24.185  0.00  0.00    +0.245 A 
ATOM      7  C   UNL     1       9.417   1.914  23.842  0.00  0.00    +0.166 A 
ATOM      8  N   UNL     1       9.060   3.087  24.426  0.00  0.00    -0.251 N 
ATOM      9  H   UNL     1       9.242   3.435  25.359  0.00  0.00    +0.191 HD
ATOM     10  N   UNL     1       8.355   3.865  23.588  0.00  0.00    -0.066 NA
ATOM     11  N   UNL     1       8.234   3.203  22.440  0.00  0.00    -0.109 NA
ATOM     12  C   UNL     1       8.874   2.004  22.576  0.00  0.00    +0.209 A 
ATOM     13  N   UNL     1       8.984   1.035  21.651  0.00  0.00    -0.191 NA
ENDROOT
BRANCH   6  14
ATOM     14  O   UNL     1      10.721   0.567  25.394  0.00  0.00    -0.491 OA
ATOM     15  H   UNL     1      11.675   0.494  25.271  0.00  0.00    +0.294 HD
ENDBRANCH   6  14
TORSDOF 1
ENDMDL
