MODEL 1
REMARK VINA RESULT:      -7.5      0.000      0.000
REMARK  Name = 
REMARK  7 active torsions:
REMARK  status: ('A' for Active; 'I' for Inactive)
REMARK    1  A    between atoms: C_1  and  C_2
REMARK    2  A    between atoms: C_2  and  C_4
REMARK    3  A    between atoms: C_7  and  N_8
REMARK    4  A    between atoms: C_9  and  C_11
REMARK    5  A    between atoms: C_12  and  C_16
REMARK    6  A    between atoms: C_20  and  O_21
REMARK    7  A    between atoms: C_23  and  O_24
REMARK                            x       y       z     vdW  Elec       q    Type
REMARK                         _______ _______ _______ _____ _____    ______ ____
ROOT
ATOM      1  C   UNL     1       6.485  -4.287  22.050  0.00  0.00    +0.082 A 
ATOM      2  C   UNL     1       6.333  -4.898  20.776  0.00  0.00    +0.147 A 
ATOM      3  N   UNL     1       6.108  -6.204  20.850  0.00  0.00    -0.181 NA
ATOM      4  N   UNL     1       6.158  -6.445  22.166  0.00  0.00    -0.276 N 
ATOM      5  H   UNL     1       6.068  -7.403  22.492  0.00  0.00    +0.189 HD
ATOM      6  C   UNL     1       6.373  -5.342  22.968  0.00  0.00    +0.081 A 
ENDROOT
BRANCH   6   7
ATOM      7  C   UNL     1       6.523  -5.519  24.440  0.00  0.00    +0.044 A 
ATOM      8  C   UNL     1       7.712  -5.139  25.117  0.00  0.00    +0.130 A 
ATOM      9  C   UNL     1       7.802  -5.119  26.514  0.00  0.00    +0.093 A 
ATOM     10  C   UNL     1       6.698  -5.479  27.268  0.00  0.00    +0.139 A 
ATOM     11  C   UNL     1       5.547  -5.945  26.642  0.00  0.00    +0.083 A 
ATOM     12 CL   UNL     1       4.182  -6.421  27.582  0.00  0.00    -0.080 Cl
ATOM     13  C   UNL     1       5.478  -5.998  25.245  0.00  0.00    +0.037 A 
BRANCH   8  14
ATOM     14  O   UNL     1       8.821  -4.753  24.400  0.00  0.00    -0.506 OA
ATOM     15  H   UNL     1       8.564  -4.646  23.467  0.00  0.00    +0.292 HD
ENDBRANCH   8  14
BRANCH  10  16
ATOM     16  O   UNL     1       6.787  -5.340  28.625  0.00  0.00    -0.505 OA
ATOM     17  H   UNL     1       7.723  -5.157  28.833  0.00  0.00    +0.292 HD
ENDBRANCH  10  16
ENDBRANCH   6   7
BRANCH   1  20
ATOM     18  N   UNL     1       8.171  -2.594  22.060  0.00  0.00    -0.281 N 
ATOM     19  H   UNL     1       8.754  -3.318  21.664  0.00  0.00    +0.155 HD
ATOM     20  C   UNL     1       6.826  -2.890  22.256  0.00  0.00    +0.252 C 
ATOM     21  O   UNL     1       5.979  -2.081  22.617  0.00  0.00    -0.270 OA
BRANCH  18  25
ATOM     22  C   UNL     1       9.870   1.092  23.242  0.00  0.00    +0.017 A 
ATOM     23  C   UNL     1       9.571   0.104  24.188  0.00  0.00    +0.013 A 
ATOM     24  C   UNL     1       9.043  -1.131  23.779  0.00  0.00    +0.024 A 
ATOM     25  C   UNL     1       8.818  -1.390  22.421  0.00  0.00    +0.034 A 
ATOM     26  C   UNL     1       9.188  -0.422  21.487  0.00  0.00    +0.024 A 
ATOM     27  C   UNL     1       9.712   0.804  21.888  0.00  0.00    +0.013 A 
BRANCH  22  29
ATOM     28  C   UNL     1       9.246   3.440  24.091  0.00  0.00    +0.091 C 
ATOM     29  C   UNL     1      10.307   2.446  23.684  0.00  0.00    +0.160 C 
ATOM     30  O   UNL     1      11.502   2.721  23.725  0.00  0.00    -0.292 OA
ENDBRANCH  22  29
ENDBRANCH  18  25
ENDBRANCH   1  20
TORSDOF 6
ENDMDL
MODEL 2
REMARK VINA RESULT:      -6.9      4.144      8.850
REMARK  Name = 
REMARK  7 active torsions:
REMARK  status: ('A' for Active; 'I' for Inactive)
REMARK    1  A    between atoms: C_1  and  C_2
REMARK    2  A    between atoms: C_2  and  C_4
REMARK    3  A    between atoms: C_7  and  N_8
REMARK    4  A    between atoms: C_9  and  C_11
REMARK    5  A    between atoms: C_12  and  C_16
REMARK    6  A    between atoms: C_20  and  O_21
REMARK    7  A    between atoms: C_23  and  O_24
REMARK                            x       y       z     vdW  Elec       q    Type
REMARK                         _______ _______ _______ _____ _____    ______ ____
ROOT
ATOM      1  C   UNL     1      10.607   3.648  23.530  0.00  0.00    +0.082 A 
ATOM      2  C   UNL     1      11.854   4.297  23.324  0.00  0.00    +0.147 A 
ATOM      3  N   UNL     1      11.757   5.620  23.313  0.00  0.00    -0.181 NA
ATOM      4  N   UNL     1      10.443   5.826  23.466  0.00  0.00    -0.276 N 
ATOM      5  H   UNL     1      10.091   6.779  23.437  0.00  0.00    +0.189 HD
ATOM      6  C   UNL     1       9.673   4.691  23.614  0.00  0.00    +0.081 A 
ENDROOT
BRANCH   6   7
ATOM      7  C   UNL     1       8.190   4.813  23.713  0.00  0.00    +0.044 A 
ATOM      8  C   UNL     1       7.439   5.539  22.751  0.00  0.00    +0.130 A 
ATOM      9  C   UNL     1       6.040   5.509  22.717  0.00  0.00    +0.093 A 
ATOM     10  C   UNL     1       5.358   4.744  23.648  0.00  0.00    +0.139 A 
ATOM     11  C   UNL     1       6.054   4.094  24.661  0.00  0.00    +0.083 A 
ATOM     12 CL   UNL     1       5.203   3.166  25.840  0.00  0.00    -0.080 Cl
ATOM     13  C   UNL     1       7.451   4.161  24.711  0.00  0.00    +0.037 A 
BRANCH   8  14
ATOM     14  O   UNL     1       8.085   6.291  21.795  0.00  0.00    -0.506 OA
ATOM     15  H   UNL     1       7.773   7.211  21.863  0.00  0.00    +0.292 HD
ENDBRANCH   8  14
BRANCH  10  16
ATOM     16  O   UNL     1       4.001   4.648  23.516  0.00  0.00    -0.505 OA
ATOM     17  H   UNL     1       3.681   4.085  24.246  0.00  0.00    +0.292 HD
ENDBRANCH  10  16
ENDBRANCH   6   7
BRANCH   1  20
ATOM     18  N   UNL     1       9.545   1.769  22.505  0.00  0.00    -0.281 N 
ATOM     19  H   UNL     1       9.242   2.446  21.818  0.00  0.00    +0.155 HD
ATOM     20  C   UNL     1      10.414   2.209  23.499  0.00  0.00    +0.252 C 
ATOM     21  O   UNL     1      10.953   1.482  24.326  0.00  0.00    -0.270 OA
BRANCH  18  25
ATOM     22  C   UNL     1       7.933  -2.138  22.454  0.00  0.00    +0.017 A 
ATOM     23  C   UNL     1       7.204  -1.069  22.987  0.00  0.00    +0.013 A 
ATOM     24  C   UNL     1       7.734   0.231  22.963  0.00  0.00    +0.024 A 
ATOM     25  C   UNL     1       8.993   0.472  22.399  0.00  0.00    +0.034 A 
ATOM     26  C   UNL     1       9.675  -0.593  21.809  0.00  0.00    +0.024 A 
ATOM     27  C   UNL     1       9.153  -1.884  21.829  0.00  0.00    +0.013 A 
BRANCH  22  29
ATOM     28  C   UNL     1       7.984  -4.382  23.715  0.00  0.00    +0.091 C 
ATOM     29  C   UNL     1       7.431  -3.534  22.595  0.00  0.00    +0.160 C 
ATOM     30  O   UNL     1       6.576  -3.959  21.822  0.00  0.00    -0.292 OA
ENDBRANCH  22  29
ENDBRANCH  18  25
ENDBRANCH   1  20
TORSDOF 6
ENDMDL
MODEL 3
REMARK VINA RESULT:      -6.9      1.636      2.117
REMARK  Name = 
REMARK  7 active torsions:
REMARK  status: ('A' for Active; 'I' for Inactive)
REMARK    1  A    between atoms: C_1  and  C_2
REMARK    2  A    between atoms: C_2  and  C_4
REMARK    3  A    between atoms: C_7  and  N_8
REMARK    4  A    between atoms: C_9  and  C_11
REMARK    5  A    between atoms: C_12  and  C_16
REMARK    6  A    between atoms: C_20  and  O_21
REMARK    7  A    between atoms: C_23  and  O_24
REMARK                            x       y       z     vdW  Elec       q    Type
REMARK                         _______ _______ _______ _____ _____    ______ ____
ROOT
ATOM      1  C   UNL     1       6.751  -4.654  22.375  0.00  0.00    +0.082 A 
ATOM      2  C   UNL     1       6.749  -5.009  20.999  0.00  0.00    +0.147 A 
ATOM      3  N   UNL     1       5.904  -5.993  20.717  0.00  0.00    -0.181 NA
ATOM      4  N   UNL     1       5.395  -6.305  21.914  0.00  0.00    -0.276 N 
ATOM      5  H   UNL     1       4.746  -7.084  21.982  0.00  0.00    +0.189 HD
ATOM      6  C   UNL     1       5.843  -5.540  22.973  0.00  0.00    +0.081 A 
ENDROOT
BRANCH   6   7
ATOM      7  C   UNL     1       5.393  -5.862  24.357  0.00  0.00    +0.044 A 
ATOM      8  C   UNL     1       4.224  -6.633  24.598  0.00  0.00    +0.130 A 
ATOM      9  C   UNL     1       3.890  -7.104  25.872  0.00  0.00    +0.093 A 
ATOM     10  C   UNL     1       4.724  -6.816  26.940  0.00  0.00    +0.139 A 
ATOM     11  C   UNL     1       5.826  -5.988  26.760  0.00  0.00    +0.083 A 
ATOM     12 CL   UNL     1       6.849  -5.604  28.095  0.00  0.00    -0.080 Cl
ATOM     13  C   UNL     1       6.132  -5.489  25.489  0.00  0.00    +0.037 A 
BRANCH   8  14
ATOM     14  O   UNL     1       3.386  -6.958  23.556  0.00  0.00    -0.506 OA
ATOM     15  H   UNL     1       2.613  -7.429  23.917  0.00  0.00    +0.292 HD
ENDBRANCH   8  14
BRANCH  10  16
ATOM     16  O   UNL     1       4.427  -7.386  28.147  0.00  0.00    -0.505 OA
ATOM     17  H   UNL     1       3.894  -8.183  27.962  0.00  0.00    +0.292 HD
ENDBRANCH  10  16
ENDBRANCH   6   7
BRANCH   1  20
ATOM     18  N   UNL     1       7.289  -2.351  22.715  0.00  0.00    -0.281 N 
ATOM     19  H   UNL     1       6.394  -2.184  22.275  0.00  0.00    +0.155 HD
ATOM     20  C   UNL     1       7.641  -3.673  22.969  0.00  0.00    +0.252 C 
ATOM     21  O   UNL     1       8.635  -4.021  23.596  0.00  0.00    -0.270 OA
BRANCH  18  25
ATOM     22  C   UNL     1       9.473   1.196  23.436  0.00  0.00    +0.017 A 
ATOM     23  C   UNL     1       8.697   0.614  24.445  0.00  0.00    +0.013 A 
ATOM     24  C   UNL     1       8.006  -0.585  24.206  0.00  0.00    +0.024 A 
ATOM     25  C   UNL     1       8.094  -1.215  22.958  0.00  0.00    +0.034 A 
ATOM     26  C   UNL     1       8.928  -0.659  21.986  0.00  0.00    +0.024 A 
ATOM     27  C   UNL     1       9.615   0.529  22.220  0.00  0.00    +0.013 A 
BRANCH  22  29
ATOM     28  C   UNL     1       9.191   3.724  23.827  0.00  0.00    +0.091 C 
ATOM     29  C   UNL     1      10.099   2.531  23.646  0.00  0.00    +0.160 C 
ATOM     30  O   UNL     1      11.321   2.636  23.685  0.00  0.00    -0.292 OA
ENDBRANCH  22  29
ENDBRANCH  18  25
ENDBRANCH   1  20
TORSDOF 6
ENDMDL
MODEL 4
REMARK VINA RESULT:      -6.9      2.776      3.743
REMARK  Name = 
REMARK  7 active torsions:
REMARK  status: ('A' for Active; 'I' for Inactive)
REMARK    1  A    between atoms: C_1  and  C_2
REMARK    2  A    between atoms: C_2  and  C_4
REMARK    3  A    between atoms: C_7  and  N_8
REMARK    4  A    between atoms: C_9  and  C_11
REMARK    5  A    between atoms: C_12  and  C_16
REMARK    6  A    between atoms: C_20  and  O_21
REMARK    7  A    between atoms: C_23  and  O_24
REMARK                            x       y       z     vdW  Elec       q    Type
REMARK                         _______ _______ _______ _____ _____    ______ ____
ROOT
ATOM      1  C   UNL     1       8.095  -4.105  25.513  0.00  0.00    +0.082 A 
ATOM      2  C   UNL     1       8.804  -4.552  26.660  0.00  0.00    +0.147 A 
ATOM      3  N   UNL     1       8.177  -5.522  27.314  0.00  0.00    -0.181 NA
ATOM      4  N   UNL     1       7.044  -5.672  26.616  0.00  0.00    -0.276 N 
ATOM      5  H   UNL     1       6.349  -6.333  26.949  0.00  0.00    +0.189 HD
ATOM      6  C   UNL     1       6.915  -4.862  25.506  0.00  0.00    +0.081 A 
ENDROOT
BRANCH   6   7
ATOM      7  C   UNL     1       5.655  -4.900  24.710  0.00  0.00    +0.044 A 
ATOM      8  C   UNL     1       5.622  -5.438  23.396  0.00  0.00    +0.130 A 
ATOM      9  C   UNL     1       4.423  -5.657  22.708  0.00  0.00    +0.093 A 
ATOM     10  C   UNL     1       3.223  -5.342  23.324  0.00  0.00    +0.139 A 
ATOM     11  C   UNL     1       3.219  -4.728  24.571  0.00  0.00    +0.083 A 
ATOM     12 CL   UNL     1       1.726  -4.309  25.327  0.00  0.00    -0.080 Cl
ATOM     13  C   UNL     1       4.425  -4.478  25.237  0.00  0.00    +0.037 A 
BRANCH   8  14
ATOM     14  O   UNL     1       6.794  -5.784  22.763  0.00  0.00    -0.506 OA
ATOM     15  H   UNL     1       6.881  -6.754  22.783  0.00  0.00    +0.292 HD
ENDBRANCH   8  14
BRANCH  10  16
ATOM     16  O   UNL     1       2.070  -5.673  22.668  0.00  0.00    -0.505 OA
ATOM     17  H   UNL     1       1.338  -5.227  23.136  0.00  0.00    +0.292 HD
ENDBRANCH  10  16
ENDBRANCH   6   7
BRANCH   1  20
ATOM     18  N   UNL     1       8.908  -1.863  25.370  0.00  0.00    -0.281 N 
ATOM     19  H   UNL     1       9.010  -1.946  26.373  0.00  0.00    +0.155 HD
ATOM     20  C   UNL     1       8.510  -2.997  24.670  0.00  0.00    +0.252 C 
ATOM     21  O   UNL     1       8.456  -3.080  23.448  0.00  0.00    -0.270 OA
BRANCH  18  25
ATOM     22  C   UNL     1       9.635   2.057  23.965  0.00  0.00    +0.017 A 
ATOM     23  C   UNL     1      10.696   1.187  24.243  0.00  0.00    +0.013 A 
ATOM     24  C   UNL     1      10.442  -0.125  24.673  0.00  0.00    +0.024 A 
ATOM     25  C   UNL     1       9.124  -0.580  24.819  0.00  0.00    +0.034 A 
ATOM     26  C   UNL     1       8.080   0.278  24.469  0.00  0.00    +0.024 A 
ATOM     27  C   UNL     1       8.328   1.580  24.042  0.00  0.00    +0.013 A 
BRANCH  22  29
ATOM     28  C   UNL     1      11.335   3.911  23.419  0.00  0.00    +0.091 C 
ATOM     29  C   UNL     1       9.903   3.485  23.636  0.00  0.00    +0.160 C 
ATOM     30  O   UNL     1       8.969   4.275  23.531  0.00  0.00    -0.292 OA
ENDBRANCH  22  29
ENDBRANCH  18  25
ENDBRANCH   1  20
TORSDOF 6
ENDMDL
MODEL 5
REMARK VINA RESULT:      -6.7      4.496      9.151
REMARK  Name = 
REMARK  7 active torsions:
REMARK  status: ('A' for Active; 'I' for Inactive)
REMARK    1  A    between atoms: C_1  and  C_2
REMARK    2  A    between atoms: C_2  and  C_4
REMARK    3  A    between atoms: C_7  and  N_8
REMARK    4  A    between atoms: C_9  and  C_11
REMARK    5  A    between atoms: C_12  and  C_16
REMARK    6  A    between atoms: C_20  and  O_21
REMARK    7  A    between atoms: C_23  and  O_24
REMARK                            x       y       z     vdW  Elec       q    Type
REMARK                         _______ _______ _______ _____ _____    ______ ____
ROOT
ATOM      1  C   UNL     1       9.794   3.343  23.820  0.00  0.00    +0.082 A 
ATOM      2  C   UNL     1      11.168   3.551  23.522  0.00  0.00    +0.147 A 
ATOM      3  N   UNL     1      11.474   4.831  23.346  0.00  0.00    -0.181 NA
ATOM      4  N   UNL     1      10.293   5.445  23.485  0.00  0.00    -0.276 N 
ATOM      5  H   UNL     1      10.244   6.449  23.341  0.00  0.00    +0.189 HD
ATOM      6  C   UNL     1       9.223   4.624  23.782  0.00  0.00    +0.081 A 
ENDROOT
BRANCH   6   7
ATOM      7  C   UNL     1       7.853   5.205  23.879  0.00  0.00    +0.044 A 
ATOM      8  C   UNL     1       7.228   5.822  22.764  0.00  0.00    +0.130 A 
ATOM      9  C   UNL     1       5.880   6.201  22.779  0.00  0.00    +0.093 A 
ATOM     10  C   UNL     1       5.125   5.966  23.915  0.00  0.00    +0.139 A 
ATOM     11  C   UNL     1       5.725   5.449  25.057  0.00  0.00    +0.083 A 
ATOM     12 CL   UNL     1       4.791   5.183  26.483  0.00  0.00    -0.080 Cl
ATOM     13  C   UNL     1       7.082   5.108  25.047  0.00  0.00    +0.037 A 
BRANCH   8  14
ATOM     14  O   UNL     1       7.942   6.049  21.610  0.00  0.00    -0.506 OA
ATOM     15  H   UNL     1       7.439   5.687  20.859  0.00  0.00    +0.292 HD
ENDBRANCH   8  14
BRANCH  10  16
ATOM     16  O   UNL     1       3.787   6.245  23.854  0.00  0.00    -0.505 OA
ATOM     17  H   UNL     1       3.337   5.426  23.574  0.00  0.00    +0.292 HD
ENDBRANCH  10  16
ENDBRANCH   6   7
BRANCH   1  20
ATOM     18  N   UNL     1       9.853   1.177  24.826  0.00  0.00    -0.281 N 
ATOM     19  H   UNL     1      10.616   1.562  25.366  0.00  0.00    +0.155 HD
ATOM     20  C   UNL     1       9.174   2.039  23.970  0.00  0.00    +0.252 C 
ATOM     21  O   UNL     1       8.162   1.745  23.343  0.00  0.00    -0.270 OA
BRANCH  18  25
ATOM     22  C   UNL     1       8.972  -2.951  25.044  0.00  0.00    +0.017 A 
ATOM     23  C   UNL     1       9.754  -2.439  24.002  0.00  0.00    +0.013 A 
ATOM     24  C   UNL     1      10.072  -1.073  23.961  0.00  0.00    +0.024 A 
ATOM     25  C   UNL     1       9.617  -0.210  24.967  0.00  0.00    +0.034 A 
ATOM     26  C   UNL     1       8.899  -0.749  26.035  0.00  0.00    +0.024 A 
ATOM     27  C   UNL     1       8.582  -2.104  26.080  0.00  0.00    +0.013 A 
BRANCH  22  29
ATOM     28  C   UNL     1       7.829  -4.923  26.240  0.00  0.00    +0.091 C 
ATOM     29  C   UNL     1       8.525  -4.373  25.019  0.00  0.00    +0.160 C 
ATOM     30  O   UNL     1       8.712  -5.056  24.017  0.00  0.00    -0.292 OA
ENDBRANCH  22  29
ENDBRANCH  18  25
ENDBRANCH   1  20
TORSDOF 6
ENDMDL
MODEL 6
REMARK VINA RESULT:      -6.6      4.166      8.805
REMARK  Name = 
REMARK  7 active torsions:
REMARK  status: ('A' for Active; 'I' for Inactive)
REMARK    1  A    between atoms: C_1  and  C_2
REMARK    2  A    between atoms: C_2  and  C_4
REMARK    3  A    between atoms: C_7  and  N_8
REMARK    4  A    between atoms: C_9  and  C_11
REMARK    5  A    between atoms: C_12  and  C_16
REMARK    6  A    between atoms: C_20  and  O_21
REMARK    7  A    between atoms: C_23  and  O_24
REMARK                            x       y       z     vdW  Elec       q    Type
REMARK                         _______ _______ _______ _____ _____    ______ ____
ROOT
ATOM      1  C   UNL     1      10.141   3.239  23.295  0.00  0.00    +0.082 A 
ATOM      2  C   UNL     1      11.480   3.712  23.250  0.00  0.00    +0.147 A 
ATOM      3  N   UNL     1      11.584   5.008  23.515  0.00  0.00    -0.181 NA
ATOM      4  N   UNL     1      10.310   5.383  23.687  0.00  0.00    -0.276 N 
ATOM      5  H   UNL     1      10.107   6.364  23.852  0.00  0.00    +0.189 HD
ATOM      6  C   UNL     1       9.371   4.376  23.580  0.00  0.00    +0.081 A 
ENDROOT
BRANCH   6   7
ATOM      7  C   UNL     1       7.921   4.708  23.678  0.00  0.00    +0.044 A 
ATOM      8  C   UNL     1       7.274   5.508  22.698  0.00  0.00    +0.130 A 
ATOM      9  C   UNL     1       5.885   5.673  22.667  0.00  0.00    +0.093 A 
ATOM     10  C   UNL     1       5.107   5.035  23.619  0.00  0.00    +0.139 A 
ATOM     11  C   UNL     1       5.710   4.320  24.648  0.00  0.00    +0.083 A 
ATOM     12 CL   UNL     1       4.743   3.551  25.851  0.00  0.00    -0.080 Cl
ATOM     13  C   UNL     1       7.103   4.192  24.694  0.00  0.00    +0.037 A 
BRANCH   8  14
ATOM     14  O   UNL     1       8.014   6.136  21.722  0.00  0.00    -0.506 OA
ATOM     15  H   UNL     1       8.936   6.201  22.027  0.00  0.00    +0.292 HD
ENDBRANCH   8  14
BRANCH  10  16
ATOM     16  O   UNL     1       3.749   5.127  23.491  0.00  0.00    -0.505 OA
ATOM     17  H   UNL     1       3.502   4.625  22.691  0.00  0.00    +0.292 HD
ENDBRANCH  10  16
ENDBRANCH   6   7
BRANCH   1  20
ATOM     18  N   UNL     1       9.104   1.203  23.994  0.00  0.00    -0.281 N 
ATOM     19  H   UNL     1       8.858   1.733  24.820  0.00  0.00    +0.155 HD
ATOM     20  C   UNL     1       9.735   1.886  22.959  0.00  0.00    +0.252 C 
ATOM     21  O   UNL     1       9.988   1.406  21.860  0.00  0.00    -0.270 OA
BRANCH  18  25
ATOM     22  C   UNL     1       8.397  -2.962  23.856  0.00  0.00    +0.017 A 
ATOM     23  C   UNL     1       9.679  -2.460  24.106  0.00  0.00    +0.013 A 
ATOM     24  C   UNL     1       9.895  -1.076  24.189  0.00  0.00    +0.024 A 
ATOM     25  C   UNL     1       8.827  -0.182  24.029  0.00  0.00    +0.034 A 
ATOM     26  C   UNL     1       7.544  -0.701  23.850  0.00  0.00    +0.024 A 
ATOM     27  C   UNL     1       7.326  -2.074  23.768  0.00  0.00    +0.013 A 
BRANCH  22  29
ATOM     28  C   UNL     1       7.116  -4.854  22.671  0.00  0.00    +0.091 C 
ATOM     29  C   UNL     1       8.191  -4.421  23.639  0.00  0.00    +0.160 C 
ATOM     30  O   UNL     1       8.897  -5.234  24.228  0.00  0.00    -0.292 OA
ENDBRANCH  22  29
ENDBRANCH  18  25
ENDBRANCH   1  20
TORSDOF 6
ENDMDL
MODEL 7
REMARK VINA RESULT:      -6.6      4.592      9.455
REMARK  Name = 
REMARK  7 active torsions:
REMARK  status: ('A' for Active; 'I' for Inactive)
REMARK    1  A    between atoms: C_1  and  C_2
REMARK    2  A    between atoms: C_2  and  C_4
REMARK    3  A    between atoms: C_7  and  N_8
REMARK    4  A    between atoms: C_9  and  C_11
REMARK    5  A    between atoms: C_12  and  C_16
REMARK    6  A    between atoms: C_20  and  O_21
REMARK    7  A    between atoms: C_23  and  O_24
REMARK                            x       y       z     vdW  Elec       q    Type
REMARK                         _______ _______ _______ _____ _____    ______ ____
ROOT
ATOM      1  C   UNL     1       7.586   3.484  23.531  0.00  0.00    +0.082 A 
ATOM      2  C   UNL     1       6.237   3.600  23.100  0.00  0.00    +0.147 A 
ATOM      3  N   UNL     1       5.898   4.844  22.782  0.00  0.00    -0.181 NA
ATOM      4  N   UNL     1       7.011   5.537  23.050  0.00  0.00    -0.276 N 
ATOM      5  H   UNL     1       6.996   6.547  22.939  0.00  0.00    +0.189 HD
ATOM      6  C   UNL     1       8.084   4.795  23.499  0.00  0.00    +0.081 A 
ENDROOT
BRANCH   6   7
ATOM      7  C   UNL     1       9.343   5.487  23.898  0.00  0.00    +0.044 A 
ATOM      8  C   UNL     1       9.366   6.438  24.952  0.00  0.00    +0.130 A 
ATOM      9  C   UNL     1      10.560   6.955  25.466  0.00  0.00    +0.093 A 
ATOM     10  C   UNL     1      11.766   6.526  24.937  0.00  0.00    +0.139 A 
ATOM     11  C   UNL     1      11.781   5.666  23.845  0.00  0.00    +0.083 A 
ATOM     12 CL   UNL     1      13.282   5.154  23.165  0.00  0.00    -0.080 Cl
ATOM     13  C   UNL     1      10.581   5.184  23.311  0.00  0.00    +0.037 A 
BRANCH   8  14
ATOM     14  O   UNL     1       8.188   6.869  25.518  0.00  0.00    -0.506 OA
ATOM     15  H   UNL     1       8.321   6.957  26.479  0.00  0.00    +0.292 HD
ENDBRANCH   8  14
BRANCH  10  16
ATOM     16  O   UNL     1      12.913   6.965  25.538  0.00  0.00    -0.505 OA
ATOM     17  H   UNL     1      12.762   6.929  26.502  0.00  0.00    +0.292 HD
ENDBRANCH  10  16
ENDBRANCH   6   7
BRANCH   1  20
ATOM     18  N   UNL     1       8.085   1.179  23.148  0.00  0.00    -0.281 N 
ATOM     19  H   UNL     1       7.738   1.366  22.217  0.00  0.00    +0.155 HD
ATOM     20  C   UNL     1       8.189   2.257  24.021  0.00  0.00    +0.252 C 
ATOM     21  O   UNL     1       8.697   2.206  25.136  0.00  0.00    -0.270 OA
BRANCH  18  25
ATOM     22  C   UNL     1       8.882  -2.797  24.341  0.00  0.00    +0.017 A 
ATOM     23  C   UNL     1       7.584  -2.278  24.398  0.00  0.00    +0.013 A 
ATOM     24  C   UNL     1       7.324  -0.969  23.963  0.00  0.00    +0.024 A 
ATOM     25  C   UNL     1       8.361  -0.172  23.459  0.00  0.00    +0.034 A 
ATOM     26  C   UNL     1       9.635  -0.729  23.344  0.00  0.00    +0.024 A 
ATOM     27  C   UNL     1       9.896  -2.027  23.774  0.00  0.00    +0.013 A 
BRANCH  22  29
ATOM     28  C   UNL     1       8.118  -4.804  25.759  0.00  0.00    +0.091 C 
ATOM     29  C   UNL     1       9.182  -4.136  24.922  0.00  0.00    +0.160 C 
ATOM     30  O   UNL     1      10.263  -4.672  24.699  0.00  0.00    -0.292 OA
ENDBRANCH  22  29
ENDBRANCH  18  25
ENDBRANCH   1  20
TORSDOF 6
ENDMDL
MODEL 8
REMARK VINA RESULT:      -6.5      3.452      8.028
REMARK  Name = 
REMARK  7 active torsions:
REMARK  status: ('A' for Active; 'I' for Inactive)
REMARK    1  A    between atoms: C_1  and  C_2
REMARK    2  A    between atoms: C_2  and  C_4
REMARK    3  A    between atoms: C_7  and  N_8
REMARK    4  A    between atoms: C_9  and  C_11
REMARK    5  A    between atoms: C_12  and  C_16
REMARK    6  A    between atoms: C_20  and  O_21
REMARK    7  A    between atoms: C_23  and  O_24
REMARK                            x       y       z     vdW  Elec       q    Type
REMARK                         _______ _______ _______ _____ _____    ______ ____
ROOT
ATOM      1  C   UNL     1       9.638   0.343  24.935  0.00  0.00    +0.082 A 
ATOM      2  C   UNL     1      11.050   0.384  24.778  0.00  0.00    +0.147 A 
ATOM      3  N   UNL     1      11.465   1.433  24.080  0.00  0.00    -0.181 NA
ATOM      4  N   UNL     1      10.322   2.045  23.747  0.00  0.00    -0.276 N 
ATOM      5  H   UNL     1      10.363   2.867  23.151  0.00  0.00    +0.189 HD
ATOM      6  C   UNL     1       9.169   1.460  24.229  0.00  0.00    +0.081 A 
ENDROOT
BRANCH   6   7
ATOM      7  C   UNL     1       7.842   2.024  23.848  0.00  0.00    +0.044 A 
ATOM      8  C   UNL     1       7.569   2.447  22.520  0.00  0.00    +0.130 A 
ATOM      9  C   UNL     1       6.282   2.799  22.098  0.00  0.00    +0.093 A 
ATOM     10  C   UNL     1       5.233   2.731  22.999  0.00  0.00    +0.139 A 
ATOM     11  C   UNL     1       5.476   2.410  24.330  0.00  0.00    +0.083 A 
ATOM     12 CL   UNL     1       4.174   2.354  25.460  0.00  0.00    -0.080 Cl
ATOM     13  C   UNL     1       6.773   2.097  24.753  0.00  0.00    +0.037 A 
BRANCH   8  14
ATOM     14  O   UNL     1       8.583   2.504  21.591  0.00  0.00    -0.506 OA
ATOM     15  H   UNL     1       9.422   2.289  22.036  0.00  0.00    +0.292 HD
ENDBRANCH   8  14
BRANCH  10  16
ATOM     16  O   UNL     1       3.973   2.972  22.524  0.00  0.00    -0.505 OA
ATOM     17  H   UNL     1       3.951   3.905  22.236  0.00  0.00    +0.292 HD
ENDBRANCH  10  16
ENDBRANCH   6   7
BRANCH   1  20
ATOM     18  N   UNL     1       9.054  -1.974  24.952  0.00  0.00    -0.281 N 
ATOM     19  H   UNL     1       9.739  -2.045  24.212  0.00  0.00    +0.155 HD
ATOM     20  C   UNL     1       8.913  -0.739  25.578  0.00  0.00    +0.252 C 
ATOM     21  O   UNL     1       8.210  -0.531  26.561  0.00  0.00    -0.270 OA
BRANCH  18  25
ATOM     22  C   UNL     1       6.539  -5.266  25.791  0.00  0.00    +0.017 A 
ATOM     23  C   UNL     1       6.366  -4.511  24.625  0.00  0.00    +0.013 A 
ATOM     24  C   UNL     1       7.232  -3.444  24.338  0.00  0.00    +0.024 A 
ATOM     25  C   UNL     1       8.281  -3.129  25.211  0.00  0.00    +0.034 A 
ATOM     26  C   UNL     1       8.482  -3.935  26.332  0.00  0.00    +0.024 A 
ATOM     27  C   UNL     1       7.626  -4.995  26.620  0.00  0.00    +0.013 A 
BRANCH  22  29
ATOM     28  C   UNL     1       4.536  -6.738  25.122  0.00  0.00    +0.091 C 
ATOM     29  C   UNL     1       5.545  -6.312  26.162  0.00  0.00    +0.160 C 
ATOM     30  O   UNL     1       5.574  -6.816  27.281  0.00  0.00    -0.292 OA
ENDBRANCH  22  29
ENDBRANCH  18  25
ENDBRANCH   1  20
TORSDOF 6
ENDMDL
MODEL 9
REMARK VINA RESULT:      -6.5      3.851      8.495
REMARK  Name = 
REMARK  7 active torsions:
REMARK  status: ('A' for Active; 'I' for Inactive)
REMARK    1  A    between atoms: C_1  and  C_2
REMARK    2  A    between atoms: C_2  and  C_4
REMARK    3  A    between atoms: C_7  and  N_8
REMARK    4  A    between atoms: C_9  and  C_11
REMARK    5  A    between atoms: C_12  and  C_16
REMARK    6  A    between atoms: C_20  and  O_21
REMARK    7  A    between atoms: C_23  and  O_24
REMARK                            x       y       z     vdW  Elec       q    Type
REMARK                         _______ _______ _______ _____ _____    ______ ____
ROOT
ATOM      1  C   UNL     1       8.893  -0.019  24.175  0.00  0.00    +0.082 A 
ATOM      2  C   UNL     1      10.135  -0.512  24.658  0.00  0.00    +0.147 A 
ATOM      3  N   UNL     1      11.000   0.453  24.950  0.00  0.00    -0.181 NA
ATOM      4  N   UNL     1      10.335   1.564  24.613  0.00  0.00    -0.276 N 
ATOM      5  H   UNL     1      10.808   2.460  24.692  0.00  0.00    +0.189 HD
ATOM      6  C   UNL     1       9.050   1.374  24.144  0.00  0.00    +0.081 A 
ENDROOT
BRANCH   6   7
ATOM      7  C   UNL     1       8.258   2.545  23.671  0.00  0.00    +0.044 A 
ATOM      8  C   UNL     1       7.950   2.727  22.297  0.00  0.00    +0.130 A 
ATOM      9  C   UNL     1       7.054   3.707  21.856  0.00  0.00    +0.093 A 
ATOM     10  C   UNL     1       6.440   4.530  22.785  0.00  0.00    +0.139 A 
ATOM     11  C   UNL     1       6.786   4.443  24.129  0.00  0.00    +0.083 A 
ATOM     12 CL   UNL     1       6.044   5.488  25.284  0.00  0.00    -0.080 Cl
ATOM     13  C   UNL     1       7.712   3.485  24.557  0.00  0.00    +0.037 A 
BRANCH   8  14
ATOM     14  O   UNL     1       8.522   1.912  21.347  0.00  0.00    -0.506 OA
ATOM     15  H   UNL     1       9.261   1.430  21.759  0.00  0.00    +0.292 HD
ENDBRANCH   8  14
BRANCH  10  16
ATOM     16  O   UNL     1       5.488   5.399  22.330  0.00  0.00    -0.505 OA
ATOM     17  H   UNL     1       4.817   4.867  21.860  0.00  0.00    +0.292 HD
ENDBRANCH  10  16
ENDBRANCH   6   7
BRANCH   1  20
ATOM     18  N   UNL     1       7.468  -1.899  24.558  0.00  0.00    -0.281 N 
ATOM     19  H   UNL     1       7.894  -1.904  25.475  0.00  0.00    +0.155 HD
ATOM     20  C   UNL     1       7.805  -0.856  23.701  0.00  0.00    +0.252 C 
ATOM     21  O   UNL     1       7.285  -0.655  22.609  0.00  0.00    -0.270 OA
BRANCH  18  25
ATOM     22  C   UNL     1       4.913  -5.199  23.889  0.00  0.00    +0.017 A 
ATOM     23  C   UNL     1       4.392  -3.947  24.235  0.00  0.00    +0.013 A 
ATOM     24  C   UNL     1       5.247  -2.849  24.417  0.00  0.00    +0.024 A 
ATOM     25  C   UNL     1       6.630  -2.993  24.246  0.00  0.00    +0.034 A 
ATOM     26  C   UNL     1       7.126  -4.230  23.833  0.00  0.00    +0.024 A 
ATOM     27  C   UNL     1       6.281  -5.322  23.651  0.00  0.00    +0.013 A 
BRANCH  22  29
ATOM     28  C   UNL     1       2.751  -6.289  23.015  0.00  0.00    +0.091 C 
ATOM     29  C   UNL     1       4.022  -6.391  23.824  0.00  0.00    +0.160 C 
ATOM     30  O   UNL     1       4.339  -7.425  24.404  0.00  0.00    -0.292 OA
ENDBRANCH  22  29
ENDBRANCH  18  25
ENDBRANCH   1  20
TORSDOF 6
ENDMDL
