MODEL 1
REMARK VINA RESULT:     191.3      0.000      0.000
REMARK  Name = 
REMARK  40 active torsions:
REMARK  status: ('A' for Active; 'I' for Inactive)
REMARK    1  A    between atoms: C_1  and  C_2
REMARK    2  A    between atoms: C_2  and  C_3
REMARK    3  A    between atoms: C_7  and  C_8
REMARK    4  A    between atoms: C_8  and  O_9
REMARK    5  A    between atoms: C_8  and  C_10
REMARK    6  A    between atoms: C_10  and  C_11
REMARK    7  A    between atoms: C_10  and  C_12
REMARK    8  A    between atoms: C_12  and  C_13
REMARK    9  A    between atoms: C_14  and  C_15
REMARK   10  A    between atoms: N_16  and  C_17
REMARK   11  A    between atoms: C_20  and  C_21
REMARK   12  A    between atoms: C_21  and  C_22
REMARK   13  A    between atoms: C_21  and  C_23
REMARK   14  A    between atoms: N_24  and  C_25
REMARK   15  A    between atoms: C_28  and  C_29
REMARK   16  A    between atoms: C_29  and  C_30
REMARK   17  A    between atoms: C_30  and  C_31
REMARK   18  A    between atoms: C_30  and  C_32
REMARK   19  A    between atoms: N_33  and  C_34
REMARK   20  A    between atoms: C_37  and  C_38
REMARK   21  A    between atoms: C_38  and  C_39
REMARK   22  A    between atoms: C_39  and  C_40
REMARK   23  A    between atoms: C_39  and  C_41
REMARK   24  A    between atoms: N_42  and  C_43
REMARK   25  A    between atoms: C_46  and  C_47
REMARK   26  A    between atoms: C_51  and  C_52
REMARK   27  A    between atoms: C_56  and  C_57
REMARK   28  A    between atoms: C_57  and  C_58
REMARK   29  A    between atoms: C_58  and  C_59
REMARK   30  A    between atoms: C_58  and  C_60
REMARK   31  A    between atoms: N_61  and  C_62
REMARK   32  A    between atoms: C_65  and  C_83
REMARK   33  A    between atoms: C_69  and  C_70
REMARK   34  A    between atoms: C_70  and  C_71
REMARK   35  A    between atoms: C_71  and  C_72
REMARK   36  A    between atoms: C_71  and  C_73
REMARK   37  A    between atoms: N_74  and  C_75
REMARK   38  A    between atoms: N_79  and  C_80
REMARK   39  A    between atoms: C_83  and  C_84
REMARK   40  A    between atoms: C_83  and  C_85
REMARK                            x       y       z     vdW  Elec       q    Type
REMARK                         _______ _______ _______ _____ _____    ______ ____
ROOT
ATOM      1  C   UNL     1       7.785   3.391  27.611  0.00  0.00    +0.159 C 
ATOM      2  C   UNL     1       9.604   2.000  26.041  0.00  0.00    +0.236 C 
ATOM      3  O   UNL     1      10.234   3.060  26.739  0.00  0.00    -0.274 OA
ATOM      4  N   UNL     1      11.154   0.697  24.549  0.00  0.00    -0.294 N 
ATOM      5  C   UNL     1      13.162   0.548  24.667  0.00  0.00    +0.132 C 
ATOM      6  C   UNL     1      12.479  -0.857  22.871  0.00  0.00    +0.203 C 
ATOM      7  C   UNL     1      13.988  -2.253  21.153  0.00  0.00    +0.233 C 
ATOM      8  O   UNL     1      15.317  -2.521  21.573  0.00  0.00    -0.274 OA
ATOM      9  N   UNL     1      15.311  -3.629  19.648  0.00  0.00    -0.292 N 
ATOM     10  C   UNL     1      16.258  -3.703  17.780  0.00  0.00    +0.133 C 
ATOM     11  C   UNL     1      16.600  -5.239  18.225  0.00  0.00    +0.162 C 
ATOM     12  C   UNL     1      16.935  -6.562  16.372  0.00  0.00    +0.234 C 
ATOM     13  O   UNL     1      17.341  -6.161  15.059  0.00  0.00    -0.274 OA
ATOM     14  N   UNL     1      16.812  -8.201  15.292  0.00  0.00    -0.302 N 
ATOM     15  H   UNL     1      17.477  -9.099  14.864  0.00  0.00    +0.150 HD
ATOM     16  C   UNL     1      16.005  -8.558  13.562  0.00  0.00    +0.162 C 
ATOM     17  C   UNL     1      14.565  -8.605  14.056  0.00  0.00    +0.237 C 
ATOM     18  O   UNL     1      13.776  -9.536  13.928  0.00  0.00    -0.274 OA
ATOM     19  N   UNL     1      14.247  -7.475  14.766  0.00  0.00    -0.291 N 
ATOM     20  C   UNL     1      15.130  -6.422  14.766  0.00  0.00    +0.133 C 
ATOM     21  C   UNL     1      13.152  -7.349  15.683  0.00  0.00    +0.162 C 
ATOM     22  C   UNL     1      13.205  -6.092  16.634  0.00  0.00    +0.234 C 
ATOM     23  O   UNL     1      13.996  -5.164  16.531  0.00  0.00    -0.274 OA
ATOM     24  N   UNL     1      12.224  -5.829  17.518  0.00  0.00    -0.303 N 
ATOM     25  H   UNL     1      11.463  -6.455  17.689  0.00  0.00    +0.149 HD
ATOM     26  C   UNL     1      12.155  -4.497  18.146  0.00  0.00    +0.156 C 
ATOM     27  C   UNL     1      13.281  -4.488  19.076  0.00  0.00    +0.038 C 
ATOM     28  C   UNL     1      10.876  -4.357  18.943  0.00  0.00    +0.234 C 
ATOM     29  O   UNL     1      10.034  -5.252  18.853  0.00  0.00    -0.274 OA
ATOM     30  N   UNL     1      10.696  -3.237  19.737  0.00  0.00    -0.303 N 
ATOM     31  H   UNL     1      11.375  -2.482  19.786  0.00  0.00    +0.149 HD
ATOM     32  C   UNL     1       9.453  -3.055  20.510  0.00  0.00    +0.156 C 
ATOM     33  C   UNL     1       8.293  -3.035  19.539  0.00  0.00    +0.038 C 
ATOM     34  C   UNL     1       9.474  -1.731  21.320  0.00  0.00    +0.236 C 
ATOM     35  O   UNL     1      10.471  -1.004  21.230  0.00  0.00    -0.274 OA
ATOM     36  N   UNL     1       8.348  -1.430  22.113  0.00  0.00    -0.291 N 
ATOM     37  C   UNL     1       7.256  -2.376  22.260  0.00  0.00    +0.133 C 
ATOM     38  C   UNL     1       8.331  -0.202  22.937  0.00  0.00    +0.162 C 
ATOM     39  C   UNL     1       7.164   0.089  23.850  0.00  0.00    +0.236 C 
ATOM     40  O   UNL     1       6.516  -0.888  24.190  0.00  0.00    -0.274 OA
ATOM     41  N   UNL     1       6.894   1.280  24.476  0.00  0.00    -0.291 N 
ATOM     42  C   UNL     1       7.749   2.432  24.348  0.00  0.00    +0.133 C 
ATOM     43  C   UNL     1       5.683   1.311  25.340  0.00  0.00    +0.162 C 
ATOM     44  C   UNL     1       5.530   2.525  26.164  0.00  0.00    +0.236 C 
ATOM     45  O   UNL     1       6.224   3.526  26.062  0.00  0.00    -0.274 OA
ATOM     46  N   UNL     1       4.448   2.513  26.961  0.00  0.00    -0.291 N 
ATOM     47  C   UNL     1       3.449   1.588  27.283  0.00  0.00    +0.133 C 
ATOM     48  C   UNL     1       4.471   3.507  27.837  0.00  0.00    +0.164 C 
ATOM     49  C   UNL     1       3.168   3.974  28.218  0.00  0.00    +0.237 C 
ATOM     50  O   UNL     1       2.427   3.314  28.940  0.00  0.00    -0.274 OA
ATOM     51  N   UNL     1       3.211   5.436  28.378  0.00  0.00    -0.289 N 
ATOM     52  C   UNL     1       4.457   7.007  28.342  0.00  0.00    +0.133 C 
ATOM     53  C   UNL     1       2.253   5.160  29.713  0.00  0.00    +0.190 C 
ATOM     54  C   UNL     1       4.143   5.364  29.244  0.00  0.00    +0.237 C 
ATOM     55  O   UNL     1       3.264   6.654  29.705  0.00  0.00    -0.274 OA
ATOM     56  N   UNL     1       5.915   4.522  28.502  0.00  0.00    -0.302 N 
ATOM     57  H   UNL     1       4.902   4.401  29.503  0.00  0.00    +0.150 HD
ENDROOT
BRANCH  48  58
ATOM     58  C   UNL     1       5.333   2.699  29.397  0.00  0.00    +0.012 C 
ATOM     59  C   UNL     1       6.773   2.729  29.135  0.00  0.00    +0.009 C 
ATOM     60  C   UNL     1       5.511   1.002  29.976  0.00  0.00    +0.009 C 
ENDBRANCH  48  58
BRANCH  16  61
ATOM     61  C   UNL     1      15.999 -10.010  12.485  0.00  0.00    +0.012 C 
ATOM     62  C   UNL     1      14.789 -10.890  12.698  0.00  0.00    +0.009 C 
ATOM     63  C   UNL     1      17.241 -10.890  12.641  0.00  0.00    +0.009 C 
ENDBRANCH  16  61
BRANCH   1  65
ATOM     64  C   UNL     1       5.180   6.515  30.476  0.00  0.00    +0.006 C 
ATOM     65  C   UNL     1       6.559   4.781  29.290  0.00  0.00    +0.028 C 
ENDBRANCH   1  65
BRANCH  21  66
ATOM     66  C   UNL     1      11.980  -7.306  14.740  0.00  0.00    +0.035 C 
BRANCH  66  67
ATOM     67  C   UNL     1      11.341  -8.694  14.541  0.00  0.00    -0.015 C 
ATOM     68  C   UNL     1      10.411  -9.053  15.656  0.00  0.00    +0.007 C 
ATOM     69  C   UNL     1      12.428  -9.729  14.590  0.00  0.00    +0.007 C 
ENDBRANCH  66  67
ENDBRANCH  21  66
BRANCH  38  70
ATOM     70  C   UNL     1       9.423  -0.362  23.909  0.00  0.00    +0.035 C 
BRANCH  70  71
ATOM     71  C   UNL     1       9.581  -1.530  24.903  0.00  0.00    -0.015 C 
ATOM     72  C   UNL     1      10.607  -2.587  24.605  0.00  0.00    +0.007 C 
ATOM     73  C   UNL     1       8.282  -2.380  24.977  0.00  0.00    +0.007 C 
ENDBRANCH  70  71
ENDBRANCH  38  70
BRANCH  43  74
ATOM     74  C   UNL     1       4.433   1.293  24.449  0.00  0.00    +0.035 C 
BRANCH  74  75
ATOM     75  C   UNL     1       4.000   2.683  24.070  0.00  0.00    -0.015 C 
ATOM     76  C   UNL     1       2.610   2.836  23.610  0.00  0.00    +0.007 C 
ATOM     77  C   UNL     1       4.893   3.241  22.933  0.00  0.00    +0.007 C 
ENDBRANCH  74  75
ENDBRANCH  43  74
BRANCH  53  78
ATOM     78  C   UNL     1       0.719   5.648  29.290  0.00  0.00    +0.147 C 
BRANCH  78  79
ATOM     79  C   UNL     1       0.445   6.083  27.793  0.00  0.00    +0.021 C 
ATOM     80  C   UNL     1       1.462   7.104  27.317  0.00  0.00    +0.010 C 
BRANCH  79  81
ATOM     81  C   UNL     1       0.449   4.919  26.818  0.00  0.00    +0.032 C 
BRANCH  81  82
ATOM     82  C   UNL     1       1.340   5.197  25.658  0.00  0.00    -0.031 C 
ATOM     83  C   UNL     1       2.094   6.298  25.585  0.00  0.00    -0.034 C 
ATOM     84  C   UNL     1       2.985   6.566  24.426  0.00  0.00    +0.035 C 
ENDBRANCH  81  82
ENDBRANCH  79  81
ENDBRANCH  78  79
BRANCH  78  85
ATOM     85  O   UNL     1       0.576   6.859  30.010  0.00  0.00    -0.389 OA
ATOM     86  H   UNL     1       1.269   7.380  29.550  0.00  0.00    +0.210 HD
ENDBRANCH  78  85
ENDBRANCH  53  78
BRANCH  11  87
ATOM     87  C   UNL     1      18.345  -6.137  16.748  0.00  0.00    +0.035 C 
BRANCH  87  88
ATOM     88  C   UNL     1      19.521  -7.507  15.294  0.00  0.00    -0.015 C 
ATOM     89  C   UNL     1      20.049  -8.268  13.364  0.00  0.00    +0.007 C 
ATOM     90  C   UNL     1      19.629  -9.346  15.163  0.00  0.00    +0.007 C 
ENDBRANCH  87  88
ENDBRANCH  11  87
TORSDOF 16
ENDMDL
