MODEL 1
REMARK VINA RESULT:      -7.2      0.000      0.000
REMARK  Name = 
REMARK  8 active torsions:
REMARK  status: ('A' for Active; 'I' for Inactive)
REMARK    1  A    between atoms: C_1  and  C_2
REMARK    2  A    between atoms: C_2  and  C_3
REMARK    3  A    between atoms: C_2  and  N_4
REMARK    4  A    between atoms: N_4  and  C_5
REMARK    5  A    between atoms: C_14  and  N_18
REMARK    6  A    between atoms: C_21  and  C_22
REMARK    7  A    between atoms: C_22  and  C_23
REMARK    8  A    between atoms: C_23  and  O_24
REMARK                            x       y       z     vdW  Elec       q    Type
REMARK                         _______ _______ _______ _____ _____    ______ ____
ROOT
ATOM      1  C   UNL     1       7.756   2.177  22.136  0.00  0.00    +0.029 A 
ATOM      2  C   UNL     1       7.110   3.386  21.847  0.00  0.00    +0.024 A 
ATOM      3  C   UNL     1       5.931   3.773  22.503  0.00  0.00    +0.013 A 
ATOM      4  C   UNL     1       5.414   2.943  23.508  0.00  0.00    +0.020 A 
ATOM      5  C   UNL     1       4.324   2.996  24.397  0.00  0.00    +0.143 A 
ATOM      6  N   UNL     1       4.304   1.974  25.254  0.00  0.00    -0.172 NA
ATOM      7  N   UNL     1       5.342   1.181  24.855  0.00  0.00    -0.212 N 
ATOM      8  C   UNL     1       5.577  -0.077  25.480  0.00  0.00    +0.175 A 
ATOM      9  C   UNL     1       5.057  -0.286  26.751  0.00  0.00    +0.159 A 
ATOM     10  N   UNL     1       5.258  -1.438  27.437  0.00  0.00    -0.256 NA
ATOM     11  C   UNL     1       5.958  -2.399  26.783  0.00  0.00    +0.157 A 
ATOM     12  C   UNL     1       6.447  -2.228  25.491  0.00  0.00    +0.158 A 
ATOM     13  N   UNL     1       6.291  -1.046  24.832  0.00  0.00    -0.207 NA
ATOM     14  C   UNL     1       6.068   1.756  23.820  0.00  0.00    +0.078 A 
ATOM     15  C   UNL     1       7.255   1.375  23.169  0.00  0.00    +0.051 A 
ENDROOT
BRANCH  12  16
ATOM     16  N   UNL     1       7.082  -3.309  24.807  0.00  0.00    -0.307 N 
ATOM     17  C   UNL     1       6.537  -4.006  23.738  0.00  0.00    +0.097 A 
ATOM     18  C   UNL     1       7.415  -4.993  23.320  0.00  0.00    -0.019 A 
ATOM     19  C   UNL     1       8.536  -4.910  24.185  0.00  0.00    +0.023 A 
ATOM     20  C   UNL     1       8.310  -3.880  25.074  0.00  0.00    +0.093 A 
BRANCH  18  21
ATOM     21  C   UNL     1       7.258  -5.919  22.145  0.00  0.00    +0.157 C 
BRANCH  21  22
ATOM     22  C   UNL     1       5.998  -5.785  21.309  0.00  0.00    +0.309 C 
ATOM     23  O   UNL     1       6.008  -5.256  20.198  0.00  0.00    -0.251 OA
BRANCH  22  24
ATOM     24  O   UNL     1       4.856  -6.267  21.843  0.00  0.00    -0.480 OA
ATOM     25  H   UNL     1       4.346  -6.853  21.254  0.00  0.00    +0.295 HD
ENDBRANCH  22  24
ENDBRANCH  21  22
ENDBRANCH  18  21
ENDBRANCH  12  16
BRANCH   1  26
ATOM     26  N   UNL     1       8.932   1.859  21.441  0.00  0.00    -0.341 N 
ATOM     27  H   UNL     1       8.780   1.102  20.778  0.00  0.00    +0.146 HD
BRANCH  26  29
ATOM     28  C   UNL     1      10.300   2.731  23.311  0.00  0.00    +0.027 C 
ATOM     29  C   UNL     1      10.189   1.699  22.184  0.00  0.00    +0.064 C 
ATOM     30  C   UNL     1      10.222   0.289  22.777  0.00  0.00    +0.027 C 
ENDBRANCH  26  29
ENDBRANCH   1  26
TORSDOF 6
ENDMDL
MODEL 2
REMARK VINA RESULT:      -7.1      2.217      4.381
REMARK  Name = 
REMARK  8 active torsions:
REMARK  status: ('A' for Active; 'I' for Inactive)
REMARK    1  A    between atoms: C_1  and  C_2
REMARK    2  A    between atoms: C_2  and  C_3
REMARK    3  A    between atoms: C_2  and  N_4
REMARK    4  A    between atoms: N_4  and  C_5
REMARK    5  A    between atoms: C_14  and  N_18
REMARK    6  A    between atoms: C_21  and  C_22
REMARK    7  A    between atoms: C_22  and  C_23
REMARK    8  A    between atoms: C_23  and  O_24
REMARK                            x       y       z     vdW  Elec       q    Type
REMARK                         _______ _______ _______ _____ _____    ______ ____
ROOT
ATOM      1  C   UNL     1       6.013   2.729  22.628  0.00  0.00    +0.029 A 
ATOM      2  C   UNL     1       6.606   3.997  22.688  0.00  0.00    +0.024 A 
ATOM      3  C   UNL     1       7.944   4.173  23.071  0.00  0.00    +0.013 A 
ATOM      4  C   UNL     1       8.719   3.041  23.357  0.00  0.00    +0.020 A 
ATOM      5  C   UNL     1      10.059   2.801  23.717  0.00  0.00    +0.143 A 
ATOM      6  N   UNL     1      10.351   1.502  23.793  0.00  0.00    -0.172 NA
ATOM      7  N   UNL     1       9.155   0.876  23.580  0.00  0.00    -0.212 N 
ATOM      8  C   UNL     1       9.047  -0.540  23.688  0.00  0.00    +0.175 A 
ATOM      9  C   UNL     1      10.203  -1.298  23.560  0.00  0.00    +0.159 A 
ATOM     10  N   UNL     1      10.193  -2.653  23.614  0.00  0.00    -0.256 NA
ATOM     11  C   UNL     1       8.985  -3.224  23.853  0.00  0.00    +0.157 A 
ATOM     12  C   UNL     1       7.822  -2.480  24.031  0.00  0.00    +0.158 A 
ATOM     13  N   UNL     1       7.832  -1.123  23.917  0.00  0.00    -0.207 NA
ATOM     14  C   UNL     1       8.145   1.777  23.271  0.00  0.00    +0.078 A 
ATOM     15  C   UNL     1       6.806   1.601  22.877  0.00  0.00    +0.051 A 
ENDROOT
BRANCH  12  16
ATOM     16  N   UNL     1       6.598  -3.124  24.388  0.00  0.00    -0.307 N 
ATOM     17  C   UNL     1       6.480  -4.444  24.799  0.00  0.00    +0.097 A 
ATOM     18  C   UNL     1       5.153  -4.742  25.060  0.00  0.00    -0.019 A 
ATOM     19  C   UNL     1       4.424  -3.559  24.776  0.00  0.00    +0.023 A 
ATOM     20  C   UNL     1       5.323  -2.593  24.374  0.00  0.00    +0.093 A 
BRANCH  18  21
ATOM     21  C   UNL     1       4.595  -6.028  25.606  0.00  0.00    +0.157 C 
BRANCH  21  22
ATOM     22  C   UNL     1       4.272  -7.130  24.613  0.00  0.00    +0.309 C 
ATOM     23  O   UNL     1       3.443  -8.004  24.859  0.00  0.00    -0.251 OA
BRANCH  22  24
ATOM     24  O   UNL     1       4.944  -7.114  23.442  0.00  0.00    -0.480 OA
ATOM     25  H   UNL     1       4.768  -6.337  22.882  0.00  0.00    +0.295 HD
ENDBRANCH  22  24
ENDBRANCH  21  22
ENDBRANCH  18  21
ENDBRANCH  12  16
BRANCH   1  26
ATOM     26  N   UNL     1       4.670   2.630  22.235  0.00  0.00    -0.341 N 
ATOM     27  H   UNL     1       4.586   2.341  21.263  0.00  0.00    +0.146 HD
BRANCH  26  29
ATOM     28  C   UNL     1       2.690   3.905  21.473  0.00  0.00    +0.027 C 
ATOM     29  C   UNL     1       3.738   3.715  22.573  0.00  0.00    +0.064 C 
ATOM     30  C   UNL     1       3.041   3.358  23.887  0.00  0.00    +0.027 C 
ENDBRANCH  26  29
ENDBRANCH   1  26
TORSDOF 6
ENDMDL
MODEL 3
REMARK VINA RESULT:      -6.9      3.731      6.077
REMARK  Name = 
REMARK  8 active torsions:
REMARK  status: ('A' for Active; 'I' for Inactive)
REMARK    1  A    between atoms: C_1  and  C_2
REMARK    2  A    between atoms: C_2  and  C_3
REMARK    3  A    between atoms: C_2  and  N_4
REMARK    4  A    between atoms: N_4  and  C_5
REMARK    5  A    between atoms: C_14  and  N_18
REMARK    6  A    between atoms: C_21  and  C_22
REMARK    7  A    between atoms: C_22  and  C_23
REMARK    8  A    between atoms: C_23  and  O_24
REMARK                            x       y       z     vdW  Elec       q    Type
REMARK                         _______ _______ _______ _____ _____    ______ ____
ROOT
ATOM      1  C   UNL     1       7.898  -0.738  26.207  0.00  0.00    +0.029 A 
ATOM      2  C   UNL     1       9.032   0.052  25.981  0.00  0.00    +0.024 A 
ATOM      3  C   UNL     1       9.895  -0.179  24.899  0.00  0.00    +0.013 A 
ATOM      4  C   UNL     1       9.584  -1.205  23.995  0.00  0.00    +0.020 A 
ATOM      5  C   UNL     1      10.146  -1.705  22.805  0.00  0.00    +0.143 A 
ATOM      6  N   UNL     1       9.408  -2.665  22.246  0.00  0.00    -0.172 NA
ATOM      7  N   UNL     1       8.395  -2.872  23.139  0.00  0.00    -0.212 N 
ATOM      8  C   UNL     1       7.445  -3.912  22.931  0.00  0.00    +0.175 A 
ATOM      9  C   UNL     1       7.278  -4.401  21.642  0.00  0.00    +0.159 A 
ATOM     10  N   UNL     1       6.374  -5.367  21.343  0.00  0.00    -0.256 NA
ATOM     11  C   UNL     1       5.674  -5.864  22.393  0.00  0.00    +0.157 A 
ATOM     12  C   UNL     1       5.858  -5.421  23.699  0.00  0.00    +0.158 A 
ATOM     13  N   UNL     1       6.727  -4.410  23.982  0.00  0.00    -0.207 NA
ATOM     14  C   UNL     1       8.443  -1.974  24.197  0.00  0.00    +0.078 A 
ATOM     15  C   UNL     1       7.573  -1.734  25.277  0.00  0.00    +0.051 A 
ENDROOT
BRANCH  12  16
ATOM     16  N   UNL     1       5.175  -6.053  24.783  0.00  0.00    -0.307 N 
ATOM     17  C   UNL     1       5.573  -6.009  26.112  0.00  0.00    +0.097 A 
ATOM     18  C   UNL     1       4.689  -6.732  26.895  0.00  0.00    -0.019 A 
ATOM     19  C   UNL     1       3.720  -7.260  26.003  0.00  0.00    +0.023 A 
ATOM     20  C   UNL     1       4.036  -6.831  24.731  0.00  0.00    +0.093 A 
BRANCH  18  21
ATOM     21  C   UNL     1       4.698  -6.874  28.392  0.00  0.00    +0.157 C 
BRANCH  21  22
ATOM     22  C   UNL     1       5.996  -6.566  29.118  0.00  0.00    +0.309 C 
ATOM     23  O   UNL     1       6.250  -5.441  29.545  0.00  0.00    -0.251 OA
BRANCH  22  24
ATOM     24  O   UNL     1       6.868  -7.585  29.270  0.00  0.00    -0.480 OA
ATOM     25  H   UNL     1       6.891  -7.973  30.164  0.00  0.00    +0.295 HD
ENDBRANCH  22  24
ENDBRANCH  21  22
ENDBRANCH  18  21
ENDBRANCH  12  16
BRANCH   1  26
ATOM     26  N   UNL     1       7.081  -0.445  27.309  0.00  0.00    -0.341 N 
ATOM     27  H   UNL     1       6.482  -1.232  27.549  0.00  0.00    +0.146 HD
BRANCH  26  29
ATOM     28  C   UNL     1       4.965   0.702  26.733  0.00  0.00    +0.027 C 
ATOM     29  C   UNL     1       6.359   0.834  27.352  0.00  0.00    +0.064 C 
ATOM     30  C   UNL     1       6.231   1.264  28.815  0.00  0.00    +0.027 C 
ENDBRANCH  26  29
ENDBRANCH   1  26
TORSDOF 6
ENDMDL
MODEL 4
REMARK VINA RESULT:      -6.8      2.881      3.741
REMARK  Name = 
REMARK  8 active torsions:
REMARK  status: ('A' for Active; 'I' for Inactive)
REMARK    1  A    between atoms: C_1  and  C_2
REMARK    2  A    between atoms: C_2  and  C_3
REMARK    3  A    between atoms: C_2  and  N_4
REMARK    4  A    between atoms: N_4  and  C_5
REMARK    5  A    between atoms: C_14  and  N_18
REMARK    6  A    between atoms: C_21  and  C_22
REMARK    7  A    between atoms: C_22  and  C_23
REMARK    8  A    between atoms: C_23  and  O_24
REMARK                            x       y       z     vdW  Elec       q    Type
REMARK                         _______ _______ _______ _____ _____    ______ ____
ROOT
ATOM      1  C   UNL     1       9.446   4.979  23.510  0.00  0.00    +0.029 A 
ATOM      2  C   UNL     1       9.044   6.222  23.004  0.00  0.00    +0.024 A 
ATOM      3  C   UNL     1       7.690   6.554  22.840  0.00  0.00    +0.013 A 
ATOM      4  C   UNL     1       6.715   5.628  23.238  0.00  0.00    +0.020 A 
ATOM      5  C   UNL     1       5.308   5.601  23.279  0.00  0.00    +0.143 A 
ATOM      6  N   UNL     1       4.827   4.494  23.845  0.00  0.00    -0.172 NA
ATOM      7  N   UNL     1       5.935   3.732  24.086  0.00  0.00    -0.212 N 
ATOM      8  C   UNL     1       5.809   2.410  24.602  0.00  0.00    +0.175 A 
ATOM      9  C   UNL     1       4.638   2.074  25.267  0.00  0.00    +0.159 A 
ATOM     10  N   UNL     1       4.442   0.851  25.820  0.00  0.00    -0.256 NA
ATOM     11  C   UNL     1       5.446  -0.044  25.639  0.00  0.00    +0.157 A 
ATOM     12  C   UNL     1       6.608   0.258  24.936  0.00  0.00    +0.158 A 
ATOM     13  N   UNL     1       6.821   1.506  24.434  0.00  0.00    -0.207 NA
ATOM     14  C   UNL     1       7.107   4.404  23.768  0.00  0.00    +0.078 A 
ATOM     15  C   UNL     1       8.465   4.077  23.942  0.00  0.00    +0.051 A 
ENDROOT
BRANCH  12  16
ATOM     16  N   UNL     1       7.585  -0.753  24.681  0.00  0.00    -0.307 N 
ATOM     17  C   UNL     1       7.357  -2.120  24.757  0.00  0.00    +0.097 A 
ATOM     18  C   UNL     1       8.519  -2.811  24.455  0.00  0.00    -0.019 A 
ATOM     19  C   UNL     1       9.506  -1.823  24.204  0.00  0.00    +0.023 A 
ATOM     20  C   UNL     1       8.913  -0.586  24.345  0.00  0.00    +0.093 A 
BRANCH  18  21
ATOM     21  C   UNL     1       8.693  -4.300  24.337  0.00  0.00    +0.157 C 
BRANCH  21  22
ATOM     22  C   UNL     1       9.073  -5.063  25.594  0.00  0.00    +0.309 C 
ATOM     23  O   UNL     1       8.253  -5.314  26.475  0.00  0.00    -0.251 OA
BRANCH  22  24
ATOM     24  O   UNL     1      10.361  -5.452  25.708  0.00  0.00    -0.480 OA
ATOM     25  H   UNL     1      10.705  -5.953  24.945  0.00  0.00    +0.295 HD
ENDBRANCH  22  24
ENDBRANCH  21  22
ENDBRANCH  18  21
ENDBRANCH  12  16
BRANCH   1  26
ATOM     26  N   UNL     1      10.817   4.719  23.648  0.00  0.00    -0.341 N 
ATOM     27  H   UNL     1      11.011   4.167  24.481  0.00  0.00    +0.146 HD
BRANCH  26  29
ATOM     28  C   UNL     1      12.115   6.475  24.813  0.00  0.00    +0.027 C 
ATOM     29  C   UNL     1      11.780   5.815  23.473  0.00  0.00    +0.064 C 
ATOM     30  C   UNL     1      13.056   5.239  22.853  0.00  0.00    +0.027 C 
ENDBRANCH  26  29
ENDBRANCH   1  26
TORSDOF 6
ENDMDL
MODEL 5
REMARK VINA RESULT:      -6.7      3.574      6.827
REMARK  Name = 
REMARK  8 active torsions:
REMARK  status: ('A' for Active; 'I' for Inactive)
REMARK    1  A    between atoms: C_1  and  C_2
REMARK    2  A    between atoms: C_2  and  C_3
REMARK    3  A    between atoms: C_2  and  N_4
REMARK    4  A    between atoms: N_4  and  C_5
REMARK    5  A    between atoms: C_14  and  N_18
REMARK    6  A    between atoms: C_21  and  C_22
REMARK    7  A    between atoms: C_22  and  C_23
REMARK    8  A    between atoms: C_23  and  O_24
REMARK                            x       y       z     vdW  Elec       q    Type
REMARK                         _______ _______ _______ _____ _____    ______ ____
ROOT
ATOM      1  C   UNL     1       3.204  -2.410  26.471  0.00  0.00    +0.029 A 
ATOM      2  C   UNL     1       1.817  -2.596  26.526  0.00  0.00    +0.024 A 
ATOM      3  C   UNL     1       1.141  -3.420  25.613  0.00  0.00    +0.013 A 
ATOM      4  C   UNL     1       1.887  -4.112  24.648  0.00  0.00    +0.020 A 
ATOM      5  C   UNL     1       1.601  -5.035  23.625  0.00  0.00    +0.143 A 
ATOM      6  N   UNL     1       2.697  -5.490  23.016  0.00  0.00    -0.172 NA
ATOM      7  N   UNL     1       3.715  -4.776  23.581  0.00  0.00    -0.212 N 
ATOM      8  C   UNL     1       5.050  -4.917  23.106  0.00  0.00    +0.175 A 
ATOM      9  C   UNL     1       5.381  -6.071  22.408  0.00  0.00    +0.159 A 
ATOM     10  N   UNL     1       6.635  -6.307  21.948  0.00  0.00    -0.256 NA
ATOM     11  C   UNL     1       7.539  -5.319  22.167  0.00  0.00    +0.157 A 
ATOM     12  C   UNL     1       7.217  -4.134  22.823  0.00  0.00    +0.158 A 
ATOM     13  N   UNL     1       5.970  -3.931  23.333  0.00  0.00    -0.207 NA
ATOM     14  C   UNL     1       3.268  -3.956  24.608  0.00  0.00    +0.078 A 
ATOM     15  C   UNL     1       3.945  -3.137  25.530  0.00  0.00    +0.051 A 
ENDROOT
BRANCH  12  16
ATOM     16  N   UNL     1       8.176  -3.082  22.932  0.00  0.00    -0.307 N 
ATOM     17  C   UNL     1       8.455  -2.151  21.940  0.00  0.00    +0.097 A 
ATOM     18  C   UNL     1       9.439  -1.278  22.374  0.00  0.00    -0.019 A 
ATOM     19  C   UNL     1       9.792  -1.706  23.680  0.00  0.00    +0.023 A 
ATOM     20  C   UNL     1       9.010  -2.798  23.995  0.00  0.00    +0.093 A 
BRANCH  18  21
ATOM     21  C   UNL     1       9.977  -0.075  21.651  0.00  0.00    +0.157 C 
BRANCH  21  22
ATOM     22  C   UNL     1       9.535   1.293  22.140  0.00  0.00    +0.309 C 
ATOM     23  O   UNL     1       8.578   1.434  22.900  0.00  0.00    -0.251 OA
BRANCH  22  24
ATOM     24  O   UNL     1      10.238   2.357  21.698  0.00  0.00    -0.480 OA
ATOM     25  H   UNL     1      10.134   3.166  22.232  0.00  0.00    +0.295 HD
ENDBRANCH  22  24
ENDBRANCH  21  22
ENDBRANCH  18  21
ENDBRANCH  12  16
BRANCH   1  26
ATOM     26  N   UNL     1       3.810  -1.572  27.418  0.00  0.00    -0.341 N 
ATOM     27  H   UNL     1       3.261  -1.516  28.272  0.00  0.00    +0.146 HD
BRANCH  26  29
ATOM     28  C   UNL     1       3.309   0.849  27.307  0.00  0.00    +0.027 C 
ATOM     29  C   UNL     1       4.320  -0.259  26.999  0.00  0.00    +0.064 C 
ATOM     30  C   UNL     1       5.623   0.013  27.752  0.00  0.00    +0.027 C 
ENDBRANCH  26  29
ENDBRANCH   1  26
TORSDOF 6
ENDMDL
MODEL 6
REMARK VINA RESULT:      -6.7      2.902      4.908
REMARK  Name = 
REMARK  8 active torsions:
REMARK  status: ('A' for Active; 'I' for Inactive)
REMARK    1  A    between atoms: C_1  and  C_2
REMARK    2  A    between atoms: C_2  and  C_3
REMARK    3  A    between atoms: C_2  and  N_4
REMARK    4  A    between atoms: N_4  and  C_5
REMARK    5  A    between atoms: C_14  and  N_18
REMARK    6  A    between atoms: C_21  and  C_22
REMARK    7  A    between atoms: C_22  and  C_23
REMARK    8  A    between atoms: C_23  and  O_24
REMARK                            x       y       z     vdW  Elec       q    Type
REMARK                         _______ _______ _______ _____ _____    ______ ____
ROOT
ATOM      1  C   UNL     1       4.749   3.637  22.671  0.00  0.00    +0.029 A 
ATOM      2  C   UNL     1       4.589   4.991  22.995  0.00  0.00    +0.024 A 
ATOM      3  C   UNL     1       5.574   5.710  23.689  0.00  0.00    +0.013 A 
ATOM      4  C   UNL     1       6.771   5.062  24.025  0.00  0.00    +0.020 A 
ATOM      5  C   UNL     1       7.975   5.431  24.654  0.00  0.00    +0.143 A 
ATOM      6  N   UNL     1       8.879   4.451  24.659  0.00  0.00    -0.172 NA
ATOM      7  N   UNL     1       8.221   3.384  24.116  0.00  0.00    -0.212 N 
ATOM      8  C   UNL     1       8.843   2.105  24.049  0.00  0.00    +0.175 A 
ATOM      9  C   UNL     1      10.229   2.044  24.110  0.00  0.00    +0.159 A 
ATOM     10  N   UNL     1      10.910   0.874  24.021  0.00  0.00    -0.256 NA
ATOM     11  C   UNL     1      10.148  -0.244  23.918  0.00  0.00    +0.157 A 
ATOM     12  C   UNL     1       8.757  -0.209  23.902  0.00  0.00    +0.158 A 
ATOM     13  N   UNL     1       8.084   0.974  23.934  0.00  0.00    -0.207 NA
ATOM     14  C   UNL     1       6.949   3.726  23.680  0.00  0.00    +0.078 A 
ATOM     15  C   UNL     1       5.964   3.010  22.975  0.00  0.00    +0.051 A 
ENDROOT
BRANCH  12  16
ATOM     16  N   UNL     1       8.002  -1.422  23.902  0.00  0.00    -0.307 N 
ATOM     17  C   UNL     1       8.389  -2.603  24.519  0.00  0.00    +0.097 A 
ATOM     18  C   UNL     1       7.428  -3.580  24.318  0.00  0.00    -0.019 A 
ATOM     19  C   UNL     1       6.418  -2.976  23.526  0.00  0.00    +0.023 A 
ATOM     20  C   UNL     1       6.788  -1.668  23.291  0.00  0.00    +0.093 A 
BRANCH  18  21
ATOM     21  C   UNL     1       7.408  -4.974  24.881  0.00  0.00    +0.157 C 
BRANCH  21  22
ATOM     22  C   UNL     1       8.413  -5.305  25.970  0.00  0.00    +0.309 C 
ATOM     23  O   UNL     1       8.223  -4.998  27.146  0.00  0.00    -0.251 OA
BRANCH  22  24
ATOM     24  O   UNL     1       9.536  -5.950  25.589  0.00  0.00    -0.480 OA
ATOM     25  H   UNL     1       9.638  -6.846  25.960  0.00  0.00    +0.295 HD
ENDBRANCH  22  24
ENDBRANCH  21  22
ENDBRANCH  18  21
ENDBRANCH  12  16
BRANCH   1  26
ATOM     26  N   UNL     1       3.721   2.985  21.974  0.00  0.00    -0.341 N 
ATOM     27  H   UNL     1       4.071   2.526  21.136  0.00  0.00    +0.146 HD
BRANCH  26  29
ATOM     28  C   UNL     1       2.077   3.655  20.249  0.00  0.00    +0.027 C 
ATOM     29  C   UNL     1       2.454   3.688  21.733  0.00  0.00    +0.064 C 
ATOM     30  C   UNL     1       1.360   3.001  22.553  0.00  0.00    +0.027 C 
ENDBRANCH  26  29
ENDBRANCH   1  26
TORSDOF 6
ENDMDL
MODEL 7
REMARK VINA RESULT:      -6.7      3.549      7.156
REMARK  Name = 
REMARK  8 active torsions:
REMARK  status: ('A' for Active; 'I' for Inactive)
REMARK    1  A    between atoms: C_1  and  C_2
REMARK    2  A    between atoms: C_2  and  C_3
REMARK    3  A    between atoms: C_2  and  N_4
REMARK    4  A    between atoms: N_4  and  C_5
REMARK    5  A    between atoms: C_14  and  N_18
REMARK    6  A    between atoms: C_21  and  C_22
REMARK    7  A    between atoms: C_22  and  C_23
REMARK    8  A    between atoms: C_23  and  O_24
REMARK                            x       y       z     vdW  Elec       q    Type
REMARK                         _______ _______ _______ _____ _____    ______ ____
ROOT
ATOM      1  C   UNL     1       4.872  -6.176  24.362  0.00  0.00    +0.029 A 
ATOM      2  C   UNL     1       4.123  -7.188  24.977  0.00  0.00    +0.024 A 
ATOM      3  C   UNL     1       3.603  -7.044  26.272  0.00  0.00    +0.013 A 
ATOM      4  C   UNL     1       3.804  -5.832  26.949  0.00  0.00    +0.020 A 
ATOM      5  C   UNL     1       3.420  -5.298  28.193  0.00  0.00    +0.143 A 
ATOM      6  N   UNL     1       3.792  -4.026  28.348  0.00  0.00    -0.172 NA
ATOM      7  N   UNL     1       4.524  -3.752  27.228  0.00  0.00    -0.212 N 
ATOM      8  C   UNL     1       5.184  -2.499  27.081  0.00  0.00    +0.175 A 
ATOM      9  C   UNL     1       4.727  -1.424  27.831  0.00  0.00    +0.159 A 
ATOM     10  N   UNL     1       5.271  -0.185  27.733  0.00  0.00    -0.256 NA
ATOM     11  C   UNL     1       6.327  -0.072  26.889  0.00  0.00    +0.157 A 
ATOM     12  C   UNL     1       6.831  -1.147  26.163  0.00  0.00    +0.158 A 
ATOM     13  N   UNL     1       6.242  -2.373  26.224  0.00  0.00    -0.207 NA
ATOM     14  C   UNL     1       4.521  -4.813  26.333  0.00  0.00    +0.078 A 
ATOM     15  C   UNL     1       5.033  -4.955  25.029  0.00  0.00    +0.051 A 
ENDROOT
BRANCH  12  16
ATOM     16  N   UNL     1       8.012  -0.999  25.373  0.00  0.00    -0.307 N 
ATOM     17  C   UNL     1       8.662   0.203  25.127  0.00  0.00    +0.097 A 
ATOM     18  C   UNL     1       9.767  -0.013  24.320  0.00  0.00    -0.019 A 
ATOM     19  C   UNL     1       9.782  -1.405  24.043  0.00  0.00    +0.023 A 
ATOM     20  C   UNL     1       8.710  -1.978  24.695  0.00  0.00    +0.093 A 
BRANCH  18  21
ATOM     21  C   UNL     1      10.792   0.996  23.883  0.00  0.00    +0.157 C 
BRANCH  21  22
ATOM     22  C   UNL     1      10.295   2.226  23.145  0.00  0.00    +0.309 C 
ATOM     23  O   UNL     1       9.958   3.249  23.740  0.00  0.00    -0.251 OA
BRANCH  22  24
ATOM     24  O   UNL     1      10.231   2.148  21.799  0.00  0.00    -0.480 OA
ATOM     25  H   UNL     1      10.659   2.886  21.327  0.00  0.00    +0.295 HD
ENDBRANCH  22  24
ENDBRANCH  21  22
ENDBRANCH  18  21
ENDBRANCH  12  16
BRANCH   1  26
ATOM     26  N   UNL     1       5.357  -6.391  23.064  0.00  0.00    -0.341 N 
ATOM     27  H   UNL     1       5.728  -7.332  22.955  0.00  0.00    +0.146 HD
BRANCH  26  29
ATOM     28  C   UNL     1       7.653  -5.471  22.974  0.00  0.00    +0.027 C 
ATOM     29  C   UNL     1       6.222  -5.379  22.440  0.00  0.00    +0.064 C 
ATOM     30  C   UNL     1       6.224  -5.616  20.928  0.00  0.00    +0.027 C 
ENDBRANCH  26  29
ENDBRANCH   1  26
TORSDOF 6
ENDMDL
MODEL 8
REMARK VINA RESULT:      -6.7      2.793      6.596
REMARK  Name = 
REMARK  8 active torsions:
REMARK  status: ('A' for Active; 'I' for Inactive)
REMARK    1  A    between atoms: C_1  and  C_2
REMARK    2  A    between atoms: C_2  and  C_3
REMARK    3  A    between atoms: C_2  and  N_4
REMARK    4  A    between atoms: N_4  and  C_5
REMARK    5  A    between atoms: C_14  and  N_18
REMARK    6  A    between atoms: C_21  and  C_22
REMARK    7  A    between atoms: C_22  and  C_23
REMARK    8  A    between atoms: C_23  and  O_24
REMARK                            x       y       z     vdW  Elec       q    Type
REMARK                         _______ _______ _______ _____ _____    ______ ____
ROOT
ATOM      1  C   UNL     1       6.798  -5.138  27.305  0.00  0.00    +0.029 A 
ATOM      2  C   UNL     1       6.230  -5.924  28.315  0.00  0.00    +0.024 A 
ATOM      3  C   UNL     1       5.212  -5.439  29.151  0.00  0.00    +0.013 A 
ATOM      4  C   UNL     1       4.722  -4.143  28.935  0.00  0.00    +0.020 A 
ATOM      5  C   UNL     1       3.717  -3.338  29.503  0.00  0.00    +0.143 A 
ATOM      6  N   UNL     1       3.567  -2.173  28.871  0.00  0.00    -0.172 NA
ATOM      7  N   UNL     1       4.562  -2.169  27.935  0.00  0.00    -0.212 N 
ATOM      8  C   UNL     1       4.786  -1.023  27.120  0.00  0.00    +0.175 A 
ATOM      9  C   UNL     1       3.747  -0.116  26.961  0.00  0.00    +0.159 A 
ATOM     10  N   UNL     1       3.857   0.986  26.178  0.00  0.00    -0.256 NA
ATOM     11  C   UNL     1       5.068   1.176  25.596  0.00  0.00    +0.157 A 
ATOM     12  C   UNL     1       6.138   0.304  25.780  0.00  0.00    +0.158 A 
ATOM     13  N   UNL     1       6.000  -0.830  26.522  0.00  0.00    -0.207 NA
ATOM     14  C   UNL     1       5.261  -3.368  27.915  0.00  0.00    +0.078 A 
ATOM     15  C   UNL     1       6.274  -3.860  27.071  0.00  0.00    +0.051 A 
ENDROOT
BRANCH  12  16
ATOM     16  N   UNL     1       7.423   0.608  25.235  0.00  0.00    -0.307 N 
ATOM     17  C   UNL     1       8.239  -0.293  24.566  0.00  0.00    +0.097 A 
ATOM     18  C   UNL     1       9.413   0.330  24.177  0.00  0.00    -0.019 A 
ATOM     19  C   UNL     1       9.320   1.665  24.647  0.00  0.00    +0.023 A 
ATOM     20  C   UNL     1       8.104   1.808  25.281  0.00  0.00    +0.093 A 
BRANCH  18  21
ATOM     21  C   UNL     1      10.531  -0.255  23.358  0.00  0.00    +0.157 C 
BRANCH  21  22
ATOM     22  C   UNL     1      10.237  -1.518  22.569  0.00  0.00    +0.309 C 
ATOM     23  O   UNL     1      10.377  -2.638  23.058  0.00  0.00    -0.251 OA
BRANCH  22  24
ATOM     24  O   UNL     1       9.817  -1.360  21.296  0.00  0.00    -0.480 OA
ATOM     25  H   UNL     1       8.849  -1.356  21.183  0.00  0.00    +0.295 HD
ENDBRANCH  22  24
ENDBRANCH  21  22
ENDBRANCH  18  21
ENDBRANCH  12  16
BRANCH   1  26
ATOM     26  N   UNL     1       7.809  -5.692  26.507  0.00  0.00    -0.341 N 
ATOM     27  H   UNL     1       8.476  -6.221  27.065  0.00  0.00    +0.146 HD
BRANCH  26  29
ATOM     28  C   UNL     1       9.984  -5.100  25.484  0.00  0.00    +0.027 C 
ATOM     29  C   UNL     1       8.472  -4.855  25.498  0.00  0.00    +0.064 C 
ATOM     30  C   UNL     1       7.886  -5.199  24.127  0.00  0.00    +0.027 C 
ENDBRANCH  26  29
ENDBRANCH   1  26
TORSDOF 6
ENDMDL
MODEL 9
REMARK VINA RESULT:      -6.7      2.435      4.864
REMARK  Name = 
REMARK  8 active torsions:
REMARK  status: ('A' for Active; 'I' for Inactive)
REMARK    1  A    between atoms: C_1  and  C_2
REMARK    2  A    between atoms: C_2  and  C_3
REMARK    3  A    between atoms: C_2  and  N_4
REMARK    4  A    between atoms: N_4  and  C_5
REMARK    5  A    between atoms: C_14  and  N_18
REMARK    6  A    between atoms: C_21  and  C_22
REMARK    7  A    between atoms: C_22  and  C_23
REMARK    8  A    between atoms: C_23  and  O_24
REMARK                            x       y       z     vdW  Elec       q    Type
REMARK                         _______ _______ _______ _____ _____    ______ ____
ROOT
ATOM      1  C   UNL     1       9.325  -1.872  23.396  0.00  0.00    +0.029 A 
ATOM      2  C   UNL     1       9.952  -1.373  22.247  0.00  0.00    +0.024 A 
ATOM      3  C   UNL     1       9.498  -0.215  21.597  0.00  0.00    +0.013 A 
ATOM      4  C   UNL     1       8.413   0.485  22.144  0.00  0.00    +0.020 A 
ATOM      5  C   UNL     1       7.715   1.667  21.832  0.00  0.00    +0.143 A 
ATOM      6  N   UNL     1       6.783   1.973  22.736  0.00  0.00    -0.172 NA
ATOM      7  N   UNL     1       6.799   0.918  23.605  0.00  0.00    -0.212 N 
ATOM      8  C   UNL     1       5.853   0.838  24.666  0.00  0.00    +0.175 A 
ATOM      9  C   UNL     1       5.235   2.009  25.085  0.00  0.00    +0.159 A 
ATOM     10  N   UNL     1       4.347   2.035  26.110  0.00  0.00    -0.256 NA
ATOM     11  C   UNL     1       4.060   0.834  26.671  0.00  0.00    +0.157 A 
ATOM     12  C   UNL     1       4.633  -0.358  26.236  0.00  0.00    +0.158 A 
ATOM     13  N   UNL     1       5.567  -0.367  25.245  0.00  0.00    -0.207 NA
ATOM     14  C   UNL     1       7.805   0.011  23.302  0.00  0.00    +0.078 A 
ATOM     15  C   UNL     1       8.268  -1.145  23.958  0.00  0.00    +0.051 A 
ENDROOT
BRANCH  12  16
ATOM     16  N   UNL     1       4.215  -1.607  26.788  0.00  0.00    -0.307 N 
ATOM     17  C   UNL     1       5.045  -2.694  27.022  0.00  0.00    +0.097 A 
ATOM     18  C   UNL     1       4.314  -3.743  27.556  0.00  0.00    -0.019 A 
ATOM     19  C   UNL     1       2.974  -3.284  27.631  0.00  0.00    +0.023 A 
ATOM     20  C   UNL     1       2.942  -1.987  27.164  0.00  0.00    +0.093 A 
BRANCH  18  21
ATOM     21  C   UNL     1       4.833  -5.071  28.033  0.00  0.00    +0.157 C 
BRANCH  21  22
ATOM     22  C   UNL     1       6.068  -5.628  27.348  0.00  0.00    +0.309 C 
ATOM     23  O   UNL     1       5.993  -6.316  26.330  0.00  0.00    -0.251 OA
BRANCH  22  24
ATOM     24  O   UNL     1       7.262  -5.341  27.909  0.00  0.00    -0.480 OA
ATOM     25  H   UNL     1       7.246  -4.604  28.547  0.00  0.00    +0.295 HD
ENDBRANCH  22  24
ENDBRANCH  21  22
ENDBRANCH  18  21
ENDBRANCH  12  16
BRANCH   1  26
ATOM     26  N   UNL     1       9.836  -3.034  23.992  0.00  0.00    -0.341 N 
ATOM     27  H   UNL     1      10.475  -3.523  23.369  0.00  0.00    +0.146 HD
BRANCH  26  29
ATOM     28  C   UNL     1       8.024  -4.691  23.684  0.00  0.00    +0.027 C 
ATOM     29  C   UNL     1       8.922  -3.954  24.682  0.00  0.00    +0.064 C 
ATOM     30  C   UNL     1       9.759  -4.969  25.463  0.00  0.00    +0.027 C 
ENDBRANCH  26  29
ENDBRANCH   1  26
TORSDOF 6
ENDMDL
