MODEL 1
REMARK VINA RESULT:      -6.3      0.000      0.000
REMARK  Name = 
REMARK  9 active torsions:
REMARK  status: ('A' for Active; 'I' for Inactive)
REMARK    1  A    between atoms: O_1  and  C_2
REMARK    2  A    between atoms: C_2  and  C_4
REMARK    3  A    between atoms: C_8  and  C_9
REMARK    4  A    between atoms: N_10  and  O_11
REMARK    5  A    between atoms: O_11  and  C_12
REMARK    6  A    between atoms: C_12  and  C_13
REMARK    7  A    between atoms: C_13  and  O_14
REMARK    8  A    between atoms: O_14  and  N_15
REMARK    9  A    between atoms: C_16  and  C_17
REMARK                            x       y       z     vdW  Elec       q    Type
REMARK                         _______ _______ _______ _____ _____    ______ ____
ROOT
ATOM      1  C   UNL     1       7.962   0.790  23.341  0.00  0.00    +0.306 C 
ENDROOT
BRANCH   1   2
ATOM      2  O   UNL     1       6.721   0.116  23.096  0.00  0.00    -0.390 OA
BRANCH   2   4
ATOM      3  C   UNL     1       6.137  -1.990  23.284  0.00  0.00    +0.160 C 
ATOM      4  N   UNL     1       6.995  -1.205  22.718  0.00  0.00    -0.092 NA
BRANCH   3   7
ATOM      5  C   UNL     1       5.512  -5.688  23.578  0.00  0.00    +0.059 A 
ATOM      6  C   UNL     1       5.451  -4.315  23.826  0.00  0.00    +0.024 A 
ATOM      7  C   UNL     1       6.111  -3.428  22.968  0.00  0.00    -0.003 A 
ATOM      8  C   UNL     1       6.804  -3.900  21.851  0.00  0.00    +0.009 A 
ATOM      9  C   UNL     1       6.831  -5.269  21.585  0.00  0.00    +0.001 A 
ATOM     10  C   UNL     1       6.188  -6.163  22.447  0.00  0.00    +0.015 A 
BRANCH   5  11
ATOM     11  C   UNL     1       4.862  -6.669  24.480  0.00  0.00    +0.337 C 
ATOM     12  O   UNL     1       5.039  -6.674  25.685  0.00  0.00    -0.245 OA
BRANCH  11  13
ATOM     13  O   UNL     1       4.018  -7.516  23.852  0.00  0.00    -0.477 OA
ATOM     14  H   UNL     1       3.270  -7.101  23.385  0.00  0.00    +0.295 HD
ENDBRANCH  11  13
ENDBRANCH   5  11
ENDBRANCH   3   7
ENDBRANCH   2   4
ENDBRANCH   1   2
BRANCH   1  15
ATOM     15  C   UNL     1       8.273   0.863  24.834  0.00  0.00    +0.306 C 
BRANCH  15  16
ATOM     16  O   UNL     1       9.585   0.341  25.071  0.00  0.00    -0.390 OA
BRANCH  16  17
ATOM     17  N   UNL     1       9.563  -1.047  24.859  0.00  0.00    -0.091 NA
ATOM     18  C   UNL     1       8.860  -1.594  25.798  0.00  0.00    +0.178 C 
BRANCH  18  19
ATOM     19  C   UNL     1       8.634  -3.058  25.866  0.00  0.00    +0.070 A 
ATOM     20  N   UNL     1       7.899  -3.557  26.905  0.00  0.00    -0.306 N 
ATOM     21  H   UNL     1       7.531  -2.912  27.598  0.00  0.00    +0.170 HD
ATOM     22  C   UNL     1       7.631  -4.885  27.070  0.00  0.00    +0.327 A 
ATOM     23  O   UNL     1       6.970  -5.309  28.009  0.00  0.00    -0.247 OA
ATOM     24  N   UNL     1       8.153  -5.711  26.113  0.00  0.00    -0.275 N 
ATOM     25  H   UNL     1       7.968  -6.697  26.208  0.00  0.00    +0.173 HD
ATOM     26  C   UNL     1       8.889  -5.305  25.036  0.00  0.00    +0.255 A 
ATOM     27  O   UNL     1       9.324  -6.080  24.193  0.00  0.00    -0.268 OA
ATOM     28  C   UNL     1       9.144  -3.856  24.925  0.00  0.00    +0.097 A 
ENDBRANCH  18  19
ENDBRANCH  16  17
ENDBRANCH  15  16
ENDBRANCH   1  15
TORSDOF 9
ENDMDL
MODEL 2
REMARK VINA RESULT:      -6.3      4.027      8.323
REMARK  Name = 
REMARK  9 active torsions:
REMARK  status: ('A' for Active; 'I' for Inactive)
REMARK    1  A    between atoms: O_1  and  C_2
REMARK    2  A    between atoms: C_2  and  C_4
REMARK    3  A    between atoms: C_8  and  C_9
REMARK    4  A    between atoms: N_10  and  O_11
REMARK    5  A    between atoms: O_11  and  C_12
REMARK    6  A    between atoms: C_12  and  C_13
REMARK    7  A    between atoms: C_13  and  O_14
REMARK    8  A    between atoms: O_14  and  N_15
REMARK    9  A    between atoms: C_16  and  C_17
REMARK                            x       y       z     vdW  Elec       q    Type
REMARK                         _______ _______ _______ _____ _____    ______ ____
ROOT
ATOM      1  C   UNL     1       9.459  -0.247  23.755  0.00  0.00    +0.306 C 
ENDROOT
BRANCH   1   2
ATOM      2  O   UNL     1       8.624   0.336  22.747  0.00  0.00    -0.390 OA
BRANCH   2   4
ATOM      3  C   UNL     1       9.397   2.180  23.651  0.00  0.00    +0.160 C 
ATOM      4  N   UNL     1       9.047   1.653  22.522  0.00  0.00    -0.092 NA
BRANCH   3   7
ATOM      5  C   UNL     1      11.858   4.994  23.228  0.00  0.00    +0.059 A 
ATOM      6  C   UNL     1      11.243   3.747  23.096  0.00  0.00    +0.024 A 
ATOM      7  C   UNL     1      10.000   3.523  23.699  0.00  0.00    -0.003 A 
ATOM      8  C   UNL     1       9.356   4.542  24.404  0.00  0.00    +0.009 A 
ATOM      9  C   UNL     1       9.956   5.798  24.500  0.00  0.00    +0.001 A 
ATOM     10  C   UNL     1      11.206   6.024  23.916  0.00  0.00    +0.015 A 
BRANCH   5  11
ATOM     11  C   UNL     1      13.193   5.266  22.641  0.00  0.00    +0.337 C 
ATOM     12  O   UNL     1      13.337   5.795  21.552  0.00  0.00    -0.245 OA
BRANCH  11  13
ATOM     13  O   UNL     1      14.225   4.926  23.442  0.00  0.00    -0.477 OA
ATOM     14  H   UNL     1      15.056   4.695  22.989  0.00  0.00    +0.295 HD
ENDBRANCH  11  13
ENDBRANCH   5  11
ENDBRANCH   3   7
ENDBRANCH   2   4
ENDBRANCH   1   2
BRANCH   1  15
ATOM     15  C   UNL     1      10.013  -1.598  23.309  0.00  0.00    +0.306 C 
BRANCH  15  16
ATOM     16  O   UNL     1       9.834  -2.555  24.359  0.00  0.00    -0.390 OA
BRANCH  16  17
ATOM     17  N   UNL     1       9.212  -3.697  23.828  0.00  0.00    -0.091 NA
ATOM     18  C   UNL     1       7.937  -3.480  23.771  0.00  0.00    +0.178 C 
BRANCH  18  19
ATOM     19  C   UNL     1       6.986  -4.491  23.250  0.00  0.00    +0.070 A 
ATOM     20  N   UNL     1       6.898  -4.668  21.898  0.00  0.00    -0.306 N 
ATOM     21  H   UNL     1       7.485  -4.103  21.291  0.00  0.00    +0.170 HD
ATOM     22  C   UNL     1       6.056  -5.565  21.307  0.00  0.00    +0.327 A 
ATOM     23  O   UNL     1       5.995  -5.706  20.092  0.00  0.00    -0.247 OA
ATOM     24  N   UNL     1       5.284  -6.297  22.167  0.00  0.00    -0.275 N 
ATOM     25  H   UNL     1       4.655  -6.970  21.759  0.00  0.00    +0.173 HD
ATOM     26  C   UNL     1       5.309  -6.197  23.529  0.00  0.00    +0.255 A 
ATOM     27  O   UNL     1       4.611  -6.886  24.262  0.00  0.00    -0.268 OA
ATOM     28  C   UNL     1       6.239  -5.203  24.097  0.00  0.00    +0.097 A 
ENDBRANCH  18  19
ENDBRANCH  16  17
ENDBRANCH  15  16
ENDBRANCH   1  15
TORSDOF 9
ENDMDL
MODEL 3
REMARK VINA RESULT:      -6.1      3.799      7.994
REMARK  Name = 
REMARK  9 active torsions:
REMARK  status: ('A' for Active; 'I' for Inactive)
REMARK    1  A    between atoms: O_1  and  C_2
REMARK    2  A    between atoms: C_2  and  C_4
REMARK    3  A    between atoms: C_8  and  C_9
REMARK    4  A    between atoms: N_10  and  O_11
REMARK    5  A    between atoms: O_11  and  C_12
REMARK    6  A    between atoms: C_12  and  C_13
REMARK    7  A    between atoms: C_13  and  O_14
REMARK    8  A    between atoms: O_14  and  N_15
REMARK    9  A    between atoms: C_16  and  C_17
REMARK                            x       y       z     vdW  Elec       q    Type
REMARK                         _______ _______ _______ _____ _____    ______ ____
ROOT
ATOM      1  C   UNL     1       9.024  -0.320  22.352  0.00  0.00    +0.306 C 
ENDROOT
BRANCH   1   2
ATOM      2  O   UNL     1       8.601   0.139  23.642  0.00  0.00    -0.390 OA
BRANCH   2   4
ATOM      3  C   UNL     1       9.907   1.897  23.767  0.00  0.00    +0.160 C 
ATOM      4  N   UNL     1       8.668   1.538  23.664  0.00  0.00    -0.092 NA
BRANCH   3   7
ATOM      5  C   UNL     1      11.936   5.013  23.198  0.00  0.00    +0.059 A 
ATOM      6  C   UNL     1      11.538   3.675  23.177  0.00  0.00    +0.024 A 
ATOM      7  C   UNL     1      10.287   3.317  23.691  0.00  0.00    -0.003 A 
ATOM      8  C   UNL     1       9.421   4.289  24.197  0.00  0.00    +0.009 A 
ATOM      9  C   UNL     1       9.806   5.630  24.181  0.00  0.00    +0.001 A 
ATOM     10  C   UNL     1      11.061   5.993  23.685  0.00  0.00    +0.015 A 
BRANCH   5  11
ATOM     11  C   UNL     1      13.268   5.435  22.700  0.00  0.00    +0.337 C 
ATOM     12  O   UNL     1      13.408   6.246  21.802  0.00  0.00    -0.245 OA
BRANCH  11  13
ATOM     13  O   UNL     1      14.303   4.882  23.368  0.00  0.00    -0.477 OA
ATOM     14  H   UNL     1      14.455   3.933  23.204  0.00  0.00    +0.295 HD
ENDBRANCH  11  13
ENDBRANCH   5  11
ENDBRANCH   3   7
ENDBRANCH   2   4
ENDBRANCH   1   2
BRANCH   1  15
ATOM     15  C   UNL     1       9.333  -1.816  22.365  0.00  0.00    +0.306 C 
BRANCH  15  16
ATOM     16  O   UNL     1      10.032  -2.145  23.570  0.00  0.00    -0.390 OA
BRANCH  16  17
ATOM     17  N   UNL     1       9.523  -3.354  24.071  0.00  0.00    -0.091 NA
ATOM     18  C   UNL     1       8.394  -3.112  24.658  0.00  0.00    +0.178 C 
BRANCH  18  19
ATOM     19  C   UNL     1       7.588  -4.181  25.294  0.00  0.00    +0.070 A 
ATOM     20  N   UNL     1       6.605  -4.781  24.559  0.00  0.00    -0.306 N 
ATOM     21  H   UNL     1       6.456  -4.478  23.601  0.00  0.00    +0.170 HD
ATOM     22  C   UNL     1       5.800  -5.772  25.042  0.00  0.00    +0.327 A 
ATOM     23  O   UNL     1       4.925  -6.296  24.364  0.00  0.00    -0.247 OA
ATOM     24  N   UNL     1       6.038  -6.140  26.337  0.00  0.00    -0.275 N 
ATOM     25  H   UNL     1       5.461  -6.872  26.719  0.00  0.00    +0.173 HD
ATOM     26  C   UNL     1       7.002  -5.606  27.145  0.00  0.00    +0.255 A 
ATOM     27  O   UNL     1       7.191  -5.979  28.296  0.00  0.00    -0.268 OA
ATOM     28  C   UNL     1       7.830  -4.536  26.558  0.00  0.00    +0.097 A 
ENDBRANCH  18  19
ENDBRANCH  16  17
ENDBRANCH  15  16
ENDBRANCH   1  15
TORSDOF 9
ENDMDL
MODEL 4
REMARK VINA RESULT:      -6.0      3.690      7.887
REMARK  Name = 
REMARK  9 active torsions:
REMARK  status: ('A' for Active; 'I' for Inactive)
REMARK    1  A    between atoms: O_1  and  C_2
REMARK    2  A    between atoms: C_2  and  C_4
REMARK    3  A    between atoms: C_8  and  C_9
REMARK    4  A    between atoms: N_10  and  O_11
REMARK    5  A    between atoms: O_11  and  C_12
REMARK    6  A    between atoms: C_12  and  C_13
REMARK    7  A    between atoms: C_13  and  O_14
REMARK    8  A    between atoms: O_14  and  N_15
REMARK    9  A    between atoms: C_16  and  C_17
REMARK                            x       y       z     vdW  Elec       q    Type
REMARK                         _______ _______ _______ _____ _____    ______ ____
ROOT
ATOM      1  C   UNL     1       9.098  -0.471  23.205  0.00  0.00    +0.306 C 
ENDROOT
BRANCH   1   2
ATOM      2  O   UNL     1       8.228   0.305  24.039  0.00  0.00    -0.390 OA
BRANCH   2   4
ATOM      3  C   UNL     1       9.487   2.089  24.257  0.00  0.00    +0.160 C 
ATOM      4  N   UNL     1       8.392   1.659  23.719  0.00  0.00    -0.092 NA
BRANCH   3   7
ATOM      5  C   UNL     1      11.730   4.926  23.224  0.00  0.00    +0.059 A 
ATOM      6  C   UNL     1      11.227   3.634  23.390  0.00  0.00    +0.024 A 
ATOM      7  C   UNL     1       9.974   3.451  23.985  0.00  0.00    -0.003 A 
ATOM      8  C   UNL     1       9.209   4.549  24.386  0.00  0.00    +0.009 A 
ATOM      9  C   UNL     1       9.697   5.840  24.183  0.00  0.00    +0.001 A 
ATOM     10  C   UNL     1      10.956   6.030  23.605  0.00  0.00    +0.015 A 
BRANCH   5  11
ATOM     11  C   UNL     1      13.069   5.168  22.635  0.00  0.00    +0.337 C 
ATOM     12  O   UNL     1      13.223   5.615  21.512  0.00  0.00    -0.245 OA
BRANCH  11  13
ATOM     13  O   UNL     1      14.094   4.900  23.473  0.00  0.00    -0.477 OA
ATOM     14  H   UNL     1      13.846   4.691  24.392  0.00  0.00    +0.295 HD
ENDBRANCH  11  13
ENDBRANCH   5  11
ENDBRANCH   3   7
ENDBRANCH   2   4
ENDBRANCH   1   2
BRANCH   1  15
ATOM     15  C   UNL     1       9.928  -1.455  24.026  0.00  0.00    +0.306 C 
BRANCH  15  16
ATOM     16  O   UNL     1       9.938  -2.729  23.373  0.00  0.00    -0.390 OA
BRANCH  16  17
ATOM     17  N   UNL     1       9.425  -3.693  24.255  0.00  0.00    -0.091 NA
ATOM     18  C   UNL     1       8.139  -3.738  24.109  0.00  0.00    +0.178 C 
BRANCH  18  19
ATOM     19  C   UNL     1       7.286  -4.663  24.895  0.00  0.00    +0.070 A 
ATOM     20  N   UNL     1       7.629  -4.921  26.193  0.00  0.00    -0.306 N 
ATOM     21  H   UNL     1       8.455  -4.474  26.580  0.00  0.00    +0.170 HD
ATOM     22  C   UNL     1       6.922  -5.757  27.007  0.00  0.00    +0.327 A 
ATOM     23  O   UNL     1       7.248  -5.974  28.168  0.00  0.00    -0.247 OA
ATOM     24  N   UNL     1       5.823  -6.338  26.437  0.00  0.00    -0.275 N 
ATOM     25  H   UNL     1       5.280  -6.958  27.017  0.00  0.00    +0.173 HD
ATOM     26  C   UNL     1       5.398  -6.134  25.155  0.00  0.00    +0.255 A 
ATOM     27  O   UNL     1       4.396  -6.664  24.691  0.00  0.00    -0.268 OA
ATOM     28  C   UNL     1       6.214  -5.223  24.331  0.00  0.00    +0.097 A 
ENDBRANCH  18  19
ENDBRANCH  16  17
ENDBRANCH  15  16
ENDBRANCH   1  15
TORSDOF 9
ENDMDL
MODEL 5
REMARK VINA RESULT:      -5.9      3.515      6.594
REMARK  Name = 
REMARK  9 active torsions:
REMARK  status: ('A' for Active; 'I' for Inactive)
REMARK    1  A    between atoms: O_1  and  C_2
REMARK    2  A    between atoms: C_2  and  C_4
REMARK    3  A    between atoms: C_8  and  C_9
REMARK    4  A    between atoms: N_10  and  O_11
REMARK    5  A    between atoms: O_11  and  C_12
REMARK    6  A    between atoms: C_12  and  C_13
REMARK    7  A    between atoms: C_13  and  O_14
REMARK    8  A    between atoms: O_14  and  N_15
REMARK    9  A    between atoms: C_16  and  C_17
REMARK                            x       y       z     vdW  Elec       q    Type
REMARK                         _______ _______ _______ _____ _____    ______ ____
ROOT
ATOM      1  C   UNL     1       9.509  -1.929  22.888  0.00  0.00    +0.306 C 
ENDROOT
BRANCH   1   2
ATOM      2  O   UNL     1      10.362  -2.855  23.571  0.00  0.00    -0.390 OA
BRANCH   2   4
ATOM      3  C   UNL     1       8.382  -3.729  23.929  0.00  0.00    +0.160 C 
ATOM      4  N   UNL     1       9.577  -3.647  24.418  0.00  0.00    -0.092 NA
BRANCH   3   7
ATOM      5  C   UNL     1       5.305  -5.843  24.394  0.00  0.00    +0.059 A 
ATOM      6  C   UNL     1       6.314  -5.098  23.781  0.00  0.00    +0.024 A 
ATOM      7  C   UNL     1       7.373  -4.602  24.551  0.00  0.00    -0.003 A 
ATOM      8  C   UNL     1       7.445  -4.871  25.919  0.00  0.00    +0.009 A 
ATOM      9  C   UNL     1       6.455  -5.649  26.521  0.00  0.00    +0.001 A 
ATOM     10  C   UNL     1       5.385  -6.133  25.762  0.00  0.00    +0.015 A 
BRANCH   5  11
ATOM     11  C   UNL     1       4.144  -6.356  23.627  0.00  0.00    +0.337 C 
ATOM     12  O   UNL     1       3.570  -5.694  22.780  0.00  0.00    -0.245 OA
BRANCH  11  13
ATOM     13  O   UNL     1       3.819  -7.635  23.913  0.00  0.00    -0.477 OA
ATOM     14  H   UNL     1       3.469  -7.794  24.809  0.00  0.00    +0.295 HD
ENDBRANCH  11  13
ENDBRANCH   5  11
ENDBRANCH   3   7
ENDBRANCH   2   4
ENDBRANCH   1   2
BRANCH   1  15
ATOM     15  C   UNL     1      10.013  -0.495  23.031  0.00  0.00    +0.306 C 
BRANCH  15  16
ATOM     16  O   UNL     1      10.456  -0.280  24.375  0.00  0.00    -0.390 OA
BRANCH  16  17
ATOM     17  N   UNL     1      10.370   1.091  24.665  0.00  0.00    -0.091 NA
ATOM     18  C   UNL     1      10.519   1.753  23.563  0.00  0.00    +0.178 C 
BRANCH  18  19
ATOM     19  C   UNL     1      10.475   3.235  23.518  0.00  0.00    +0.070 A 
ATOM     20  N   UNL     1      11.636   3.914  23.277  0.00  0.00    -0.306 N 
ATOM     21  H   UNL     1      12.492   3.386  23.135  0.00  0.00    +0.170 HD
ATOM     22  C   UNL     1      11.715   5.275  23.218  0.00  0.00    +0.327 A 
ATOM     23  O   UNL     1      12.768   5.862  23.000  0.00  0.00    -0.247 OA
ATOM     24  N   UNL     1      10.537   5.939  23.420  0.00  0.00    -0.275 N 
ATOM     25  H   UNL     1      10.566   6.946  23.379  0.00  0.00    +0.173 HD
ATOM     26  C   UNL     1       9.329   5.348  23.658  0.00  0.00    +0.255 A 
ATOM     27  O   UNL     1       8.294   5.984  23.817  0.00  0.00    -0.268 OA
ATOM     28  C   UNL     1       9.320   3.874  23.713  0.00  0.00    +0.097 A 
ENDBRANCH  18  19
ENDBRANCH  16  17
ENDBRANCH  15  16
ENDBRANCH   1  15
TORSDOF 9
ENDMDL
MODEL 6
REMARK VINA RESULT:      -5.9      3.687      6.842
REMARK  Name = 
REMARK  9 active torsions:
REMARK  status: ('A' for Active; 'I' for Inactive)
REMARK    1  A    between atoms: O_1  and  C_2
REMARK    2  A    between atoms: C_2  and  C_4
REMARK    3  A    between atoms: C_8  and  C_9
REMARK    4  A    between atoms: N_10  and  O_11
REMARK    5  A    between atoms: O_11  and  C_12
REMARK    6  A    between atoms: C_12  and  C_13
REMARK    7  A    between atoms: C_13  and  O_14
REMARK    8  A    between atoms: O_14  and  N_15
REMARK    9  A    between atoms: C_16  and  C_17
REMARK                            x       y       z     vdW  Elec       q    Type
REMARK                         _______ _______ _______ _____ _____    ______ ____
ROOT
ATOM      1  C   UNL     1       9.689  -1.757  23.833  0.00  0.00    +0.306 C 
ENDROOT
BRANCH   1   2
ATOM      2  O   UNL     1      10.274  -3.065  23.825  0.00  0.00    -0.390 OA
BRANCH   2   4
ATOM      3  C   UNL     1       8.219  -3.720  24.227  0.00  0.00    +0.160 C 
ATOM      4  N   UNL     1       9.452  -3.929  24.560  0.00  0.00    -0.092 NA
BRANCH   3   7
ATOM      5  C   UNL     1       6.174  -5.817  26.587  0.00  0.00    +0.059 A 
ATOM      6  C   UNL     1       7.138  -4.927  26.109  0.00  0.00    +0.024 A 
ATOM      7  C   UNL     1       7.143  -4.574  24.755  0.00  0.00    -0.003 A 
ATOM      8  C   UNL     1       6.175  -5.080  23.884  0.00  0.00    +0.009 A 
ATOM      9  C   UNL     1       5.189  -5.939  24.373  0.00  0.00    +0.001 A 
ATOM     10  C   UNL     1       5.190  -6.309  25.721  0.00  0.00    +0.015 A 
BRANCH   5  11
ATOM     11  C   UNL     1       6.152  -6.250  28.005  0.00  0.00    +0.337 C 
ATOM     12  O   UNL     1       6.554  -5.546  28.914  0.00  0.00    -0.245 OA
BRANCH  11  13
ATOM     13  O   UNL     1       5.600  -7.467  28.199  0.00  0.00    -0.477 OA
ATOM     14  H   UNL     1       5.431  -7.713  29.127  0.00  0.00    +0.295 HD
ENDBRANCH  11  13
ENDBRANCH   5  11
ENDBRANCH   3   7
ENDBRANCH   2   4
ENDBRANCH   1   2
BRANCH   1  15
ATOM     15  C   UNL     1      10.108  -0.949  22.607  0.00  0.00    +0.306 C 
BRANCH  15  16
ATOM     16  O   UNL     1       9.303   0.231  22.520  0.00  0.00    -0.390 OA
BRANCH  16  17
ATOM     17  N   UNL     1      10.147   1.354  22.525  0.00  0.00    -0.091 NA
ATOM     18  C   UNL     1       9.589   2.283  23.232  0.00  0.00    +0.178 C 
BRANCH  18  19
ATOM     19  C   UNL     1      10.225   3.606  23.444  0.00  0.00    +0.070 A 
ATOM     20  N   UNL     1      11.573   3.719  23.249  0.00  0.00    -0.306 N 
ATOM     21  H   UNL     1      12.097   2.897  22.966  0.00  0.00    +0.170 HD
ATOM     22  C   UNL     1      12.264   4.884  23.418  0.00  0.00    +0.327 A 
ATOM     23  O   UNL     1      13.472   4.962  23.237  0.00  0.00    -0.247 OA
ATOM     24  N   UNL     1      11.513   5.959  23.805  0.00  0.00    -0.275 N 
ATOM     25  H   UNL     1      11.997   6.834  23.935  0.00  0.00    +0.173 HD
ATOM     26  C   UNL     1      10.163   5.945  24.014  0.00  0.00    +0.255 A 
ATOM     27  O   UNL     1       9.527   6.938  24.345  0.00  0.00    -0.268 OA
ATOM     28  C   UNL     1       9.483   4.651  23.818  0.00  0.00    +0.097 A 
ENDBRANCH  18  19
ENDBRANCH  16  17
ENDBRANCH  15  16
ENDBRANCH   1  15
TORSDOF 9
ENDMDL
MODEL 7
REMARK VINA RESULT:      -5.9      1.543      2.627
REMARK  Name = 
REMARK  9 active torsions:
REMARK  status: ('A' for Active; 'I' for Inactive)
REMARK    1  A    between atoms: O_1  and  C_2
REMARK    2  A    between atoms: C_2  and  C_4
REMARK    3  A    between atoms: C_8  and  C_9
REMARK    4  A    between atoms: N_10  and  O_11
REMARK    5  A    between atoms: O_11  and  C_12
REMARK    6  A    between atoms: C_12  and  C_13
REMARK    7  A    between atoms: C_13  and  O_14
REMARK    8  A    between atoms: O_14  and  N_15
REMARK    9  A    between atoms: C_16  and  C_17
REMARK                            x       y       z     vdW  Elec       q    Type
REMARK                         _______ _______ _______ _____ _____    ______ ____
ROOT
ATOM      1  C   UNL     1       8.533   1.539  23.740  0.00  0.00    +0.306 C 
ENDROOT
BRANCH   1   2
ATOM      2  O   UNL     1       7.442   1.216  22.868  0.00  0.00    -0.390 OA
BRANCH   2   4
ATOM      3  C   UNL     1       6.793  -0.854  22.543  0.00  0.00    +0.160 C 
ATOM      4  N   UNL     1       6.755   0.117  23.398  0.00  0.00    -0.092 NA
BRANCH   3   7
ATOM      5  C   UNL     1       5.877  -4.495  22.306  0.00  0.00    +0.059 A 
ATOM      6  C   UNL     1       6.473  -3.263  22.029  0.00  0.00    +0.024 A 
ATOM      7  C   UNL     1       6.253  -2.180  22.887  0.00  0.00    -0.003 A 
ATOM      8  C   UNL     1       5.467  -2.327  24.032  0.00  0.00    +0.009 A 
ATOM      9  C   UNL     1       4.904  -3.570  24.326  0.00  0.00    +0.001 A 
ATOM     10  C   UNL     1       5.106  -4.651  23.464  0.00  0.00    +0.015 A 
BRANCH   5  11
ATOM     11  C   UNL     1       6.050  -5.661  21.405  0.00  0.00    +0.337 C 
ATOM     12  O   UNL     1       5.980  -5.571  20.192  0.00  0.00    -0.245 OA
BRANCH  11  13
ATOM     13  O   UNL     1       6.344  -6.811  22.049  0.00  0.00    -0.477 OA
ATOM     14  H   UNL     1       5.833  -7.594  21.773  0.00  0.00    +0.295 HD
ENDBRANCH  11  13
ENDBRANCH   5  11
ENDBRANCH   3   7
ENDBRANCH   2   4
ENDBRANCH   1   2
BRANCH   1  15
ATOM     15  C   UNL     1       9.845   0.939  23.238  0.00  0.00    +0.306 C 
BRANCH  15  16
ATOM     16  O   UNL     1      10.459   0.193  24.295  0.00  0.00    -0.390 OA
BRANCH  16  17
ATOM     17  N   UNL     1      10.064  -1.150  24.187  0.00  0.00    -0.091 NA
ATOM     18  C   UNL     1       9.412  -1.473  25.258  0.00  0.00    +0.178 C 
BRANCH  18  19
ATOM     19  C   UNL     1       8.848  -2.829  25.462  0.00  0.00    +0.070 A 
ATOM     20  N   UNL     1       9.063  -3.776  24.501  0.00  0.00    -0.306 N 
ATOM     21  H   UNL     1       9.600  -3.523  23.677  0.00  0.00    +0.170 HD
ATOM     22  C   UNL     1       8.589  -5.053  24.581  0.00  0.00    +0.327 A 
ATOM     23  O   UNL     1       8.794  -5.885  23.706  0.00  0.00    -0.247 OA
ATOM     24  N   UNL     1       7.867  -5.340  25.706  0.00  0.00    -0.275 N 
ATOM     25  H   UNL     1       7.508  -6.277  25.793  0.00  0.00    +0.173 HD
ATOM     26  C   UNL     1       7.610  -4.465  26.723  0.00  0.00    +0.255 A 
ATOM     27  O   UNL     1       6.971  -4.771  27.723  0.00  0.00    -0.268 OA
ATOM     28  C   UNL     1       8.148  -3.101  26.566  0.00  0.00    +0.097 A 
ENDBRANCH  18  19
ENDBRANCH  16  17
ENDBRANCH  15  16
ENDBRANCH   1  15
TORSDOF 9
ENDMDL
MODEL 8
REMARK VINA RESULT:      -5.7      2.818      5.371
REMARK  Name = 
REMARK  9 active torsions:
REMARK  status: ('A' for Active; 'I' for Inactive)
REMARK    1  A    between atoms: O_1  and  C_2
REMARK    2  A    between atoms: C_2  and  C_4
REMARK    3  A    between atoms: C_8  and  C_9
REMARK    4  A    between atoms: N_10  and  O_11
REMARK    5  A    between atoms: O_11  and  C_12
REMARK    6  A    between atoms: C_12  and  C_13
REMARK    7  A    between atoms: C_13  and  O_14
REMARK    8  A    between atoms: O_14  and  N_15
REMARK    9  A    between atoms: C_16  and  C_17
REMARK                            x       y       z     vdW  Elec       q    Type
REMARK                         _______ _______ _______ _____ _____    ______ ____
ROOT
ATOM      1  C   UNL     1       4.197   0.065  26.911  0.00  0.00    +0.306 C 
ENDROOT
BRANCH   1   2
ATOM      2  O   UNL     1       4.308   1.008  25.838  0.00  0.00    -0.390 OA
BRANCH   2   4
ATOM      3  C   UNL     1       5.783   1.530  24.300  0.00  0.00    +0.160 C 
ATOM      4  N   UNL     1       5.244   0.526  24.913  0.00  0.00    -0.092 NA
BRANCH   3   7
ATOM      5  C   UNL     1       8.468  -0.157  22.275  0.00  0.00    +0.059 A 
ATOM      6  C   UNL     1       7.352   0.028  23.093  0.00  0.00    +0.024 A 
ATOM      7  C   UNL     1       6.894   1.325  23.355  0.00  0.00    -0.003 A 
ATOM      8  C   UNL     1       7.523   2.431  22.782  0.00  0.00    +0.009 A 
ATOM      9  C   UNL     1       8.614   2.240  21.933  0.00  0.00    +0.001 A 
ATOM     10  C   UNL     1       9.088   0.949  21.681  0.00  0.00    +0.015 A 
BRANCH   5  11
ATOM     11  C   UNL     1       9.013  -1.508  22.000  0.00  0.00    +0.337 C 
ATOM     12  O   UNL     1       8.357  -2.525  22.145  0.00  0.00    -0.245 OA
BRANCH  11  13
ATOM     13  O   UNL     1      10.278  -1.504  21.527  0.00  0.00    -0.477 OA
ATOM     14  H   UNL     1      10.510  -2.239  20.930  0.00  0.00    +0.295 HD
ENDBRANCH  11  13
ENDBRANCH   5  11
ENDBRANCH   3   7
ENDBRANCH   2   4
ENDBRANCH   1   2
BRANCH   1  15
ATOM     15  C   UNL     1       4.590  -1.341  26.462  0.00  0.00    +0.306 C 
BRANCH  15  16
ATOM     16  O   UNL     1       3.443  -2.002  25.918  0.00  0.00    -0.390 OA
BRANCH  16  17
ATOM     17  N   UNL     1       3.868  -2.896  24.921  0.00  0.00    -0.091 NA
ATOM     18  C   UNL     1       5.147  -3.061  25.038  0.00  0.00    +0.178 C 
BRANCH  18  19
ATOM     19  C   UNL     1       5.914  -3.954  24.136  0.00  0.00    +0.070 A 
ATOM     20  N   UNL     1       7.149  -4.381  24.537  0.00  0.00    -0.306 N 
ATOM     21  H   UNL     1       7.504  -4.075  25.438  0.00  0.00    +0.170 HD
ATOM     22  C   UNL     1       7.944  -5.199  23.787  0.00  0.00    +0.327 A 
ATOM     23  O   UNL     1       9.048  -5.569  24.168  0.00  0.00    -0.247 OA
ATOM     24  N   UNL     1       7.423  -5.577  22.581  0.00  0.00    -0.275 N 
ATOM     25  H   UNL     1       7.987  -6.184  22.008  0.00  0.00    +0.173 HD
ATOM     26  C   UNL     1       6.198  -5.210  22.101  0.00  0.00    +0.255 A 
ATOM     27  O   UNL     1       5.764  -5.587  21.019  0.00  0.00    -0.268 OA
ATOM     28  C   UNL     1       5.396  -4.320  22.961  0.00  0.00    +0.097 A 
ENDBRANCH  18  19
ENDBRANCH  16  17
ENDBRANCH  15  16
ENDBRANCH   1  15
TORSDOF 9
ENDMDL
MODEL 9
REMARK VINA RESULT:      -5.5      2.843      5.796
REMARK  Name = 
REMARK  9 active torsions:
REMARK  status: ('A' for Active; 'I' for Inactive)
REMARK    1  A    between atoms: O_1  and  C_2
REMARK    2  A    between atoms: C_2  and  C_4
REMARK    3  A    between atoms: C_8  and  C_9
REMARK    4  A    between atoms: N_10  and  O_11
REMARK    5  A    between atoms: O_11  and  C_12
REMARK    6  A    between atoms: C_12  and  C_13
REMARK    7  A    between atoms: C_13  and  O_14
REMARK    8  A    between atoms: O_14  and  N_15
REMARK    9  A    between atoms: C_16  and  C_17
REMARK                            x       y       z     vdW  Elec       q    Type
REMARK                         _______ _______ _______ _____ _____    ______ ____
ROOT
ATOM      1  C   UNL     1       5.652   0.866  27.486  0.00  0.00    +0.306 C 
ENDROOT
BRANCH   1   2
ATOM      2  O   UNL     1       6.994   0.577  27.895  0.00  0.00    -0.390 OA
BRANCH   2   4
ATOM      3  C   UNL     1       7.743   1.322  25.972  0.00  0.00    +0.160 C 
ATOM      4  N   UNL     1       7.759   0.293  26.756  0.00  0.00    -0.092 NA
BRANCH   3   7
ATOM      5  C   UNL     1       9.650   0.177  22.938  0.00  0.00    +0.059 A 
ATOM      6  C   UNL     1       8.789   0.167  24.038  0.00  0.00    +0.024 A 
ATOM      7  C   UNL     1       8.565   1.350  24.751  0.00  0.00    -0.003 A 
ATOM      8  C   UNL     1       9.170   2.545  24.356  0.00  0.00    +0.009 A 
ATOM      9  C   UNL     1       9.999   2.559  23.233  0.00  0.00    +0.001 A 
ATOM     10  C   UNL     1      10.241   1.378  22.527  0.00  0.00    +0.015 A 
BRANCH   5  11
ATOM     11  C   UNL     1       9.948  -1.060  22.175  0.00  0.00    +0.337 C 
ATOM     12  O   UNL     1      10.437  -2.049  22.691  0.00  0.00    -0.245 OA
BRANCH  11  13
ATOM     13  O   UNL     1       9.580  -1.005  20.877  0.00  0.00    -0.477 OA
ATOM     14  H   UNL     1      10.092  -1.567  20.267  0.00  0.00    +0.295 HD
ENDBRANCH  11  13
ENDBRANCH   5  11
ENDBRANCH   3   7
ENDBRANCH   2   4
ENDBRANCH   1   2
BRANCH   1  15
ATOM     15  C   UNL     1       4.826  -0.410  27.338  0.00  0.00    +0.306 C 
BRANCH  15  16
ATOM     16  O   UNL     1       4.299  -0.482  26.009  0.00  0.00    -0.390 OA
BRANCH  16  17
ATOM     17  N   UNL     1       4.656  -1.718  25.447  0.00  0.00    -0.091 NA
ATOM     18  C   UNL     1       5.606  -1.520  24.591  0.00  0.00    +0.178 C 
BRANCH  18  19
ATOM     19  C   UNL     1       6.219  -2.628  23.819  0.00  0.00    +0.070 A 
ATOM     20  N   UNL     1       5.701  -2.933  22.592  0.00  0.00    -0.306 N 
ATOM     21  H   UNL     1       4.913  -2.393  22.246  0.00  0.00    +0.170 HD
ATOM     22  C   UNL     1       6.181  -3.933  21.798  0.00  0.00    +0.327 A 
ATOM     23  O   UNL     1       5.700  -4.188  20.701  0.00  0.00    -0.247 OA
ATOM     24  N   UNL     1       7.238  -4.633  22.312  0.00  0.00    -0.275 N 
ATOM     25  H   UNL     1       7.615  -5.376  21.745  0.00  0.00    +0.173 HD
ATOM     26  C   UNL     1       7.828  -4.395  23.521  0.00  0.00    +0.255 A 
ATOM     27  O   UNL     1       8.785  -5.038  23.935  0.00  0.00    -0.268 OA
ATOM     28  C   UNL     1       7.253  -3.303  24.328  0.00  0.00    +0.097 A 
ENDBRANCH  18  19
ENDBRANCH  16  17
ENDBRANCH  15  16
ENDBRANCH   1  15
TORSDOF 9
ENDMDL
