MODEL 1
REMARK VINA RESULT:      -6.7      0.000      0.000
REMARK  Name = 
REMARK  5 active torsions:
REMARK  status: ('A' for Active; 'I' for Inactive)
REMARK    1  A    between atoms: C_1  and  C_2
REMARK    2  A    between atoms: C_3  and  C_13
REMARK    3  A    between atoms: C_4  and  C_7
REMARK    4  A    between atoms: C_16  and  S_19
REMARK    5  A    between atoms: S_19  and  N_20
REMARK                            x       y       z     vdW  Elec       q    Type
REMARK                         _______ _______ _______ _____ _____    ______ ____
ROOT
ATOM      1  C   UNL     1       5.376  -5.639  22.536  0.00  0.00    +0.090 C 
ATOM      2  C   UNL     1       6.286  -4.505  22.807  0.00  0.00    +0.142 A 
ATOM      3  O   UNL     1       6.690  -3.865  21.684  0.00  0.00    -0.359 OA
ATOM      4  N   UNL     1       7.543  -2.850  22.003  0.00  0.00    -0.077 NA
ATOM      5  C   UNL     1       7.669  -2.846  23.340  0.00  0.00    +0.121 A 
ATOM      6  C   UNL     1       6.870  -3.905  23.916  0.00  0.00    +0.052 A 
ENDROOT
BRANCH   5   7
ATOM      7  C   UNL     1       8.535  -1.826  23.950  0.00  0.00    +0.004 A 
ATOM      8  C   UNL     1       8.293  -1.318  25.232  0.00  0.00    +0.010 A 
ATOM      9  C   UNL     1       9.123  -0.331  25.776  0.00  0.00    +0.001 A 
ATOM     10  C   UNL     1      10.187   0.183  25.034  0.00  0.00    +0.000 A 
ATOM     11  C   UNL     1      10.426  -0.292  23.749  0.00  0.00    +0.001 A 
ATOM     12  C   UNL     1       9.611  -1.292  23.214  0.00  0.00    +0.010 A 
ENDBRANCH   5   7
BRANCH   6  13
ATOM     13  C   UNL     1       6.712  -4.403  25.287  0.00  0.00    -0.012 A 
ATOM     14  C   UNL     1       5.480  -4.314  25.957  0.00  0.00    +0.010 A 
ATOM     15  C   UNL     1       5.278  -4.937  27.194  0.00  0.00    +0.029 A 
ATOM     16  C   UNL     1       6.341  -5.591  27.817  0.00  0.00    +0.105 A 
ATOM     17  C   UNL     1       7.597  -5.622  27.210  0.00  0.00    +0.029 A 
ATOM     18  C   UNL     1       7.772  -5.048  25.945  0.00  0.00    +0.010 A 
BRANCH  16  19
ATOM     19  S   UNL     1       6.057  -6.505  29.305  0.00  0.00    +0.056 S 
ATOM     20  O   UNL     1       5.847  -5.581  30.395  0.00  0.00    -0.153 OA
ATOM     21  O   UNL     1       7.003  -7.592  29.382  0.00  0.00    -0.153 OA
BRANCH  19  22
ATOM     22  N   UNL     1       4.561  -7.216  29.014  0.00  0.00    -0.204 NA
ATOM     23  H   UNL     1       3.824  -6.612  29.381  0.00  0.00    +0.144 HD
ATOM     24  H   UNL     1       4.552  -8.155  29.416  0.00  0.00    +0.144 HD
ENDBRANCH  19  22
ENDBRANCH  16  19
ENDBRANCH   6  13
TORSDOF 4
ENDMDL
MODEL 2
REMARK VINA RESULT:      -6.6      5.673      8.188
REMARK  Name = 
REMARK  5 active torsions:
REMARK  status: ('A' for Active; 'I' for Inactive)
REMARK    1  A    between atoms: C_1  and  C_2
REMARK    2  A    between atoms: C_3  and  C_13
REMARK    3  A    between atoms: C_4  and  C_7
REMARK    4  A    between atoms: C_16  and  S_19
REMARK    5  A    between atoms: S_19  and  N_20
REMARK                            x       y       z     vdW  Elec       q    Type
REMARK                         _______ _______ _______ _____ _____    ______ ____
ROOT
ATOM      1  C   UNL     1       5.456   3.510  22.254  0.00  0.00    +0.090 C 
ATOM      2  C   UNL     1       6.609   4.289  22.756  0.00  0.00    +0.142 A 
ATOM      3  O   UNL     1       6.373   5.621  22.801  0.00  0.00    -0.359 OA
ATOM      4  N   UNL     1       7.481   6.280  23.247  0.00  0.00    -0.077 NA
ATOM      5  C   UNL     1       8.419   5.350  23.494  0.00  0.00    +0.121 A 
ATOM      6  C   UNL     1       7.904   4.033  23.191  0.00  0.00    +0.052 A 
ENDROOT
BRANCH   5   7
ATOM      7  C   UNL     1       9.722   5.802  24.006  0.00  0.00    +0.004 A 
ATOM      8  C   UNL     1       9.829   6.678  25.092  0.00  0.00    +0.010 A 
ATOM      9  C   UNL     1      11.084   7.106  25.541  0.00  0.00    +0.001 A 
ATOM     10  C   UNL     1      12.245   6.689  24.891  0.00  0.00    +0.000 A 
ATOM     11  C   UNL     1      12.156   5.839  23.794  0.00  0.00    +0.001 A 
ATOM     12  C   UNL     1      10.905   5.394  23.359  0.00  0.00    +0.010 A 
ENDBRANCH   5   7
BRANCH   6  13
ATOM     13  C   UNL     1       8.515   2.700  23.187  0.00  0.00    -0.012 A 
ATOM     14  C   UNL     1       8.738   1.997  24.384  0.00  0.00    +0.010 A 
ATOM     15  C   UNL     1       9.161   0.663  24.377  0.00  0.00    +0.029 A 
ATOM     16  C   UNL     1       9.446   0.039  23.163  0.00  0.00    +0.105 A 
ATOM     17  C   UNL     1       9.312   0.741  21.965  0.00  0.00    +0.029 A 
ATOM     18  C   UNL     1       8.831   2.056  21.980  0.00  0.00    +0.010 A 
BRANCH  16  19
ATOM     19  S   UNL     1       9.836  -1.687  23.136  0.00  0.00    +0.056 S 
ATOM     20  O   UNL     1       9.817  -2.197  24.487  0.00  0.00    -0.153 OA
ATOM     21  O   UNL     1      10.945  -1.909  22.240  0.00  0.00    -0.153 OA
BRANCH  19  22
ATOM     22  N   UNL     1       8.490  -2.352  22.378  0.00  0.00    -0.204 NA
ATOM     23  H   UNL     1       8.797  -2.950  21.610  0.00  0.00    +0.144 HD
ATOM     24  H   UNL     1       7.867  -1.599  22.082  0.00  0.00    +0.144 HD
ENDBRANCH  19  22
ENDBRANCH  16  19
ENDBRANCH   6  13
TORSDOF 4
ENDMDL
MODEL 3
REMARK VINA RESULT:      -6.5      5.652      8.454
REMARK  Name = 
REMARK  5 active torsions:
REMARK  status: ('A' for Active; 'I' for Inactive)
REMARK    1  A    between atoms: C_1  and  C_2
REMARK    2  A    between atoms: C_3  and  C_13
REMARK    3  A    between atoms: C_4  and  C_7
REMARK    4  A    between atoms: C_16  and  S_19
REMARK    5  A    between atoms: S_19  and  N_20
REMARK                            x       y       z     vdW  Elec       q    Type
REMARK                         _______ _______ _______ _____ _____    ______ ____
ROOT
ATOM      1  C   UNL     1      12.491   4.678  23.414  0.00  0.00    +0.090 C 
ATOM      2  C   UNL     1      11.028   4.881  23.491  0.00  0.00    +0.142 A 
ATOM      3  O   UNL     1      10.678   6.180  23.649  0.00  0.00    -0.359 OA
ATOM      4  N   UNL     1       9.321   6.293  23.739  0.00  0.00    -0.077 NA
ATOM      5  C   UNL     1       8.814   5.054  23.626  0.00  0.00    +0.121 A 
ATOM      6  C   UNL     1       9.884   4.094  23.462  0.00  0.00    +0.052 A 
ENDROOT
BRANCH   5   7
ATOM      7  C   UNL     1       7.353   4.897  23.676  0.00  0.00    +0.004 A 
ATOM      8  C   UNL     1       6.591   5.382  24.745  0.00  0.00    +0.010 A 
ATOM      9  C   UNL     1       5.204   5.198  24.773  0.00  0.00    +0.001 A 
ATOM     10  C   UNL     1       4.565   4.499  23.749  0.00  0.00    +0.000 A 
ATOM     11  C   UNL     1       5.309   3.988  22.692  0.00  0.00    +0.001 A 
ATOM     12  C   UNL     1       6.691   4.191  22.653  0.00  0.00    +0.010 A 
ENDBRANCH   5   7
BRANCH   6  13
ATOM     13  C   UNL     1       9.906   2.629  23.389  0.00  0.00    -0.012 A 
ATOM     14  C   UNL     1       9.761   1.839  24.543  0.00  0.00    +0.010 A 
ATOM     15  C   UNL     1       9.611   0.450  24.460  0.00  0.00    +0.029 A 
ATOM     16  C   UNL     1       9.688  -0.177  23.216  0.00  0.00    +0.105 A 
ATOM     17  C   UNL     1       9.914   0.576  22.064  0.00  0.00    +0.029 A 
ATOM     18  C   UNL     1      10.002   1.971  22.152  0.00  0.00    +0.010 A 
BRANCH  16  19
ATOM     19  S   UNL     1       9.352  -1.909  23.086  0.00  0.00    +0.056 S 
ATOM     20  O   UNL     1      10.594  -2.640  23.177  0.00  0.00    -0.153 OA
ATOM     21  O   UNL     1       8.399  -2.129  22.025  0.00  0.00    -0.153 OA
BRANCH  19  22
ATOM     22  N   UNL     1       8.529  -2.228  24.518  0.00  0.00    -0.204 NA
ATOM     23  H   UNL     1       9.203  -2.333  25.277  0.00  0.00    +0.144 HD
ATOM     24  H   UNL     1       7.935  -3.048  24.387  0.00  0.00    +0.144 HD
ENDBRANCH  19  22
ENDBRANCH  16  19
ENDBRANCH   6  13
TORSDOF 4
ENDMDL
MODEL 4
REMARK VINA RESULT:      -6.4      6.786      8.942
REMARK  Name = 
REMARK  5 active torsions:
REMARK  status: ('A' for Active; 'I' for Inactive)
REMARK    1  A    between atoms: C_1  and  C_2
REMARK    2  A    between atoms: C_3  and  C_13
REMARK    3  A    between atoms: C_4  and  C_7
REMARK    4  A    between atoms: C_16  and  S_19
REMARK    5  A    between atoms: S_19  and  N_20
REMARK                            x       y       z     vdW  Elec       q    Type
REMARK                         _______ _______ _______ _____ _____    ______ ____
ROOT
ATOM      1  C   UNL     1       9.886   6.698  24.322  0.00  0.00    +0.090 C 
ATOM      2  C   UNL     1      10.112   5.286  23.944  0.00  0.00    +0.142 A 
ATOM      3  O   UNL     1      11.416   4.994  23.728  0.00  0.00    -0.359 OA
ATOM      4  N   UNL     1      11.550   3.687  23.359  0.00  0.00    -0.077 NA
ATOM      5  C   UNL     1      10.319   3.151  23.353  0.00  0.00    +0.121 A 
ATOM      6  C   UNL     1       9.341   4.150  23.727  0.00  0.00    +0.052 A 
ENDROOT
BRANCH   5   7
ATOM      7  C   UNL     1      10.185   1.730  22.998  0.00  0.00    +0.004 A 
ATOM      8  C   UNL     1       9.672   1.319  21.763  0.00  0.00    +0.010 A 
ATOM      9  C   UNL     1       9.537  -0.042  21.464  0.00  0.00    +0.001 A 
ATOM     10  C   UNL     1       9.882  -1.008  22.408  0.00  0.00    +0.000 A 
ATOM     11  C   UNL     1      10.369  -0.617  23.651  0.00  0.00    +0.001 A 
ATOM     12  C   UNL     1      10.524   0.740  23.941  0.00  0.00    +0.010 A 
ENDBRANCH   5   7
BRANCH   6  13
ATOM     13  C   UNL     1       7.876   4.137  23.790  0.00  0.00    -0.012 A 
ATOM     14  C   UNL     1       7.096   4.103  22.620  0.00  0.00    +0.010 A 
ATOM     15  C   UNL     1       5.710   3.919  22.674  0.00  0.00    +0.029 A 
ATOM     16  C   UNL     1       5.074   3.848  23.914  0.00  0.00    +0.105 A 
ATOM     17  C   UNL     1       5.815   3.962  25.090  0.00  0.00    +0.029 A 
ATOM     18  C   UNL     1       7.209   4.086  25.024  0.00  0.00    +0.010 A 
BRANCH  16  19
ATOM     19  S   UNL     1       3.348   3.467  23.992  0.00  0.00    +0.056 S 
ATOM     20  O   UNL     1       2.595   4.698  24.067  0.00  0.00    -0.153 OA
ATOM     21  O   UNL     1       3.144   2.377  24.915  0.00  0.00    -0.153 OA
BRANCH  19  22
ATOM     22  N   UNL     1       3.045   2.840  22.462  0.00  0.00    -0.204 NA
ATOM     23  H   UNL     1       2.040   2.696  22.349  0.00  0.00    +0.144 HD
ATOM     24  H   UNL     1       3.593   1.987  22.335  0.00  0.00    +0.144 HD
ENDBRANCH  19  22
ENDBRANCH  16  19
ENDBRANCH   6  13
TORSDOF 4
ENDMDL
MODEL 5
REMARK VINA RESULT:      -6.4      3.760      5.304
REMARK  Name = 
REMARK  5 active torsions:
REMARK  status: ('A' for Active; 'I' for Inactive)
REMARK    1  A    between atoms: C_1  and  C_2
REMARK    2  A    between atoms: C_3  and  C_13
REMARK    3  A    between atoms: C_4  and  C_7
REMARK    4  A    between atoms: C_16  and  S_19
REMARK    5  A    between atoms: S_19  and  N_20
REMARK                            x       y       z     vdW  Elec       q    Type
REMARK                         _______ _______ _______ _____ _____    ______ ____
ROOT
ATOM      1  C   UNL     1       5.705  -1.934  27.274  0.00  0.00    +0.090 C 
ATOM      2  C   UNL     1       6.551  -1.016  26.481  0.00  0.00    +0.142 A 
ATOM      3  O   UNL     1       6.805   0.155  27.113  0.00  0.00    -0.359 OA
ATOM      4  N   UNL     1       7.565   0.962  26.319  0.00  0.00    -0.077 NA
ATOM      5  C   UNL     1       7.800   0.288  25.181  0.00  0.00    +0.121 A 
ATOM      6  C   UNL     1       7.161  -1.009  25.233  0.00  0.00    +0.052 A 
ENDROOT
BRANCH   5   7
ATOM      7  C   UNL     1       8.620   0.939  24.148  0.00  0.00    +0.004 A 
ATOM      8  C   UNL     1       8.205   1.020  22.814  0.00  0.00    +0.010 A 
ATOM      9  C   UNL     1       9.020   1.627  21.850  0.00  0.00    +0.001 A 
ATOM     10  C   UNL     1      10.271   2.131  22.201  0.00  0.00    +0.000 A 
ATOM     11  C   UNL     1      10.710   2.036  23.517  0.00  0.00    +0.001 A 
ATOM     12  C   UNL     1       9.889   1.450  24.484  0.00  0.00    +0.010 A 
ENDBRANCH   5   7
BRANCH   6  13
ATOM     13  C   UNL     1       7.017  -2.089  24.251  0.00  0.00    -0.012 A 
ATOM     14  C   UNL     1       7.802  -3.253  24.328  0.00  0.00    +0.010 A 
ATOM     15  C   UNL     1       7.553  -4.355  23.501  0.00  0.00    +0.029 A 
ATOM     16  C   UNL     1       6.560  -4.272  22.525  0.00  0.00    +0.105 A 
ATOM     17  C   UNL     1       5.823  -3.098  22.374  0.00  0.00    +0.029 A 
ATOM     18  C   UNL     1       6.039  -2.023  23.245  0.00  0.00    +0.010 A 
BRANCH  16  19
ATOM     19  S   UNL     1       6.140  -5.706  21.579  0.00  0.00    +0.056 S 
ATOM     20  O   UNL     1       6.996  -6.801  21.974  0.00  0.00    -0.153 OA
ATOM     21  O   UNL     1       5.954  -5.327  20.199  0.00  0.00    -0.153 OA
BRANCH  19  22
ATOM     22  N   UNL     1       4.610  -6.091  22.162  0.00  0.00    -0.204 NA
ATOM     23  H   UNL     1       4.561  -5.863  23.156  0.00  0.00    +0.144 HD
ATOM     24  H   UNL     1       4.412  -7.072  21.961  0.00  0.00    +0.144 HD
ENDBRANCH  19  22
ENDBRANCH  16  19
ENDBRANCH   6  13
TORSDOF 4
ENDMDL
MODEL 6
REMARK VINA RESULT:      -6.2      1.624      3.801
REMARK  Name = 
REMARK  5 active torsions:
REMARK  status: ('A' for Active; 'I' for Inactive)
REMARK    1  A    between atoms: C_1  and  C_2
REMARK    2  A    between atoms: C_3  and  C_13
REMARK    3  A    between atoms: C_4  and  C_7
REMARK    4  A    between atoms: C_16  and  S_19
REMARK    5  A    between atoms: S_19  and  N_20
REMARK                            x       y       z     vdW  Elec       q    Type
REMARK                         _______ _______ _______ _____ _____    ______ ____
ROOT
ATOM      1  C   UNL     1       8.697  -0.485  26.433  0.00  0.00    +0.090 C 
ATOM      2  C   UNL     1       8.310  -1.329  25.281  0.00  0.00    +0.142 A 
ATOM      3  O   UNL     1       8.550  -0.740  24.085  0.00  0.00    -0.359 OA
ATOM      4  N   UNL     1       8.148  -1.559  23.070  0.00  0.00    -0.077 NA
ATOM      5  C   UNL     1       7.662  -2.677  23.634  0.00  0.00    +0.121 A 
ATOM      6  C   UNL     1       7.743  -2.580  25.075  0.00  0.00    +0.052 A 
ENDROOT
BRANCH   5   7
ATOM      7  C   UNL     1       7.169  -3.741  22.747  0.00  0.00    +0.004 A 
ATOM      8  C   UNL     1       7.603  -5.066  22.867  0.00  0.00    +0.010 A 
ATOM      9  C   UNL     1       7.132  -6.052  21.993  0.00  0.00    +0.001 A 
ATOM     10  C   UNL     1       6.246  -5.721  20.968  0.00  0.00    +0.000 A 
ATOM     11  C   UNL     1       5.825  -4.404  20.818  0.00  0.00    +0.001 A 
ATOM     12  C   UNL     1       6.278  -3.424  21.704  0.00  0.00    +0.010 A 
ENDBRANCH   5   7
BRANCH   6  13
ATOM     13  C   UNL     1       7.281  -3.452  26.161  0.00  0.00    -0.012 A 
ATOM     14  C   UNL     1       6.075  -3.196  26.837  0.00  0.00    +0.010 A 
ATOM     15  C   UNL     1       5.545  -4.113  27.753  0.00  0.00    +0.029 A 
ATOM     16  C   UNL     1       6.264  -5.267  28.064  0.00  0.00    +0.105 A 
ATOM     17  C   UNL     1       7.502  -5.504  27.467  0.00  0.00    +0.029 A 
ATOM     18  C   UNL     1       7.995  -4.610  26.508  0.00  0.00    +0.010 A 
BRANCH  16  19
ATOM     19  S   UNL     1       5.535  -6.500  29.103  0.00  0.00    +0.056 S 
ATOM     20  O   UNL     1       4.769  -5.849  30.141  0.00  0.00    -0.153 OA
ATOM     21  O   UNL     1       6.514  -7.521  29.387  0.00  0.00    -0.153 OA
BRANCH  19  22
ATOM     22  N   UNL     1       4.405  -7.214  28.082  0.00  0.00    -0.204 NA
ATOM     23  H   UNL     1       4.278  -8.190  28.350  0.00  0.00    +0.144 HD
ATOM     24  H   UNL     1       4.706  -7.095  27.114  0.00  0.00    +0.144 HD
ENDBRANCH  19  22
ENDBRANCH  16  19
ENDBRANCH   6  13
TORSDOF 4
ENDMDL
MODEL 7
REMARK VINA RESULT:      -6.1      3.394      4.234
REMARK  Name = 
REMARK  5 active torsions:
REMARK  status: ('A' for Active; 'I' for Inactive)
REMARK    1  A    between atoms: C_1  and  C_2
REMARK    2  A    between atoms: C_3  and  C_13
REMARK    3  A    between atoms: C_4  and  C_7
REMARK    4  A    between atoms: C_16  and  S_19
REMARK    5  A    between atoms: S_19  and  N_20
REMARK                            x       y       z     vdW  Elec       q    Type
REMARK                         _______ _______ _______ _____ _____    ______ ____
ROOT
ATOM      1  C   UNL     1       8.818  -5.525  25.165  0.00  0.00    +0.090 C 
ATOM      2  C   UNL     1       8.916  -4.208  24.500  0.00  0.00    +0.142 A 
ATOM      3  O   UNL     1      10.193  -3.810  24.291  0.00  0.00    -0.359 OA
ATOM      4  N   UNL     1      10.211  -2.580  23.701  0.00  0.00    -0.077 NA
ATOM      5  C   UNL     1       8.932  -2.207  23.528  0.00  0.00    +0.121 A 
ATOM      6  C   UNL     1       8.045  -3.232  24.032  0.00  0.00    +0.052 A 
ENDROOT
BRANCH   5   7
ATOM      7  C   UNL     1       8.671  -0.908  22.890  0.00  0.00    +0.004 A 
ATOM      8  C   UNL     1       9.382  -0.479  21.763  0.00  0.00    +0.010 A 
ATOM      9  C   UNL     1       9.125   0.773  21.192  0.00  0.00    +0.001 A 
ATOM     10  C   UNL     1       8.176   1.624  21.758  0.00  0.00    +0.000 A 
ATOM     11  C   UNL     1       7.478   1.225  22.893  0.00  0.00    +0.001 A 
ATOM     12  C   UNL     1       7.719  -0.034  23.450  0.00  0.00    +0.010 A 
ENDBRANCH   5   7
BRANCH   6  13
ATOM     13  C   UNL     1       6.587  -3.305  24.179  0.00  0.00    -0.012 A 
ATOM     14  C   UNL     1       5.793  -3.986  23.239  0.00  0.00    +0.010 A 
ATOM     15  C   UNL     1       4.429  -4.204  23.462  0.00  0.00    +0.029 A 
ATOM     16  C   UNL     1       3.822  -3.667  24.598  0.00  0.00    +0.105 A 
ATOM     17  C   UNL     1       4.572  -2.917  25.504  0.00  0.00    +0.029 A 
ATOM     18  C   UNL     1       5.948  -2.756  25.303  0.00  0.00    +0.010 A 
BRANCH  16  19
ATOM     19  S   UNL     1       2.137  -4.063  24.961  0.00  0.00    +0.056 S 
ATOM     20  O   UNL     1       1.625  -4.940  23.932  0.00  0.00    -0.153 OA
ATOM     21  O   UNL     1       1.446  -2.865  25.371  0.00  0.00    -0.153 OA
BRANCH  19  22
ATOM     22  N   UNL     1       2.276  -5.012  26.342  0.00  0.00    -0.204 NA
ATOM     23  H   UNL     1       3.211  -5.420  26.378  0.00  0.00    +0.144 HD
ATOM     24  H   UNL     1       1.529  -5.710  26.345  0.00  0.00    +0.144 HD
ENDBRANCH  19  22
ENDBRANCH  16  19
ENDBRANCH   6  13
TORSDOF 4
ENDMDL
MODEL 8
REMARK VINA RESULT:      -6.1      3.876      4.840
REMARK  Name = 
REMARK  5 active torsions:
REMARK  status: ('A' for Active; 'I' for Inactive)
REMARK    1  A    between atoms: C_1  and  C_2
REMARK    2  A    between atoms: C_3  and  C_13
REMARK    3  A    between atoms: C_4  and  C_7
REMARK    4  A    between atoms: C_16  and  S_19
REMARK    5  A    between atoms: S_19  and  N_20
REMARK                            x       y       z     vdW  Elec       q    Type
REMARK                         _______ _______ _______ _____ _____    ______ ____
ROOT
ATOM      1  C   UNL     1       8.343  -4.904  26.153  0.00  0.00    +0.090 C 
ATOM      2  C   UNL     1       8.822  -3.777  25.323  0.00  0.00    +0.142 A 
ATOM      3  O   UNL     1       9.864  -4.110  24.524  0.00  0.00    -0.359 OA
ATOM      4  N   UNL     1      10.271  -3.023  23.808  0.00  0.00    -0.077 NA
ATOM      5  C   UNL     1       9.471  -2.001  24.153  0.00  0.00    +0.121 A 
ATOM      6  C   UNL     1       8.507  -2.437  25.139  0.00  0.00    +0.052 A 
ENDROOT
BRANCH   5   7
ATOM      7  C   UNL     1       9.693  -0.699  23.505  0.00  0.00    +0.004 A 
ATOM      8  C   UNL     1      10.250   0.386  24.190  0.00  0.00    +0.010 A 
ATOM      9  C   UNL     1      10.428   1.618  23.551  0.00  0.00    +0.001 A 
ATOM     10  C   UNL     1      10.022   1.791  22.228  0.00  0.00    +0.000 A 
ATOM     11  C   UNL     1       9.442   0.731  21.539  0.00  0.00    +0.001 A 
ATOM     12  C   UNL     1       9.285  -0.505  22.171  0.00  0.00    +0.010 A 
ENDBRANCH   5   7
BRANCH   6  13
ATOM     13  C   UNL     1       7.482  -1.729  25.913  0.00  0.00    -0.012 A 
ATOM     14  C   UNL     1       7.830  -0.743  26.854  0.00  0.00    +0.010 A 
ATOM     15  C   UNL     1       6.856   0.052  27.468  0.00  0.00    +0.029 A 
ATOM     16  C   UNL     1       5.506  -0.188  27.207  0.00  0.00    +0.105 A 
ATOM     17  C   UNL     1       5.132  -1.215  26.341  0.00  0.00    +0.029 A 
ATOM     18  C   UNL     1       6.116  -1.965  25.685  0.00  0.00    +0.010 A 
BRANCH  16  19
ATOM     19  S   UNL     1       4.280   0.906  27.862  0.00  0.00    +0.056 S 
ATOM     20  O   UNL     1       4.813   2.248  27.895  0.00  0.00    -0.153 OA
ATOM     21  O   UNL     1       3.660   0.290  29.011  0.00  0.00    -0.153 OA
BRANCH  19  22
ATOM     22  N   UNL     1       3.111   0.908  26.653  0.00  0.00    -0.204 NA
ATOM     23  H   UNL     1       2.867  -0.055  26.419  0.00  0.00    +0.144 HD
ATOM     24  H   UNL     1       3.456   1.443  25.855  0.00  0.00    +0.144 HD
ENDBRANCH  19  22
ENDBRANCH  16  19
ENDBRANCH   6  13
TORSDOF 4
ENDMDL
MODEL 9
REMARK VINA RESULT:      -6.0      4.274      7.230
REMARK  Name = 
REMARK  5 active torsions:
REMARK  status: ('A' for Active; 'I' for Inactive)
REMARK    1  A    between atoms: C_1  and  C_2
REMARK    2  A    between atoms: C_3  and  C_13
REMARK    3  A    between atoms: C_4  and  C_7
REMARK    4  A    between atoms: C_16  and  S_19
REMARK    5  A    between atoms: S_19  and  N_20
REMARK                            x       y       z     vdW  Elec       q    Type
REMARK                         _______ _______ _______ _____ _____    ______ ____
ROOT
ATOM      1  C   UNL     1       4.518  -0.278  26.794  0.00  0.00    +0.090 C 
ATOM      2  C   UNL     1       4.829  -1.470  25.976  0.00  0.00    +0.142 A 
ATOM      3  O   UNL     1       4.024  -2.525  26.244  0.00  0.00    -0.359 OA
ATOM      4  N   UNL     1       4.380  -3.595  25.476  0.00  0.00    -0.077 NA
ATOM      5  C   UNL     1       5.413  -3.204  24.711  0.00  0.00    +0.121 A 
ATOM      6  C   UNL     1       5.747  -1.826  24.996  0.00  0.00    +0.052 A 
ENDROOT
BRANCH   5   7
ATOM      7  C   UNL     1       5.984  -4.179  23.770  0.00  0.00    +0.004 A 
ATOM      8  C   UNL     1       7.294  -4.654  23.898  0.00  0.00    +0.010 A 
ATOM      9  C   UNL     1       7.815  -5.566  22.972  0.00  0.00    +0.001 A 
ATOM     10  C   UNL     1       7.045  -5.989  21.890  0.00  0.00    +0.000 A 
ATOM     11  C   UNL     1       5.750  -5.508  21.732  0.00  0.00    +0.001 A 
ATOM     12  C   UNL     1       5.222  -4.615  22.668  0.00  0.00    +0.010 A 
ENDBRANCH   5   7
BRANCH   6  13
ATOM     13  C   UNL     1       6.823  -0.944  24.530  0.00  0.00    -0.012 A 
ATOM     14  C   UNL     1       6.803  -0.389  23.239  0.00  0.00    +0.010 A 
ATOM     15  C   UNL     1       7.732   0.583  22.849  0.00  0.00    +0.029 A 
ATOM     16  C   UNL     1       8.749   0.953  23.729  0.00  0.00    +0.105 A 
ATOM     17  C   UNL     1       8.840   0.356  24.986  0.00  0.00    +0.029 A 
ATOM     18  C   UNL     1       7.870  -0.571  25.388  0.00  0.00    +0.010 A 
BRANCH  16  19
ATOM     19  S   UNL     1       9.834   2.284  23.303  0.00  0.00    +0.056 S 
ATOM     20  O   UNL     1      11.135   2.036  23.880  0.00  0.00    -0.153 OA
ATOM     21  O   UNL     1       9.138   3.536  23.471  0.00  0.00    -0.153 OA
BRANCH  19  22
ATOM     22  N   UNL     1      10.024   2.081  21.644  0.00  0.00    -0.204 NA
ATOM     23  H   UNL     1       9.981   1.086  21.419  0.00  0.00    +0.144 HD
ATOM     24  H   UNL     1      10.895   2.525  21.350  0.00  0.00    +0.144 HD
ENDBRANCH  19  22
ENDBRANCH  16  19
ENDBRANCH   6  13
TORSDOF 4
ENDMDL
