MODEL 1
REMARK VINA RESULT:      -6.4      0.000      0.000
REMARK  Name = 
REMARK  16 active torsions:
REMARK  status: ('A' for Active; 'I' for Inactive)
REMARK    1  A    between atoms: C_2  and  C_3
REMARK    2  A    between atoms: C_2  and  N_4
REMARK    3  A    between atoms: C_2  and  C_27
REMARK    4  A    between atoms: C_5  and  C_7
REMARK    5  A    between atoms: C_7  and  C_9
REMARK    6  A    between atoms: C_7  and  N_16
REMARK    7  A    between atoms: C_9  and  C_10
REMARK    8  A    between atoms: C_10  and  C_11
REMARK    9  A    between atoms: C_11  and  N_12
REMARK   10  A    between atoms: N_12  and  C_13
REMARK   11  A    between atoms: C_13  and  N_14
REMARK   12  A    between atoms: C_13  and  N_15
REMARK   13  A    between atoms: C_17  and  O_19
REMARK   14  A    between atoms: O_19  and  C_20
REMARK   15  A    between atoms: C_20  and  C_21
REMARK   16  A    between atoms: C_27  and  C_28
REMARK                            x       y       z     vdW  Elec       q    Type
REMARK                         _______ _______ _______ _____ _____    ______ ____
ROOT
ATOM      1  C   UNL     1       8.378  -1.712  22.621  0.00  0.00    +0.162 C 
ENDROOT
BRANCH   1   4
ATOM      2  N   UNL     1       7.306  -3.916  22.352  0.00  0.00    -0.304 N 
ATOM      3  H   UNL     1       8.215  -4.204  22.006  0.00  0.00    +0.149 HD
ATOM      4  C   UNL     1       7.091  -2.560  22.517  0.00  0.00    +0.234 C 
ATOM      5  O   UNL     1       5.981  -2.028  22.437  0.00  0.00    -0.274 OA
BRANCH   2   6
ATOM      6  C   UNL     1       6.210  -4.878  22.208  0.00  0.00    +0.136 C 
ATOM      7  C   UNL     1       6.471  -5.873  21.081  0.00  0.00    +0.036 C 
BRANCH   6   8
ATOM      8  C   UNL     1       5.853  -5.542  23.557  0.00  0.00    +0.150 C 
ATOM      9  O   UNL     1       6.653  -5.610  24.494  0.00  0.00    -0.296 OA
ATOM     10  C   UNL     1       4.453  -6.082  23.717  0.00  0.00    +0.088 C 
ENDBRANCH   6   8
ENDBRANCH   2   6
ENDBRANCH   1   4
BRANCH   1  11
ATOM     11  N   UNL     1       8.060  -0.315  22.882  0.00  0.00    -0.270 N 
ATOM     12  H   UNL     1       7.372  -0.044  23.573  0.00  0.00    +0.153 HD
ATOM     13  C   UNL     1       8.577   0.693  22.121  0.00  0.00    +0.401 C 
ATOM     14  O   UNL     1       9.325   0.526  21.172  0.00  0.00    -0.226 OA
BRANCH  13  15
ATOM     15  O   UNL     1       8.204   1.880  22.645  0.00  0.00    -0.446 OA
BRANCH  15  16
ATOM     16  C   UNL     1       8.791   2.180  23.916  0.00  0.00    +0.269 C 
BRANCH  16  17
ATOM     17  C   UNL     1       9.720   3.362  23.857  0.00  0.00    -0.010 A 
ATOM     18  C   UNL     1       9.263   4.641  24.202  0.00  0.00    +0.007 A 
ATOM     19  C   UNL     1      10.097   5.752  24.057  0.00  0.00    +0.000 A 
ATOM     20  C   UNL     1      11.397   5.593  23.579  0.00  0.00    +0.000 A 
ATOM     21  C   UNL     1      11.869   4.321  23.260  0.00  0.00    +0.000 A 
ATOM     22  C   UNL     1      11.037   3.210  23.404  0.00  0.00    +0.007 A 
ENDBRANCH  16  17
ENDBRANCH  15  16
ENDBRANCH  13  15
ENDBRANCH   1  11
BRANCH   1  23
ATOM     23  C   UNL     1       9.315  -2.275  23.708  0.00  0.00    +0.033 C 
BRANCH  23  24
ATOM     24  C   UNL     1       9.249  -1.558  25.057  0.00  0.00    +0.017 C 
BRANCH  24  25
ATOM     25  C   UNL     1       8.525  -2.354  26.139  0.00  0.00    +0.083 C 
BRANCH  25  26
ATOM     26  N   UNL     1       8.354  -3.762  25.753  0.00  0.00    -0.289 NA
ATOM     27  H   UNL     1       7.652  -3.986  25.060  0.00  0.00    +0.125 HD
BRANCH  26  28
ATOM     28  C   UNL     1       9.139  -4.786  26.367  0.00  0.00    +0.188 C 
BRANCH  28  29
ATOM     29  N   UNL     1       9.805  -5.542  25.363  0.00  0.00    -0.303 NA
ATOM     30  H   UNL     1       9.779  -5.232  24.396  0.00  0.00    +0.121 HD
ATOM     31  H   UNL     1      10.145  -6.485  25.503  0.00  0.00    +0.121 HD
ENDBRANCH  28  29
BRANCH  28  32
ATOM     32  N   UNL     1       8.313  -5.671  27.101  0.00  0.00    -0.303 NA
ATOM     33  H   UNL     1       8.390  -6.687  26.976  0.00  0.00    +0.121 HD
ATOM     34  H   UNL     1       7.531  -5.365  27.661  0.00  0.00    +0.121 HD
ENDBRANCH  28  32
ENDBRANCH  26  28
ENDBRANCH  25  26
ENDBRANCH  24  25
ENDBRANCH  23  24
ENDBRANCH   1  23
TORSDOF 14
ENDMDL
MODEL 2
REMARK VINA RESULT:      -6.4      2.085      3.680
REMARK  Name = 
REMARK  16 active torsions:
REMARK  status: ('A' for Active; 'I' for Inactive)
REMARK    1  A    between atoms: C_2  and  C_3
REMARK    2  A    between atoms: C_2  and  N_4
REMARK    3  A    between atoms: C_2  and  C_27
REMARK    4  A    between atoms: C_5  and  C_7
REMARK    5  A    between atoms: C_7  and  C_9
REMARK    6  A    between atoms: C_7  and  N_16
REMARK    7  A    between atoms: C_9  and  C_10
REMARK    8  A    between atoms: C_10  and  C_11
REMARK    9  A    between atoms: C_11  and  N_12
REMARK   10  A    between atoms: N_12  and  C_13
REMARK   11  A    between atoms: C_13  and  N_14
REMARK   12  A    between atoms: C_13  and  N_15
REMARK   13  A    between atoms: C_17  and  O_19
REMARK   14  A    between atoms: O_19  and  C_20
REMARK   15  A    between atoms: C_20  and  C_21
REMARK   16  A    between atoms: C_27  and  C_28
REMARK                            x       y       z     vdW  Elec       q    Type
REMARK                         _______ _______ _______ _____ _____    ______ ____
ROOT
ATOM      1  C   UNL     1       9.101  -2.365  24.386  0.00  0.00    +0.162 C 
ENDROOT
BRANCH   1   4
ATOM      2  N   UNL     1       6.922  -3.318  23.734  0.00  0.00    -0.304 N 
ATOM      3  H   UNL     1       6.544  -2.461  24.122  0.00  0.00    +0.149 HD
ATOM      4  C   UNL     1       8.255  -3.592  23.982  0.00  0.00    +0.234 C 
ATOM      5  O   UNL     1       8.721  -4.733  24.034  0.00  0.00    -0.274 OA
BRANCH   2   6
ATOM      6  C   UNL     1       5.957  -4.357  23.365  0.00  0.00    +0.136 C 
ATOM      7  C   UNL     1       4.564  -4.058  23.910  0.00  0.00    +0.036 C 
BRANCH   6   8
ATOM      8  C   UNL     1       5.986  -4.647  21.847  0.00  0.00    +0.150 C 
ATOM      9  O   UNL     1       5.672  -3.803  21.005  0.00  0.00    -0.296 OA
ATOM     10  C   UNL     1       6.458  -6.012  21.409  0.00  0.00    +0.088 C 
ENDBRANCH   6   8
ENDBRANCH   2   6
ENDBRANCH   1   4
BRANCH   1  11
ATOM     11  N   UNL     1       8.960  -1.292  23.412  0.00  0.00    -0.270 N 
ATOM     12  H   UNL     1       8.145  -0.693  23.391  0.00  0.00    +0.153 HD
ATOM     13  C   UNL     1       9.856  -1.123  22.397  0.00  0.00    +0.401 C 
ATOM     14  O   UNL     1      10.827  -1.836  22.208  0.00  0.00    -0.226 OA
BRANCH  13  15
ATOM     15  O   UNL     1       9.544  -0.001  21.712  0.00  0.00    -0.446 OA
BRANCH  15  16
ATOM     16  C   UNL     1      10.130   1.196  22.235  0.00  0.00    +0.269 C 
BRANCH  16  17
ATOM     17  C   UNL     1       9.115   2.282  22.462  0.00  0.00    -0.010 A 
ATOM     18  C   UNL     1       9.331   3.262  23.441  0.00  0.00    +0.007 A 
ATOM     19  C   UNL     1       8.347   4.214  23.717  0.00  0.00    +0.000 A 
ATOM     20  C   UNL     1       7.146   4.204  23.009  0.00  0.00    +0.000 A 
ATOM     21  C   UNL     1       6.934   3.251  22.014  0.00  0.00    +0.000 A 
ATOM     22  C   UNL     1       7.915   2.299  21.737  0.00  0.00    +0.007 A 
ENDBRANCH  16  17
ENDBRANCH  15  16
ENDBRANCH  13  15
ENDBRANCH   1  11
BRANCH   1  23
ATOM     23  C   UNL     1       8.715  -1.879  25.798  0.00  0.00    +0.033 C 
BRANCH  23  24
ATOM     24  C   UNL     1       9.024  -0.409  26.086  0.00  0.00    +0.017 C 
BRANCH  24  25
ATOM     25  C   UNL     1       7.781   0.437  26.348  0.00  0.00    +0.083 C 
BRANCH  25  26
ATOM     26  N   UNL     1       7.172   0.907  25.095  0.00  0.00    -0.289 NA
ATOM     27  H   UNL     1       7.640   1.643  24.583  0.00  0.00    +0.125 HD
BRANCH  26  28
ATOM     28  C   UNL     1       5.936   0.358  24.637  0.00  0.00    +0.188 C 
BRANCH  28  29
ATOM     29  N   UNL     1       6.155  -0.373  23.436  0.00  0.00    -0.303 NA
ATOM     30  H   UNL     1       6.381  -1.363  23.481  0.00  0.00    +0.121 HD
ATOM     31  H   UNL     1       6.302   0.061  22.533  0.00  0.00    +0.121 HD
ENDBRANCH  28  29
BRANCH  28  32
ATOM     32  N   UNL     1       5.009   1.390  24.353  0.00  0.00    -0.303 NA
ATOM     33  H   UNL     1       5.322   2.280  23.946  0.00  0.00    +0.121 HD
ATOM     34  H   UNL     1       4.047   1.371  24.656  0.00  0.00    +0.121 HD
ENDBRANCH  28  32
ENDBRANCH  26  28
ENDBRANCH  25  26
ENDBRANCH  24  25
ENDBRANCH  23  24
ENDBRANCH   1  23
TORSDOF 14
ENDMDL
MODEL 3
REMARK VINA RESULT:      -6.4      2.393      4.323
REMARK  Name = 
REMARK  16 active torsions:
REMARK  status: ('A' for Active; 'I' for Inactive)
REMARK    1  A    between atoms: C_2  and  C_3
REMARK    2  A    between atoms: C_2  and  N_4
REMARK    3  A    between atoms: C_2  and  C_27
REMARK    4  A    between atoms: C_5  and  C_7
REMARK    5  A    between atoms: C_7  and  C_9
REMARK    6  A    between atoms: C_7  and  N_16
REMARK    7  A    between atoms: C_9  and  C_10
REMARK    8  A    between atoms: C_10  and  C_11
REMARK    9  A    between atoms: C_11  and  N_12
REMARK   10  A    between atoms: N_12  and  C_13
REMARK   11  A    between atoms: C_13  and  N_14
REMARK   12  A    between atoms: C_13  and  N_15
REMARK   13  A    between atoms: C_17  and  O_19
REMARK   14  A    between atoms: O_19  and  C_20
REMARK   15  A    between atoms: C_20  and  C_21
REMARK   16  A    between atoms: C_27  and  C_28
REMARK                            x       y       z     vdW  Elec       q    Type
REMARK                         _______ _______ _______ _____ _____    ______ ____
ROOT
ATOM      1  C   UNL     1       7.780  -3.315  25.904  0.00  0.00    +0.162 C 
ENDROOT
BRANCH   1   4
ATOM      2  N   UNL     1       6.384  -3.932  23.967  0.00  0.00    -0.304 N 
ATOM      3  H   UNL     1       6.469  -2.952  23.720  0.00  0.00    +0.149 HD
ATOM      4  C   UNL     1       6.808  -4.308  25.229  0.00  0.00    +0.234 C 
ATOM      5  O   UNL     1       6.345  -5.269  25.848  0.00  0.00    -0.274 OA
BRANCH   2   6
ATOM      6  C   UNL     1       5.440  -4.731  23.180  0.00  0.00    +0.136 C 
ATOM      7  C   UNL     1       3.992  -4.347  23.469  0.00  0.00    +0.036 C 
BRANCH   6   8
ATOM      8  C   UNL     1       5.801  -4.722  21.677  0.00  0.00    +0.150 C 
ATOM      9  O   UNL     1       5.600  -3.744  20.953  0.00  0.00    -0.296 OA
ATOM     10  C   UNL     1       6.460  -5.958  21.114  0.00  0.00    +0.088 C 
ENDBRANCH   6   8
ENDBRANCH   2   6
ENDBRANCH   1   4
BRANCH   1  11
ATOM     11  N   UNL     1       8.697  -2.741  24.929  0.00  0.00    -0.270 N 
ATOM     12  H   UNL     1       8.529  -1.839  24.504  0.00  0.00    +0.153 HD
ATOM     13  C   UNL     1       9.759  -3.446  24.444  0.00  0.00    +0.401 C 
ATOM     14  O   UNL     1      10.031  -4.592  24.762  0.00  0.00    -0.226 OA
BRANCH  13  15
ATOM     15  O   UNL     1      10.495  -2.644  23.643  0.00  0.00    -0.446 OA
BRANCH  15  16
ATOM     16  C   UNL     1       9.733  -1.894  22.691  0.00  0.00    +0.269 C 
BRANCH  16  17
ATOM     17  C   UNL     1       9.997  -0.416  22.778  0.00  0.00    -0.010 A 
ATOM     18  C   UNL     1      10.606   0.131  23.916  0.00  0.00    +0.007 A 
ATOM     19  C   UNL     1      10.766   1.513  24.037  0.00  0.00    +0.000 A 
ATOM     20  C   UNL     1      10.332   2.358  23.016  0.00  0.00    +0.000 A 
ATOM     21  C   UNL     1       9.751   1.822  21.869  0.00  0.00    +0.000 A 
ATOM     22  C   UNL     1       9.590   0.441  21.746  0.00  0.00    +0.007 A 
ENDBRANCH  16  17
ENDBRANCH  15  16
ENDBRANCH  13  15
ENDBRANCH   1  11
BRANCH   1  23
ATOM     23  C   UNL     1       7.000  -2.209  26.644  0.00  0.00    +0.033 C 
BRANCH  23  24
ATOM     24  C   UNL     1       7.782  -0.918  26.891  0.00  0.00    +0.017 C 
BRANCH  24  25
ATOM     25  C   UNL     1       7.131   0.318  26.279  0.00  0.00    +0.083 C 
BRANCH  25  26
ATOM     26  N   UNL     1       7.333   0.374  24.824  0.00  0.00    -0.289 NA
ATOM     27  H   UNL     1       8.269   0.538  24.478  0.00  0.00    +0.125 HD
BRANCH  26  28
ATOM     28  C   UNL     1       6.228   0.232  23.930  0.00  0.00    +0.188 C 
BRANCH  28  29
ATOM     29  N   UNL     1       6.305  -1.028  23.273  0.00  0.00    -0.303 NA
ATOM     30  H   UNL     1       6.636  -1.843  23.782  0.00  0.00    +0.121 HD
ATOM     31  H   UNL     1       6.244  -1.143  22.270  0.00  0.00    +0.121 HD
ENDBRANCH  28  29
BRANCH  28  32
ATOM     32  N   UNL     1       6.260   1.242  22.938  0.00  0.00    -0.303 NA
ATOM     33  H   UNL     1       7.010   1.944  22.926  0.00  0.00    +0.121 HD
ATOM     34  H   UNL     1       5.501   1.413  22.296  0.00  0.00    +0.121 HD
ENDBRANCH  28  32
ENDBRANCH  26  28
ENDBRANCH  25  26
ENDBRANCH  24  25
ENDBRANCH  23  24
ENDBRANCH   1  23
TORSDOF 14
ENDMDL
MODEL 4
REMARK VINA RESULT:      -6.3      2.450      4.136
REMARK  Name = 
REMARK  16 active torsions:
REMARK  status: ('A' for Active; 'I' for Inactive)
REMARK    1  A    between atoms: C_2  and  C_3
REMARK    2  A    between atoms: C_2  and  N_4
REMARK    3  A    between atoms: C_2  and  C_27
REMARK    4  A    between atoms: C_5  and  C_7
REMARK    5  A    between atoms: C_7  and  C_9
REMARK    6  A    between atoms: C_7  and  N_16
REMARK    7  A    between atoms: C_9  and  C_10
REMARK    8  A    between atoms: C_10  and  C_11
REMARK    9  A    between atoms: C_11  and  N_12
REMARK   10  A    between atoms: N_12  and  C_13
REMARK   11  A    between atoms: C_13  and  N_14
REMARK   12  A    between atoms: C_13  and  N_15
REMARK   13  A    between atoms: C_17  and  O_19
REMARK   14  A    between atoms: O_19  and  C_20
REMARK   15  A    between atoms: C_20  and  C_21
REMARK   16  A    between atoms: C_27  and  C_28
REMARK                            x       y       z     vdW  Elec       q    Type
REMARK                         _______ _______ _______ _____ _____    ______ ____
ROOT
ATOM      1  C   UNL     1       7.177  -3.195  25.424  0.00  0.00    +0.162 C 
ENDROOT
BRANCH   1   4
ATOM      2  N   UNL     1       6.260  -4.819  23.810  0.00  0.00    -0.304 N 
ATOM      3  H   UNL     1       7.209  -5.175  23.781  0.00  0.00    +0.149 HD
ATOM      4  C   UNL     1       6.057  -3.606  24.443  0.00  0.00    +0.234 C 
ATOM      5  O   UNL     1       5.145  -2.828  24.153  0.00  0.00    -0.274 OA
BRANCH   2   6
ATOM      6  C   UNL     1       5.321  -5.364  22.825  0.00  0.00    +0.136 C 
ATOM      7  C   UNL     1       6.044  -6.030  21.659  0.00  0.00    +0.036 C 
BRANCH   6   8
ATOM      8  C   UNL     1       4.253  -6.260  23.493  0.00  0.00    +0.150 C 
ATOM      9  O   UNL     1       4.546  -7.256  24.158  0.00  0.00    -0.296 OA
ATOM     10  C   UNL     1       2.808  -5.851  23.338  0.00  0.00    +0.088 C 
ENDBRANCH   6   8
ENDBRANCH   2   6
ENDBRANCH   1   4
BRANCH   1  11
ATOM     11  N   UNL     1       8.317  -2.639  24.707  0.00  0.00    -0.270 N 
ATOM     12  H   UNL     1       8.347  -1.669  24.423  0.00  0.00    +0.153 HD
ATOM     13  C   UNL     1       9.342  -3.426  24.271  0.00  0.00    +0.401 C 
ATOM     14  O   UNL     1       9.398  -4.635  24.426  0.00  0.00    -0.226 OA
BRANCH  13  15
ATOM     15  O   UNL     1      10.305  -2.644  23.737  0.00  0.00    -0.446 OA
BRANCH  15  16
ATOM     16  C   UNL     1       9.887  -1.879  22.601  0.00  0.00    +0.269 C 
BRANCH  16  17
ATOM     17  C   UNL     1      10.030  -0.398  22.820  0.00  0.00    -0.010 A 
ATOM     18  C   UNL     1       9.697   0.506  21.802  0.00  0.00    +0.007 A 
ATOM     19  C   UNL     1       9.919   1.874  21.971  0.00  0.00    +0.000 A 
ATOM     20  C   UNL     1      10.461   2.352  23.163  0.00  0.00    +0.000 A 
ATOM     21  C   UNL     1      10.769   1.464  24.192  0.00  0.00    +0.000 A 
ATOM     22  C   UNL     1      10.549   0.097  24.025  0.00  0.00    +0.007 A 
ENDBRANCH  16  17
ENDBRANCH  15  16
ENDBRANCH  13  15
ENDBRANCH   1  11
BRANCH   1  23
ATOM     23  C   UNL     1       6.644  -2.195  26.470  0.00  0.00    +0.033 C 
BRANCH  23  24
ATOM     24  C   UNL     1       7.517  -0.959  26.690  0.00  0.00    +0.017 C 
BRANCH  24  25
ATOM     25  C   UNL     1       6.814   0.353  26.355  0.00  0.00    +0.083 C 
BRANCH  25  26
ATOM     26  N   UNL     1       7.303   0.923  25.092  0.00  0.00    -0.289 NA
ATOM     27  H   UNL     1       8.242   1.297  25.068  0.00  0.00    +0.125 HD
BRANCH  26  28
ATOM     28  C   UNL     1       6.458   0.976  23.941  0.00  0.00    +0.188 C 
BRANCH  28  29
ATOM     29  N   UNL     1       5.124   1.265  24.343  0.00  0.00    -0.303 NA
ATOM     30  H   UNL     1       4.921   2.125  24.844  0.00  0.00    +0.121 HD
ATOM     31  H   UNL     1       4.378   0.581  24.345  0.00  0.00    +0.121 HD
ENDBRANCH  28  29
BRANCH  28  32
ATOM     32  N   UNL     1       6.450  -0.272  23.274  0.00  0.00    -0.303 NA
ATOM     33  H   UNL     1       5.810  -1.021  23.566  0.00  0.00    +0.121 HD
ATOM     34  H   UNL     1       7.145  -0.542  22.594  0.00  0.00    +0.121 HD
ENDBRANCH  28  32
ENDBRANCH  26  28
ENDBRANCH  25  26
ENDBRANCH  24  25
ENDBRANCH  23  24
ENDBRANCH   1  23
TORSDOF 14
ENDMDL
MODEL 5
REMARK VINA RESULT:      -6.2      2.848      7.957
REMARK  Name = 
REMARK  16 active torsions:
REMARK  status: ('A' for Active; 'I' for Inactive)
REMARK    1  A    between atoms: C_2  and  C_3
REMARK    2  A    between atoms: C_2  and  N_4
REMARK    3  A    between atoms: C_2  and  C_27
REMARK    4  A    between atoms: C_5  and  C_7
REMARK    5  A    between atoms: C_7  and  C_9
REMARK    6  A    between atoms: C_7  and  N_16
REMARK    7  A    between atoms: C_9  and  C_10
REMARK    8  A    between atoms: C_10  and  C_11
REMARK    9  A    between atoms: C_11  and  N_12
REMARK   10  A    between atoms: N_12  and  C_13
REMARK   11  A    between atoms: C_13  and  N_14
REMARK   12  A    between atoms: C_13  and  N_15
REMARK   13  A    between atoms: C_17  and  O_19
REMARK   14  A    between atoms: O_19  and  C_20
REMARK   15  A    between atoms: C_20  and  C_21
REMARK   16  A    between atoms: C_27  and  C_28
REMARK                            x       y       z     vdW  Elec       q    Type
REMARK                         _______ _______ _______ _____ _____    ______ ____
ROOT
ATOM      1  C   UNL     1       8.492   0.585  25.325  0.00  0.00    +0.162 C 
ENDROOT
BRANCH   1   4
ATOM      2  N   UNL     1       8.875   2.861  24.454  0.00  0.00    -0.304 N 
ATOM      3  H   UNL     1       9.749   2.476  24.114  0.00  0.00    +0.149 HD
ATOM      4  C   UNL     1       8.145   2.091  25.341  0.00  0.00    +0.234 C 
ATOM      5  O   UNL     1       7.387   2.561  26.193  0.00  0.00    -0.274 OA
BRANCH   2   6
ATOM      6  C   UNL     1       8.706   4.313  24.344  0.00  0.00    +0.136 C 
ATOM      7  C   UNL     1      10.010   5.009  23.968  0.00  0.00    +0.036 C 
BRANCH   6   8
ATOM      8  C   UNL     1       7.515   4.680  23.430  0.00  0.00    +0.150 C 
ATOM      9  O   UNL     1       7.506   4.432  22.223  0.00  0.00    -0.296 OA
ATOM     10  C   UNL     1       6.317   5.331  24.078  0.00  0.00    +0.088 C 
ENDBRANCH   6   8
ENDBRANCH   2   6
ENDBRANCH   1   4
BRANCH   1  11
ATOM     11  N   UNL     1       7.531  -0.161  24.525  0.00  0.00    -0.270 N 
ATOM     12  H   UNL     1       7.578  -0.181  23.514  0.00  0.00    +0.153 HD
ATOM     13  C   UNL     1       6.444  -0.763  25.088  0.00  0.00    +0.401 C 
ATOM     14  O   UNL     1       6.176  -0.729  26.277  0.00  0.00    -0.226 OA
BRANCH  13  15
ATOM     15  O   UNL     1       5.786  -1.466  24.140  0.00  0.00    -0.446 OA
BRANCH  15  16
ATOM     16  C   UNL     1       6.558  -1.751  22.969  0.00  0.00    +0.269 C 
BRANCH  16  17
ATOM     17  C   UNL     1       6.706  -3.227  22.721  0.00  0.00    -0.010 A 
ATOM     18  C   UNL     1       7.570  -3.997  23.513  0.00  0.00    +0.007 A 
ATOM     19  C   UNL     1       7.779  -5.347  23.224  0.00  0.00    +0.000 A 
ATOM     20  C   UNL     1       7.118  -5.942  22.151  0.00  0.00    +0.000 A 
ATOM     21  C   UNL     1       6.236  -5.192  21.375  0.00  0.00    +0.000 A 
ATOM     22  C   UNL     1       6.026  -3.843  21.662  0.00  0.00    +0.007 A 
ENDBRANCH  16  17
ENDBRANCH  15  16
ENDBRANCH  13  15
ENDBRANCH   1  11
BRANCH   1  23
ATOM     23  C   UNL     1       9.928   0.364  24.807  0.00  0.00    +0.033 C 
BRANCH  23  24
ATOM     24  C   UNL     1      10.089  -0.786  23.812  0.00  0.00    +0.017 C 
BRANCH  24  25
ATOM     25  C   UNL     1      10.413  -0.327  22.393  0.00  0.00    +0.083 C 
BRANCH  25  26
ATOM     26  N   UNL     1       9.194  -0.121  21.598  0.00  0.00    -0.289 NA
ATOM     27  H   UNL     1       8.676  -0.937  21.299  0.00  0.00    +0.125 HD
BRANCH  26  28
ATOM     28  C   UNL     1       8.775   1.194  21.234  0.00  0.00    +0.188 C 
BRANCH  28  29
ATOM     29  N   UNL     1       9.762   2.137  21.635  0.00  0.00    -0.303 NA
ATOM     30  H   UNL     1      10.658   2.165  21.157  0.00  0.00    +0.121 HD
ATOM     31  H   UNL     1       9.720   2.660  22.501  0.00  0.00    +0.121 HD
ENDBRANCH  28  29
BRANCH  28  32
ATOM     32  N   UNL     1       7.564   1.528  21.887  0.00  0.00    -0.303 NA
ATOM     33  H   UNL     1       7.569   2.075  22.756  0.00  0.00    +0.121 HD
ATOM     34  H   UNL     1       6.669   1.142  21.627  0.00  0.00    +0.121 HD
ENDBRANCH  28  32
ENDBRANCH  26  28
ENDBRANCH  25  26
ENDBRANCH  24  25
ENDBRANCH  23  24
ENDBRANCH   1  23
TORSDOF 14
ENDMDL
MODEL 6
REMARK VINA RESULT:      -6.2      2.525      3.677
REMARK  Name = 
REMARK  16 active torsions:
REMARK  status: ('A' for Active; 'I' for Inactive)
REMARK    1  A    between atoms: C_2  and  C_3
REMARK    2  A    between atoms: C_2  and  N_4
REMARK    3  A    between atoms: C_2  and  C_27
REMARK    4  A    between atoms: C_5  and  C_7
REMARK    5  A    between atoms: C_7  and  C_9
REMARK    6  A    between atoms: C_7  and  N_16
REMARK    7  A    between atoms: C_9  and  C_10
REMARK    8  A    between atoms: C_10  and  C_11
REMARK    9  A    between atoms: C_11  and  N_12
REMARK   10  A    between atoms: N_12  and  C_13
REMARK   11  A    between atoms: C_13  and  N_14
REMARK   12  A    between atoms: C_13  and  N_15
REMARK   13  A    between atoms: C_17  and  O_19
REMARK   14  A    between atoms: O_19  and  C_20
REMARK   15  A    between atoms: C_20  and  C_21
REMARK   16  A    between atoms: C_27  and  C_28
REMARK                            x       y       z     vdW  Elec       q    Type
REMARK                         _______ _______ _______ _____ _____    ______ ____
ROOT
ATOM      1  C   UNL     1       5.702  -2.128  24.274  0.00  0.00    +0.162 C 
ENDROOT
BRANCH   1   4
ATOM      2  N   UNL     1       5.417  -4.169  25.629  0.00  0.00    -0.304 N 
ATOM      3  H   UNL     1       6.259  -4.480  25.156  0.00  0.00    +0.149 HD
ATOM      4  C   UNL     1       4.798  -3.033  25.141  0.00  0.00    +0.234 C 
ATOM      5  O   UNL     1       3.588  -2.816  25.243  0.00  0.00    -0.274 OA
BRANCH   2   6
ATOM      6  C   UNL     1       4.716  -5.162  26.448  0.00  0.00    +0.136 C 
ATOM      7  C   UNL     1       4.246  -6.353  25.618  0.00  0.00    +0.036 C 
BRANCH   6   8
ATOM      8  C   UNL     1       5.539  -5.555  27.696  0.00  0.00    +0.150 C 
ATOM      9  O   UNL     1       6.452  -4.853  28.135  0.00  0.00    -0.296 OA
ATOM     10  C   UNL     1       5.161  -6.834  28.402  0.00  0.00    +0.088 C 
ENDBRANCH   6   8
ENDBRANCH   2   6
ENDBRANCH   1   4
BRANCH   1  11
ATOM     11  N   UNL     1       6.945  -1.820  24.967  0.00  0.00    -0.270 N 
ATOM     12  H   UNL     1       7.647  -2.527  25.144  0.00  0.00    +0.153 HD
ATOM     13  C   UNL     1       7.170  -0.595  25.525  0.00  0.00    +0.401 C 
ATOM     14  O   UNL     1       6.374   0.328  25.505  0.00  0.00    -0.226 OA
BRANCH  13  15
ATOM     15  O   UNL     1       8.433  -0.553  26.005  0.00  0.00    -0.446 OA
BRANCH  15  16
ATOM     16  C   UNL     1       9.436  -0.976  25.076  0.00  0.00    +0.269 C 
BRANCH  16  17
ATOM     17  C   UNL     1       9.749   0.075  24.047  0.00  0.00    -0.010 A 
ATOM     18  C   UNL     1      10.240   1.329  24.440  0.00  0.00    +0.007 A 
ATOM     19  C   UNL     1      10.441   2.336  23.494  0.00  0.00    +0.000 A 
ATOM     20  C   UNL     1      10.168   2.096  22.148  0.00  0.00    +0.000 A 
ATOM     21  C   UNL     1       9.707   0.845  21.745  0.00  0.00    +0.000 A 
ATOM     22  C   UNL     1       9.504  -0.163  22.688  0.00  0.00    +0.007 A 
ENDBRANCH  16  17
ENDBRANCH  15  16
ENDBRANCH  13  15
ENDBRANCH   1  11
BRANCH   1  23
ATOM     23  C   UNL     1       5.982  -2.787  22.908  0.00  0.00    +0.033 C 
BRANCH  23  24
ATOM     24  C   UNL     1       7.425  -3.240  22.690  0.00  0.00    +0.017 C 
BRANCH  24  25
ATOM     25  C   UNL     1       7.627  -4.743  22.859  0.00  0.00    +0.083 C 
BRANCH  25  26
ATOM     26  N   UNL     1       7.807  -5.110  24.271  0.00  0.00    -0.289 NA
ATOM     27  H   UNL     1       7.075  -5.643  24.723  0.00  0.00    +0.125 HD
BRANCH  26  28
ATOM     28  C   UNL     1       8.969  -4.695  24.990  0.00  0.00    +0.188 C 
BRANCH  28  29
ATOM     29  N   UNL     1       9.844  -5.804  25.162  0.00  0.00    -0.303 NA
ATOM     30  H   UNL     1      10.426  -6.114  24.389  0.00  0.00    +0.121 HD
ATOM     31  H   UNL     1       9.791  -6.444  25.944  0.00  0.00    +0.121 HD
ENDBRANCH  28  29
BRANCH  28  32
ATOM     32  N   UNL     1       8.615  -4.218  26.274  0.00  0.00    -0.303 NA
ATOM     33  H   UNL     1       8.860  -4.748  27.118  0.00  0.00    +0.121 HD
ATOM     34  H   UNL     1       7.998  -3.433  26.424  0.00  0.00    +0.121 HD
ENDBRANCH  28  32
ENDBRANCH  26  28
ENDBRANCH  25  26
ENDBRANCH  24  25
ENDBRANCH  23  24
ENDBRANCH   1  23
TORSDOF 14
ENDMDL
MODEL 7
REMARK VINA RESULT:      -6.1      2.383      4.388
REMARK  Name = 
REMARK  16 active torsions:
REMARK  status: ('A' for Active; 'I' for Inactive)
REMARK    1  A    between atoms: C_2  and  C_3
REMARK    2  A    between atoms: C_2  and  N_4
REMARK    3  A    between atoms: C_2  and  C_27
REMARK    4  A    between atoms: C_5  and  C_7
REMARK    5  A    between atoms: C_7  and  C_9
REMARK    6  A    between atoms: C_7  and  N_16
REMARK    7  A    between atoms: C_9  and  C_10
REMARK    8  A    between atoms: C_10  and  C_11
REMARK    9  A    between atoms: C_11  and  N_12
REMARK   10  A    between atoms: N_12  and  C_13
REMARK   11  A    between atoms: C_13  and  N_14
REMARK   12  A    between atoms: C_13  and  N_15
REMARK   13  A    between atoms: C_17  and  O_19
REMARK   14  A    between atoms: O_19  and  C_20
REMARK   15  A    between atoms: C_20  and  C_21
REMARK   16  A    between atoms: C_27  and  C_28
REMARK                            x       y       z     vdW  Elec       q    Type
REMARK                         _______ _______ _______ _____ _____    ______ ____
ROOT
ATOM      1  C   UNL     1       7.997  -2.970  25.947  0.00  0.00    +0.162 C 
ENDROOT
BRANCH   1   4
ATOM      2  N   UNL     1       6.228  -4.680  25.783  0.00  0.00    -0.304 N 
ATOM      3  H   UNL     1       5.597  -3.887  25.817  0.00  0.00    +0.149 HD
ATOM      4  C   UNL     1       7.558  -4.446  26.079  0.00  0.00    +0.234 C 
ATOM      5  O   UNL     1       8.313  -5.296  26.558  0.00  0.00    -0.274 OA
BRANCH   2   6
ATOM      6  C   UNL     1       5.620  -6.011  25.877  0.00  0.00    +0.136 C 
ATOM      7  C   UNL     1       4.912  -6.220  27.212  0.00  0.00    +0.036 C 
BRANCH   6   8
ATOM      8  C   UNL     1       4.738  -6.322  24.646  0.00  0.00    +0.150 C 
ATOM      9  O   UNL     1       4.402  -7.469  24.344  0.00  0.00    -0.296 OA
ATOM     10  C   UNL     1       4.256  -5.151  23.824  0.00  0.00    +0.088 C 
ENDBRANCH   6   8
ENDBRANCH   2   6
ENDBRANCH   1   4
BRANCH   1  11
ATOM     11  N   UNL     1       8.032  -2.561  24.550  0.00  0.00    -0.270 N 
ATOM     12  H   UNL     1       7.217  -2.184  24.084  0.00  0.00    +0.153 HD
ATOM     13  C   UNL     1       9.125  -2.785  23.765  0.00  0.00    +0.401 C 
ATOM     14  O   UNL     1      10.143  -3.339  24.142  0.00  0.00    -0.226 OA
BRANCH  13  15
ATOM     15  O   UNL     1       8.926  -2.215  22.556  0.00  0.00    -0.446 OA
BRANCH  15  16
ATOM     16  C   UNL     1      10.059  -1.511  22.038  0.00  0.00    +0.269 C 
BRANCH  16  17
ATOM     17  C   UNL     1      10.079  -0.065  22.452  0.00  0.00    -0.010 A 
ATOM     18  C   UNL     1      10.717   0.325  23.638  0.00  0.00    +0.007 A 
ATOM     19  C   UNL     1      10.654   1.651  24.071  0.00  0.00    +0.000 A 
ATOM     20  C   UNL     1       9.965   2.600  23.317  0.00  0.00    +0.000 A 
ATOM     21  C   UNL     1       9.351   2.228  22.123  0.00  0.00    +0.000 A 
ATOM     22  C   UNL     1       9.412   0.903  21.689  0.00  0.00    +0.007 A 
ENDBRANCH  16  17
ENDBRANCH  15  16
ENDBRANCH  13  15
ENDBRANCH   1  11
BRANCH   1  23
ATOM     23  C   UNL     1       7.068  -2.051  26.767  0.00  0.00    +0.033 C 
BRANCH  23  24
ATOM     24  C   UNL     1       7.653  -0.683  27.117  0.00  0.00    +0.017 C 
BRANCH  24  25
ATOM     25  C   UNL     1       6.983   0.475  26.384  0.00  0.00    +0.083 C 
BRANCH  25  26
ATOM     26  N   UNL     1       7.409   0.548  24.979  0.00  0.00    -0.289 NA
ATOM     27  H   UNL     1       8.400   0.503  24.778  0.00  0.00    +0.125 HD
BRANCH  26  28
ATOM     28  C   UNL     1       6.449   0.709  23.934  0.00  0.00    +0.188 C 
BRANCH  28  29
ATOM     29  N   UNL     1       5.167   0.952  24.499  0.00  0.00    -0.303 NA
ATOM     30  H   UNL     1       4.775   1.890  24.480  0.00  0.00    +0.121 HD
ATOM     31  H   UNL     1       4.686   0.298  25.105  0.00  0.00    +0.121 HD
ENDBRANCH  28  29
BRANCH  28  32
ATOM     32  N   UNL     1       6.364  -0.468  23.153  0.00  0.00    -0.303 NA
ATOM     33  H   UNL     1       5.860  -0.470  22.258  0.00  0.00    +0.121 HD
ATOM     34  H   UNL     1       6.656  -1.376  23.483  0.00  0.00    +0.121 HD
ENDBRANCH  28  32
ENDBRANCH  26  28
ENDBRANCH  25  26
ENDBRANCH  24  25
ENDBRANCH  23  24
ENDBRANCH   1  23
TORSDOF 14
ENDMDL
MODEL 8
REMARK VINA RESULT:      -6.1      2.278      3.408
REMARK  Name = 
REMARK  16 active torsions:
REMARK  status: ('A' for Active; 'I' for Inactive)
REMARK    1  A    between atoms: C_2  and  C_3
REMARK    2  A    between atoms: C_2  and  N_4
REMARK    3  A    between atoms: C_2  and  C_27
REMARK    4  A    between atoms: C_5  and  C_7
REMARK    5  A    between atoms: C_7  and  C_9
REMARK    6  A    between atoms: C_7  and  N_16
REMARK    7  A    between atoms: C_9  and  C_10
REMARK    8  A    between atoms: C_10  and  C_11
REMARK    9  A    between atoms: C_11  and  N_12
REMARK   10  A    between atoms: N_12  and  C_13
REMARK   11  A    between atoms: C_13  and  N_14
REMARK   12  A    between atoms: C_13  and  N_15
REMARK   13  A    between atoms: C_17  and  O_19
REMARK   14  A    between atoms: O_19  and  C_20
REMARK   15  A    between atoms: C_20  and  C_21
REMARK   16  A    between atoms: C_27  and  C_28
REMARK                            x       y       z     vdW  Elec       q    Type
REMARK                         _______ _______ _______ _____ _____    ______ ____
ROOT
ATOM      1  C   UNL     1       7.491  -3.153  25.028  0.00  0.00    +0.162 C 
ENDROOT
BRANCH   1   4
ATOM      2  N   UNL     1       6.215  -4.816  23.728  0.00  0.00    -0.304 N 
ATOM      3  H   UNL     1       6.958  -5.450  24.000  0.00  0.00    +0.149 HD
ATOM      4  C   UNL     1       6.413  -3.468  23.967  0.00  0.00    +0.234 C 
ATOM      5  O   UNL     1       5.899  -2.571  23.295  0.00  0.00    -0.274 OA
BRANCH   2   6
ATOM      6  C   UNL     1       5.255  -5.310  22.738  0.00  0.00    +0.136 C 
ATOM      7  C   UNL     1       5.951  -5.850  21.492  0.00  0.00    +0.036 C 
BRANCH   6   8
ATOM      8  C   UNL     1       4.245  -6.297  23.367  0.00  0.00    +0.150 C 
ATOM      9  O   UNL     1       4.598  -7.253  24.060  0.00  0.00    -0.296 OA
ATOM     10  C   UNL     1       2.778  -6.029  23.136  0.00  0.00    +0.088 C 
ENDBRANCH   6   8
ENDBRANCH   2   6
ENDBRANCH   1   4
BRANCH   1  11
ATOM     11  N   UNL     1       8.431  -2.156  24.535  0.00  0.00    -0.270 N 
ATOM     12  H   UNL     1       8.157  -1.194  24.380  0.00  0.00    +0.153 HD
ATOM     13  C   UNL     1       9.690  -2.495  24.134  0.00  0.00    +0.401 C 
ATOM     14  O   UNL     1      10.134  -3.631  24.143  0.00  0.00    -0.226 OA
BRANCH  13  15
ATOM     15  O   UNL     1      10.375  -1.372  23.826  0.00  0.00    -0.446 OA
BRANCH  15  16
ATOM     16  C   UNL     1      10.055  -0.813  22.548  0.00  0.00    +0.269 C 
BRANCH  16  17
ATOM     17  C   UNL     1       9.611   0.622  22.642  0.00  0.00    -0.010 A 
ATOM     18  C   UNL     1      10.108   1.454  23.654  0.00  0.00    +0.007 A 
ATOM     19  C   UNL     1       9.627   2.756  23.798  0.00  0.00    +0.000 A 
ATOM     20  C   UNL     1       8.656   3.243  22.924  0.00  0.00    +0.000 A 
ATOM     21  C   UNL     1       8.176   2.433  21.897  0.00  0.00    +0.000 A 
ATOM     22  C   UNL     1       8.656   1.131  21.752  0.00  0.00    +0.007 A 
ENDBRANCH  16  17
ENDBRANCH  15  16
ENDBRANCH  13  15
ENDBRANCH   1  11
BRANCH   1  23
ATOM     23  C   UNL     1       6.837  -2.688  26.346  0.00  0.00    +0.033 C 
BRANCH  23  24
ATOM     24  C   UNL     1       6.297  -3.809  27.234  0.00  0.00    +0.017 C 
BRANCH  24  25
ATOM     25  C   UNL     1       7.051  -5.126  27.084  0.00  0.00    +0.083 C 
BRANCH  25  26
ATOM     26  N   UNL     1       6.148  -6.232  26.735  0.00  0.00    -0.289 NA
ATOM     27  H   UNL     1       6.299  -6.714  25.859  0.00  0.00    +0.125 HD
BRANCH  26  28
ATOM     28  C   UNL     1       5.068  -6.590  27.599  0.00  0.00    +0.188 C 
BRANCH  28  29
ATOM     29  N   UNL     1       5.524  -7.528  28.567  0.00  0.00    -0.303 NA
ATOM     30  H   UNL     1       5.820  -7.206  29.484  0.00  0.00    +0.121 HD
ATOM     31  H   UNL     1       5.768  -8.486  28.349  0.00  0.00    +0.121 HD
ENDBRANCH  28  29
BRANCH  28  32
ATOM     32  N   UNL     1       4.024  -7.198  26.862  0.00  0.00    -0.303 NA
ATOM     33  H   UNL     1       3.270  -7.707  27.340  0.00  0.00    +0.121 HD
ATOM     34  H   UNL     1       4.034  -7.290  25.857  0.00  0.00    +0.121 HD
ENDBRANCH  28  32
ENDBRANCH  26  28
ENDBRANCH  25  26
ENDBRANCH  24  25
ENDBRANCH  23  24
ENDBRANCH   1  23
TORSDOF 14
ENDMDL
MODEL 9
REMARK VINA RESULT:      -6.1      2.722      4.767
REMARK  Name = 
REMARK  16 active torsions:
REMARK  status: ('A' for Active; 'I' for Inactive)
REMARK    1  A    between atoms: C_2  and  C_3
REMARK    2  A    between atoms: C_2  and  N_4
REMARK    3  A    between atoms: C_2  and  C_27
REMARK    4  A    between atoms: C_5  and  C_7
REMARK    5  A    between atoms: C_7  and  C_9
REMARK    6  A    between atoms: C_7  and  N_16
REMARK    7  A    between atoms: C_9  and  C_10
REMARK    8  A    between atoms: C_10  and  C_11
REMARK    9  A    between atoms: C_11  and  N_12
REMARK   10  A    between atoms: N_12  and  C_13
REMARK   11  A    between atoms: C_13  and  N_14
REMARK   12  A    between atoms: C_13  and  N_15
REMARK   13  A    between atoms: C_17  and  O_19
REMARK   14  A    between atoms: O_19  and  C_20
REMARK   15  A    between atoms: C_20  and  C_21
REMARK   16  A    between atoms: C_27  and  C_28
REMARK                            x       y       z     vdW  Elec       q    Type
REMARK                         _______ _______ _______ _____ _____    ______ ____
ROOT
ATOM      1  C   UNL     1       6.638  -4.725  26.674  0.00  0.00    +0.162 C 
ENDROOT
BRANCH   1   4
ATOM      2  N   UNL     1       5.699  -4.841  24.396  0.00  0.00    -0.304 N 
ATOM      3  H   UNL     1       5.814  -3.833  24.406  0.00  0.00    +0.149 HD
ATOM      4  C   UNL     1       5.852  -5.508  25.598  0.00  0.00    +0.234 C 
ATOM      5  O   UNL     1       5.289  -6.572  25.867  0.00  0.00    -0.274 OA
BRANCH   2   6
ATOM      6  C   UNL     1       4.960  -5.409  23.265  0.00  0.00    +0.136 C 
ATOM      7  C   UNL     1       3.466  -5.119  23.358  0.00  0.00    +0.036 C 
BRANCH   6   8
ATOM      8  C   UNL     1       5.592  -5.007  21.913  0.00  0.00    +0.150 C 
ATOM      9  O   UNL     1       5.427  -3.894  21.409  0.00  0.00    -0.296 OA
ATOM     10  C   UNL     1       6.471  -6.025  21.227  0.00  0.00    +0.088 C 
ENDBRANCH   6   8
ENDBRANCH   2   6
ENDBRANCH   1   4
BRANCH   1  11
ATOM     11  N   UNL     1       7.398  -3.638  26.074  0.00  0.00    -0.270 N 
ATOM     12  H   UNL     1       6.954  -2.784  25.761  0.00  0.00    +0.153 HD
ATOM     13  C   UNL     1       8.725  -3.766  25.785  0.00  0.00    +0.401 C 
ATOM     14  O   UNL     1       9.381  -4.774  25.987  0.00  0.00    -0.226 OA
BRANCH  13  15
ATOM     15  O   UNL     1       9.197  -2.581  25.338  0.00  0.00    -0.446 OA
BRANCH  15  16
ATOM     16  C   UNL     1       9.818  -2.637  24.049  0.00  0.00    +0.269 C 
BRANCH  16  17
ATOM     17  C   UNL     1       9.922  -1.283  23.402  0.00  0.00    -0.010 A 
ATOM     18  C   UNL     1      10.326  -0.168  24.148  0.00  0.00    +0.007 A 
ATOM     19  C   UNL     1      10.333   1.104  23.572  0.00  0.00    +0.000 A 
ATOM     20  C   UNL     1       9.949   1.270  22.242  0.00  0.00    +0.000 A 
ATOM     21  C   UNL     1       9.572   0.163  21.484  0.00  0.00    +0.000 A 
ATOM     22  C   UNL     1       9.565  -1.108  22.058  0.00  0.00    +0.007 A 
ENDBRANCH  16  17
ENDBRANCH  15  16
ENDBRANCH  13  15
ENDBRANCH   1  11
BRANCH   1  23
ATOM     23  C   UNL     1       5.685  -4.195  27.764  0.00  0.00    +0.033 C 
BRANCH  23  24
ATOM     24  C   UNL     1       4.416  -3.519  27.244  0.00  0.00    +0.017 C 
BRANCH  24  25
ATOM     25  C   UNL     1       4.627  -2.071  26.812  0.00  0.00    +0.083 C 
BRANCH  25  26
ATOM     26  N   UNL     1       4.680  -1.945  25.348  0.00  0.00    -0.289 NA
ATOM     27  H   UNL     1       3.992  -2.445  24.800  0.00  0.00    +0.125 HD
BRANCH  26  28
ATOM     28  C   UNL     1       5.697  -1.162  24.721  0.00  0.00    +0.188 C 
BRANCH  28  29
ATOM     29  N   UNL     1       6.341  -1.936  23.716  0.00  0.00    -0.303 NA
ATOM     30  H   UNL     1       5.987  -2.860  23.484  0.00  0.00    +0.121 HD
ATOM     31  H   UNL     1       7.258  -1.721  23.344  0.00  0.00    +0.121 HD
ENDBRANCH  28  29
BRANCH  28  32
ATOM     32  N   UNL     1       6.677  -0.773  25.665  0.00  0.00    -0.303 NA
ATOM     33  H   UNL     1       6.415  -0.550  26.633  0.00  0.00    +0.121 HD
ATOM     34  H   UNL     1       7.631  -0.559  25.419  0.00  0.00    +0.121 HD
ENDBRANCH  28  32
ENDBRANCH  26  28
ENDBRANCH  25  26
ENDBRANCH  24  25
ENDBRANCH  23  24
ENDBRANCH   1  23
TORSDOF 14
ENDMDL
