MODEL 1
REMARK VINA RESULT:      -3.7      0.000      0.000
REMARK  Name = 
REMARK  2 active torsions:
REMARK  status: ('A' for Active; 'I' for Inactive)
REMARK    1  A    between atoms: S_1  and  C_2
REMARK    2  A    between atoms: C_2  and  C_3
REMARK                            x       y       z     vdW  Elec       q    Type
REMARK                         _______ _______ _______ _____ _____    ______ ____
ROOT
ATOM      1  C   UNL     1       9.511  -0.425  23.112  0.00  0.00    -0.025 A 
ATOM      2  C   UNL     1       9.241   0.255  24.313  0.00  0.00    +0.017 A 
ATOM      3  I   UNL     1       8.656  -0.716  26.083  0.00  0.00    -0.044 I 
ATOM      4  C   UNL     1       9.357   1.651  24.381  0.00  0.00    +0.014 A 
ATOM      5  C   UNL     1       9.743   2.384  23.260  0.00  0.00    +0.001 A 
ATOM      6  C   UNL     1      10.014   1.727  22.065  0.00  0.00    +0.000 A 
ATOM      7  C   UNL     1       9.901   0.339  21.993  0.00  0.00    +0.005 A 
ENDROOT
BRANCH   1   8
ATOM      8  C   UNL     1       9.448  -1.924  22.955  0.00  0.00    +0.101 C 
BRANCH   8   9
ATOM      9  S   UNL     1       7.801  -2.485  22.435  0.00  0.00    -0.174 S 
ATOM     10  H   UNL     1       8.066  -2.525  21.122  0.00  0.00    +0.102 HD
ENDBRANCH   8   9
ENDBRANCH   1   8
TORSDOF 2
ENDMDL
MODEL 2
REMARK VINA RESULT:      -3.7      3.069      3.825
REMARK  Name = 
REMARK  2 active torsions:
REMARK  status: ('A' for Active; 'I' for Inactive)
REMARK    1  A    between atoms: S_1  and  C_2
REMARK    2  A    between atoms: C_2  and  C_3
REMARK                            x       y       z     vdW  Elec       q    Type
REMARK                         _______ _______ _______ _____ _____    ______ ____
ROOT
ATOM      1  C   UNL     1       7.849  -3.542  23.144  0.00  0.00    -0.025 A 
ATOM      2  C   UNL     1       8.918  -3.533  24.059  0.00  0.00    +0.017 A 
ATOM      3  I   UNL     1       9.087  -4.896  25.650  0.00  0.00    -0.044 I 
ATOM      4  C   UNL     1       9.947  -2.588  23.941  0.00  0.00    +0.014 A 
ATOM      5  C   UNL     1       9.927  -1.644  22.915  0.00  0.00    +0.001 A 
ATOM      6  C   UNL     1       8.878  -1.640  22.002  0.00  0.00    +0.000 A 
ATOM      7  C   UNL     1       7.853  -2.579  22.115  0.00  0.00    +0.005 A 
ENDROOT
BRANCH   1   8
ATOM      8  C   UNL     1       6.720  -4.542  23.171  0.00  0.00    +0.101 C 
BRANCH   8   9
ATOM      9  S   UNL     1       6.936  -5.844  21.924  0.00  0.00    -0.174 S 
ATOM     10  H   UNL     1       5.815  -5.579  21.238  0.00  0.00    +0.102 HD
ENDBRANCH   8   9
ENDBRANCH   1   8
TORSDOF 2
ENDMDL
MODEL 3
REMARK VINA RESULT:      -3.6      2.072      2.698
REMARK  Name = 
REMARK  2 active torsions:
REMARK  status: ('A' for Active; 'I' for Inactive)
REMARK    1  A    between atoms: S_1  and  C_2
REMARK    2  A    between atoms: C_2  and  C_3
REMARK                            x       y       z     vdW  Elec       q    Type
REMARK                         _______ _______ _______ _____ _____    ______ ____
ROOT
ATOM      1  C   UNL     1       9.564   0.241  24.289  0.00  0.00    -0.025 A 
ATOM      2  C   UNL     1       9.216  -0.249  23.017  0.00  0.00    +0.017 A 
ATOM      3  I   UNL     1       8.323  -2.127  22.708  0.00  0.00    -0.044 I 
ATOM      4  C   UNL     1       9.455   0.520  21.869  0.00  0.00    +0.014 A 
ATOM      5  C   UNL     1      10.039   1.781  21.971  0.00  0.00    +0.001 A 
ATOM      6  C   UNL     1      10.389   2.281  23.221  0.00  0.00    +0.000 A 
ATOM      7  C   UNL     1      10.152   1.520  24.366  0.00  0.00    +0.005 A 
ENDROOT
BRANCH   1   8
ATOM      8  C   UNL     1       9.312  -0.498  25.579  0.00  0.00    +0.101 C 
BRANCH   8   9
ATOM      9  S   UNL     1       7.699  -0.080  26.298  0.00  0.00    -0.174 S 
ATOM     10  H   UNL     1       7.805   1.247  26.140  0.00  0.00    +0.102 HD
ENDBRANCH   8   9
ENDBRANCH   1   8
TORSDOF 2
ENDMDL
MODEL 4
REMARK VINA RESULT:      -3.6      5.478      6.156
REMARK  Name = 
REMARK  2 active torsions:
REMARK  status: ('A' for Active; 'I' for Inactive)
REMARK    1  A    between atoms: S_1  and  C_2
REMARK    2  A    between atoms: C_2  and  C_3
REMARK                            x       y       z     vdW  Elec       q    Type
REMARK                         _______ _______ _______ _____ _____    ______ ____
ROOT
ATOM      1  C   UNL     1       7.074  -5.068  24.479  0.00  0.00    -0.025 A 
ATOM      2  C   UNL     1       6.825  -5.378  25.829  0.00  0.00    +0.017 A 
ATOM      3  I   UNL     1       5.000  -6.165  26.514  0.00  0.00    -0.044 I 
ATOM      4  C   UNL     1       7.814  -5.171  26.800  0.00  0.00    +0.014 A 
ATOM      5  C   UNL     1       9.059  -4.656  26.443  0.00  0.00    +0.001 A 
ATOM      6  C   UNL     1       9.322  -4.345  25.113  0.00  0.00    +0.000 A 
ATOM      7  C   UNL     1       8.341  -4.551  24.143  0.00  0.00    +0.005 A 
ENDROOT
BRANCH   1   8
ATOM      8  C   UNL     1       6.085  -5.291  23.362  0.00  0.00    +0.101 C 
BRANCH   8   9
ATOM      9  S   UNL     1       6.881  -5.957  21.873  0.00  0.00    -0.174 S 
ATOM     10  H   UNL     1       5.826  -6.665  21.445  0.00  0.00    +0.102 HD
ENDBRANCH   8   9
ENDBRANCH   1   8
TORSDOF 2
ENDMDL
MODEL 5
REMARK VINA RESULT:      -3.5      3.776      4.704
REMARK  Name = 
REMARK  2 active torsions:
REMARK  status: ('A' for Active; 'I' for Inactive)
REMARK    1  A    between atoms: S_1  and  C_2
REMARK    2  A    between atoms: C_2  and  C_3
REMARK                            x       y       z     vdW  Elec       q    Type
REMARK                         _______ _______ _______ _____ _____    ______ ____
ROOT
ATOM      1  C   UNL     1       8.649  -4.158  24.180  0.00  0.00    -0.025 A 
ATOM      2  C   UNL     1       7.673  -4.010  23.178  0.00  0.00    +0.017 A 
ATOM      3  I   UNL     1       6.129  -5.400  22.856  0.00  0.00    -0.044 I 
ATOM      4  C   UNL     1       7.688  -2.894  22.329  0.00  0.00    +0.014 A 
ATOM      5  C   UNL     1       8.670  -1.914  22.467  0.00  0.00    +0.001 A 
ATOM      6  C   UNL     1       9.642  -2.045  23.453  0.00  0.00    +0.000 A 
ATOM      7  C   UNL     1       9.630  -3.153  24.300  0.00  0.00    +0.005 A 
ENDROOT
BRANCH   1   8
ATOM      8  C   UNL     1       8.690  -5.304  25.160  0.00  0.00    +0.101 C 
BRANCH   8   9
ATOM      9  S   UNL     1       7.794  -4.920  26.692  0.00  0.00    -0.174 S 
ATOM     10  H   UNL     1       6.564  -4.972  26.161  0.00  0.00    +0.102 HD
ENDBRANCH   8   9
ENDBRANCH   1   8
TORSDOF 2
ENDMDL
MODEL 6
REMARK VINA RESULT:      -3.5      4.064      4.831
REMARK  Name = 
REMARK  2 active torsions:
REMARK  status: ('A' for Active; 'I' for Inactive)
REMARK    1  A    between atoms: S_1  and  C_2
REMARK    2  A    between atoms: C_2  and  C_3
REMARK                            x       y       z     vdW  Elec       q    Type
REMARK                         _______ _______ _______ _____ _____    ______ ____
ROOT
ATOM      1  C   UNL     1       8.995   3.381  23.388  0.00  0.00    -0.025 A 
ATOM      2  C   UNL     1       7.803   3.104  22.695  0.00  0.00    +0.017 A 
ATOM      3  I   UNL     1       6.014   4.164  23.007  0.00  0.00    -0.044 I 
ATOM      4  C   UNL     1       7.758   2.082  21.737  0.00  0.00    +0.014 A 
ATOM      5  C   UNL     1       8.895   1.325  21.457  0.00  0.00    +0.001 A 
ATOM      6  C   UNL     1      10.082   1.586  22.132  0.00  0.00    +0.000 A 
ATOM      7  C   UNL     1      10.131   2.604  23.085  0.00  0.00    +0.005 A 
ENDROOT
BRANCH   1   8
ATOM      8  C   UNL     1       9.146   4.484  24.406  0.00  0.00    +0.101 C 
BRANCH   8   9
ATOM      9  S   UNL     1       9.738   6.027  23.655  0.00  0.00    -0.174 S 
ATOM     10  H   UNL     1      11.035   5.842  23.938  0.00  0.00    +0.102 HD
ENDBRANCH   8   9
ENDBRANCH   1   8
TORSDOF 2
ENDMDL
MODEL 7
REMARK VINA RESULT:      -3.5      4.791      5.877
REMARK  Name = 
REMARK  2 active torsions:
REMARK  status: ('A' for Active; 'I' for Inactive)
REMARK    1  A    between atoms: S_1  and  C_2
REMARK    2  A    between atoms: C_2  and  C_3
REMARK                            x       y       z     vdW  Elec       q    Type
REMARK                         _______ _______ _______ _____ _____    ______ ____
ROOT
ATOM      1  C   UNL     1       7.777  -4.361  23.445  0.00  0.00    -0.025 A 
ATOM      2  C   UNL     1       6.977  -3.411  22.785  0.00  0.00    +0.017 A 
ATOM      3  I   UNL     1       6.920  -1.379  23.320  0.00  0.00    -0.044 I 
ATOM      4  C   UNL     1       6.163  -3.791  21.709  0.00  0.00    +0.014 A 
ATOM      5  C   UNL     1       6.135  -5.117  21.277  0.00  0.00    +0.001 A 
ATOM      6  C   UNL     1       6.921  -6.068  21.918  0.00  0.00    +0.000 A 
ATOM      7  C   UNL     1       7.733  -5.694  22.988  0.00  0.00    +0.005 A 
ENDROOT
BRANCH   1   8
ATOM      8  C   UNL     1       8.710  -4.037  24.586  0.00  0.00    +0.101 C 
BRANCH   8   9
ATOM      9  S   UNL     1       8.360  -5.044  26.056  0.00  0.00    -0.174 S 
ATOM     10  H   UNL     1       7.139  -4.544  26.291  0.00  0.00    +0.102 HD
ENDBRANCH   8   9
ENDBRANCH   1   8
TORSDOF 2
ENDMDL
MODEL 8
REMARK VINA RESULT:      -3.4      2.082      2.889
REMARK  Name = 
REMARK  2 active torsions:
REMARK  status: ('A' for Active; 'I' for Inactive)
REMARK    1  A    between atoms: S_1  and  C_2
REMARK    2  A    between atoms: C_2  and  C_3
REMARK                            x       y       z     vdW  Elec       q    Type
REMARK                         _______ _______ _______ _____ _____    ______ ____
ROOT
ATOM      1  C   UNL     1       9.453  -0.317  24.294  0.00  0.00    -0.025 A 
ATOM      2  C   UNL     1       9.195   0.858  23.564  0.00  0.00    +0.017 A 
ATOM      3  I   UNL     1       8.640   2.676  24.462  0.00  0.00    -0.044 I 
ATOM      4  C   UNL     1       9.304   0.866  22.167  0.00  0.00    +0.014 A 
ATOM      5  C   UNL     1       9.670  -0.291  21.480  0.00  0.00    +0.001 A 
ATOM      6  C   UNL     1       9.929  -1.460  22.185  0.00  0.00    +0.000 A 
ATOM      7  C   UNL     1       9.823  -1.472  23.576  0.00  0.00    +0.005 A 
ENDROOT
BRANCH   1   8
ATOM      8  C   UNL     1       9.397  -0.409  25.799  0.00  0.00    +0.101 C 
BRANCH   8   9
ATOM      9  S   UNL     1       8.091  -1.536  26.362  0.00  0.00    -0.174 S 
ATOM     10  H   UNL     1       7.560  -1.765  25.153  0.00  0.00    +0.102 HD
ENDBRANCH   8   9
ENDBRANCH   1   8
TORSDOF 2
ENDMDL
MODEL 9
REMARK VINA RESULT:      -3.4      4.422      5.568
REMARK  Name = 
REMARK  2 active torsions:
REMARK  status: ('A' for Active; 'I' for Inactive)
REMARK    1  A    between atoms: S_1  and  C_2
REMARK    2  A    between atoms: C_2  and  C_3
REMARK                            x       y       z     vdW  Elec       q    Type
REMARK                         _______ _______ _______ _____ _____    ______ ____
ROOT
ATOM      1  C   UNL     1       7.557  -4.263  23.867  0.00  0.00    -0.025 A 
ATOM      2  C   UNL     1       8.475  -3.450  24.556  0.00  0.00    +0.017 A 
ATOM      3  I   UNL     1       9.654  -1.987  23.614  0.00  0.00    -0.044 I 
ATOM      4  C   UNL     1       8.644  -3.583  25.941  0.00  0.00    +0.014 A 
ATOM      5  C   UNL     1       7.904  -4.524  26.656  0.00  0.00    +0.001 A 
ATOM      6  C   UNL     1       6.991  -5.335  25.991  0.00  0.00    +0.000 A 
ATOM      7  C   UNL     1       6.819  -5.205  24.613  0.00  0.00    +0.005 A 
ENDROOT
BRANCH   1   8
ATOM      8  C   UNL     1       7.282  -4.165  22.387  0.00  0.00    +0.101 C 
BRANCH   8   9
ATOM      9  S   UNL     1       6.819  -5.769  21.674  0.00  0.00    -0.174 S 
ATOM     10  H   UNL     1       7.731  -6.495  22.336  0.00  0.00    +0.102 HD
ENDBRANCH   8   9
ENDBRANCH   1   8
TORSDOF 2
ENDMDL
