MODEL 1
REMARK VINA RESULT:      -6.7      0.000      0.000
REMARK  Name = 
REMARK  11 active torsions:
REMARK  status: ('A' for Active; 'I' for Inactive)
REMARK    1  A    between atoms: C_2  and  O_3
REMARK    2  A    between atoms: C_2  and  C_4
REMARK    3  A    between atoms: C_2  and  C_28
REMARK    4  A    between atoms: C_4  and  O_5
REMARK    5  A    between atoms: O_5  and  C_6
REMARK    6  A    between atoms: C_9  and  N_10
REMARK    7  A    between atoms: C_15  and  N_16
REMARK    8  A    between atoms: N_16  and  C_17
REMARK    9  A    between atoms: C_28  and  N_29
REMARK   10  A    between atoms: N_29  and  C_30
REMARK   11  A    between atoms: N_29  and  C_31
REMARK                            x       y       z     vdW  Elec       q    Type
REMARK                         _______ _______ _______ _____ _____    ______ ____
ROOT
ATOM      1  N   UNL     1      10.369   2.750  22.818  0.00  0.00    -0.299 N 
ATOM      2  H   UNL     1      11.358   2.983  22.874  0.00  0.00    +0.154 HD
ATOM      3  C   UNL     1       9.651   3.812  23.393  0.00  0.00    +0.128 A 
ATOM      4  C   UNL     1       8.283   3.721  23.550  0.00  0.00    +0.087 A 
ATOM      5  C   UNL     1       7.666   4.704  24.286  0.00  0.00    +0.128 A 
ATOM      6  N   UNL     1       8.333   5.782  24.723  0.00  0.00    -0.221 NA
ATOM      7  C   UNL     1       9.637   5.833  24.422  0.00  0.00    +0.225 A 
ATOM      8  N   UNL     1      10.344   4.890  23.784  0.00  0.00    -0.221 NA
ENDROOT
BRANCH   1  12
ATOM      9  C   UNL     1       9.737  -1.399  23.356  0.00  0.00    +0.121 A 
ATOM     10  C   UNL     1      10.009  -0.599  24.463  0.00  0.00    +0.047 A 
ATOM     11  C   UNL     1      10.223   0.773  24.301  0.00  0.00    +0.027 A 
ATOM     12  C   UNL     1      10.138   1.375  23.036  0.00  0.00    +0.033 A 
ATOM     13  C   UNL     1       9.867   0.564  21.934  0.00  0.00    +0.027 A 
ATOM     14  C   UNL     1       9.648  -0.805  22.094  0.00  0.00    +0.047 A 
BRANCH   9  15
ATOM     15  O   UNL     1       9.588  -2.738  23.615  0.00  0.00    -0.489 OA
BRANCH  15  16
ATOM     16  C   UNL     1       9.125  -3.047  24.939  0.00  0.00    +0.261 C 
BRANCH  16  17
ATOM     17  C   UNL     1       9.032  -4.565  25.098  0.00  0.00    +0.166 C 
BRANCH  17  18
ATOM     18  O   UNL     1      10.332  -5.146  24.910  0.00  0.00    -0.387 OA
ATOM     19  H   UNL     1      10.612  -4.885  24.013  0.00  0.00    +0.210 HD
ENDBRANCH  17  18
BRANCH  17  20
ATOM     20  C   UNL     1       8.523  -4.942  26.505  0.00  0.00    +0.118 C 
BRANCH  20  21
ATOM     21  N   UNL     1       7.276  -5.735  26.559  0.00  0.00    -0.306 NA
ATOM     22  C   UNL     1       6.447  -5.425  25.390  0.00  0.00    +0.104 C 
ATOM     23  C   UNL     1       6.520  -5.484  27.787  0.00  0.00    +0.104 C 
ENDBRANCH  20  21
ENDBRANCH  17  20
ENDBRANCH  16  17
ENDBRANCH  15  16
ENDBRANCH   9  15
ENDBRANCH   1  12
BRANCH   5  24
ATOM     24  N   UNL     1       6.321   4.509  24.626  0.00  0.00    -0.295 N 
ATOM     25  H   UNL     1       6.170   4.150  25.560  0.00  0.00    +0.154 HD
BRANCH  24  26
ATOM     26  C   UNL     1       5.202   4.483  23.779  0.00  0.00    +0.104 A 
ATOM     27  C   UNL     1       4.576   3.302  23.350  0.00  0.00    +0.147 A 
ATOM     28  F   UNL     1       5.048   2.100  23.715  0.00  0.00    -0.203 F 
ATOM     29  C   UNL     1       3.496   3.328  22.464  0.00  0.00    +0.040 A 
ATOM     30  C   UNL     1       3.009   4.545  21.992  0.00  0.00    +0.006 A 
ATOM     31  C   UNL     1       3.601   5.729  22.415  0.00  0.00    +0.040 A 
ATOM     32  C   UNL     1       4.682   5.689  23.294  0.00  0.00    +0.147 A 
ATOM     33  F   UNL     1       5.251   6.845  23.674  0.00  0.00    -0.203 F 
ENDBRANCH  24  26
ENDBRANCH   5  24
TORSDOF 9
ENDMDL
MODEL 2
REMARK VINA RESULT:      -6.7      2.824      4.009
REMARK  Name = 
REMARK  11 active torsions:
REMARK  status: ('A' for Active; 'I' for Inactive)
REMARK    1  A    between atoms: C_2  and  O_3
REMARK    2  A    between atoms: C_2  and  C_4
REMARK    3  A    between atoms: C_2  and  C_28
REMARK    4  A    between atoms: C_4  and  O_5
REMARK    5  A    between atoms: O_5  and  C_6
REMARK    6  A    between atoms: C_9  and  N_10
REMARK    7  A    between atoms: C_15  and  N_16
REMARK    8  A    between atoms: N_16  and  C_17
REMARK    9  A    between atoms: C_28  and  N_29
REMARK   10  A    between atoms: N_29  and  C_30
REMARK   11  A    between atoms: N_29  and  C_31
REMARK                            x       y       z     vdW  Elec       q    Type
REMARK                         _______ _______ _______ _____ _____    ______ ____
ROOT
ATOM      1  N   UNL     1      10.068   3.680  23.001  0.00  0.00    -0.299 N 
ATOM      2  H   UNL     1      10.959   4.111  22.766  0.00  0.00    +0.154 HD
ATOM      3  C   UNL     1       9.499   4.426  24.047  0.00  0.00    +0.128 A 
ATOM      4  C   UNL     1       8.328   4.004  24.643  0.00  0.00    +0.087 A 
ATOM      5  C   UNL     1       7.925   4.666  25.778  0.00  0.00    +0.128 A 
ATOM      6  N   UNL     1       8.560   5.762  26.219  0.00  0.00    -0.221 NA
ATOM      7  C   UNL     1       9.621   6.158  25.505  0.00  0.00    +0.225 A 
ATOM      8  N   UNL     1      10.139   5.536  24.437  0.00  0.00    -0.221 NA
ENDROOT
BRANCH   1  12
ATOM      9  C   UNL     1      10.213  -0.547  22.884  0.00  0.00    +0.121 A 
ATOM     10  C   UNL     1       9.730   0.152  21.780  0.00  0.00    +0.047 A 
ATOM     11  C   UNL     1       9.674   1.549  21.805  0.00  0.00    +0.027 A 
ATOM     12  C   UNL     1      10.127   2.272  22.919  0.00  0.00    +0.033 A 
ATOM     13  C   UNL     1      10.606   1.562  24.019  0.00  0.00    +0.027 A 
ATOM     14  C   UNL     1      10.669   0.167  23.994  0.00  0.00    +0.047 A 
BRANCH   9  15
ATOM     15  O   UNL     1      10.185  -1.915  22.777  0.00  0.00    -0.489 OA
BRANCH  15  16
ATOM     16  C   UNL     1       9.782  -2.605  23.971  0.00  0.00    +0.261 C 
BRANCH  16  17
ATOM     17  C   UNL     1       8.388  -3.198  23.764  0.00  0.00    +0.166 C 
BRANCH  17  18
ATOM     18  O   UNL     1       8.024  -3.090  22.378  0.00  0.00    -0.387 OA
ATOM     19  H   UNL     1       7.166  -3.547  22.293  0.00  0.00    +0.210 HD
ENDBRANCH  17  18
BRANCH  17  20
ATOM     20  C   UNL     1       8.358  -4.687  24.166  0.00  0.00    +0.118 C 
BRANCH  20  21
ATOM     21  N   UNL     1       7.475  -5.039  25.299  0.00  0.00    -0.306 NA
ATOM     22  C   UNL     1       6.327  -4.128  25.329  0.00  0.00    +0.104 C 
ATOM     23  C   UNL     1       8.183  -4.993  26.580  0.00  0.00    +0.104 C 
ENDBRANCH  20  21
ENDBRANCH  17  20
ENDBRANCH  16  17
ENDBRANCH  15  16
ENDBRANCH   9  15
ENDBRANCH   1  12
BRANCH   5  24
ATOM     24  N   UNL     1       6.861   4.116  26.504  0.00  0.00    -0.295 N 
ATOM     25  H   UNL     1       5.961   4.545  26.326  0.00  0.00    +0.154 HD
BRANCH  24  26
ATOM     26  C   UNL     1       6.914   3.261  27.617  0.00  0.00    +0.104 A 
ATOM     27  C   UNL     1       6.970   3.711  28.944  0.00  0.00    +0.147 A 
ATOM     28  F   UNL     1       7.007   5.023  29.227  0.00  0.00    -0.203 F 
ATOM     29  C   UNL     1       7.074   2.819  30.015  0.00  0.00    +0.040 A 
ATOM     30  C   UNL     1       7.115   1.447  29.778  0.00  0.00    +0.006 A 
ATOM     31  C   UNL     1       7.044   0.974  28.473  0.00  0.00    +0.040 A 
ATOM     32  C   UNL     1       6.946   1.876  27.413  0.00  0.00    +0.147 A 
ATOM     33  F   UNL     1       6.900   1.398  26.159  0.00  0.00    -0.203 F 
ENDBRANCH  24  26
ENDBRANCH   5  24
TORSDOF 9
ENDMDL
MODEL 3
REMARK VINA RESULT:      -6.7      1.604      2.422
REMARK  Name = 
REMARK  11 active torsions:
REMARK  status: ('A' for Active; 'I' for Inactive)
REMARK    1  A    between atoms: C_2  and  O_3
REMARK    2  A    between atoms: C_2  and  C_4
REMARK    3  A    between atoms: C_2  and  C_28
REMARK    4  A    between atoms: C_4  and  O_5
REMARK    5  A    between atoms: O_5  and  C_6
REMARK    6  A    between atoms: C_9  and  N_10
REMARK    7  A    between atoms: C_15  and  N_16
REMARK    8  A    between atoms: N_16  and  C_17
REMARK    9  A    between atoms: C_28  and  N_29
REMARK   10  A    between atoms: N_29  and  C_30
REMARK   11  A    between atoms: N_29  and  C_31
REMARK                            x       y       z     vdW  Elec       q    Type
REMARK                         _______ _______ _______ _____ _____    ______ ____
ROOT
ATOM      1  N   UNL     1      10.318   3.652  23.173  0.00  0.00    -0.299 N 
ATOM      2  H   UNL     1      11.257   3.969  23.406  0.00  0.00    +0.154 HD
ATOM      3  C   UNL     1       9.410   4.489  23.841  0.00  0.00    +0.128 A 
ATOM      4  C   UNL     1       8.057   4.226  23.791  0.00  0.00    +0.087 A 
ATOM      5  C   UNL     1       7.239   4.963  24.613  0.00  0.00    +0.128 A 
ATOM      6  N   UNL     1       7.709   5.990  25.338  0.00  0.00    -0.221 NA
ATOM      7  C   UNL     1       9.020   6.238  25.232  0.00  0.00    +0.225 A 
ATOM      8  N   UNL     1       9.910   5.528  24.524  0.00  0.00    -0.221 NA
ENDROOT
BRANCH   1  12
ATOM      9  C   UNL     1      10.136  -0.558  22.785  0.00  0.00    +0.121 A 
ATOM     10  C   UNL     1      10.551   0.001  23.991  0.00  0.00    +0.047 A 
ATOM     11  C   UNL     1      10.619   1.390  24.134  0.00  0.00    +0.027 A 
ATOM     12  C   UNL     1      10.245   2.245  23.086  0.00  0.00    +0.033 A 
ATOM     13  C   UNL     1       9.833   1.674  21.882  0.00  0.00    +0.027 A 
ATOM     14  C   UNL     1       9.759   0.288  21.739  0.00  0.00    +0.047 A 
BRANCH   9  15
ATOM     15  O   UNL     1      10.148  -1.928  22.732  0.00  0.00    -0.489 OA
BRANCH  15  16
ATOM     16  C   UNL     1       9.775  -2.582  23.957  0.00  0.00    +0.261 C 
BRANCH  16  17
ATOM     17  C   UNL     1       8.498  -3.392  23.727  0.00  0.00    +0.166 C 
BRANCH  17  18
ATOM     18  O   UNL     1       8.740  -4.769  24.057  0.00  0.00    -0.387 OA
ATOM     19  H   UNL     1       8.627  -4.834  25.024  0.00  0.00    +0.210 HD
ENDBRANCH  17  18
BRANCH  17  20
ATOM     20  C   UNL     1       7.347  -2.868  24.610  0.00  0.00    +0.118 C 
BRANCH  20  21
ATOM     21  N   UNL     1       6.298  -2.086  23.921  0.00  0.00    -0.306 NA
ATOM     22  C   UNL     1       6.159  -2.560  22.541  0.00  0.00    +0.104 C 
ATOM     23  C   UNL     1       6.591  -0.652  23.929  0.00  0.00    +0.104 C 
ENDBRANCH  20  21
ENDBRANCH  17  20
ENDBRANCH  16  17
ENDBRANCH  15  16
ENDBRANCH   9  15
ENDBRANCH   1  12
BRANCH   5  24
ATOM     24  N   UNL     1       5.902   4.563  24.724  0.00  0.00    -0.295 N 
ATOM     25  H   UNL     1       5.697   3.995  25.537  0.00  0.00    +0.154 HD
BRANCH  24  26
ATOM     26  C   UNL     1       4.894   4.607  23.747  0.00  0.00    +0.104 A 
ATOM     27  C   UNL     1       4.401   5.797  23.190  0.00  0.00    +0.147 A 
ATOM     28  F   UNL     1       4.860   6.991  23.595  0.00  0.00    -0.203 F 
ATOM     29  C   UNL     1       3.360   5.790  22.258  0.00  0.00    +0.040 A 
ATOM     30  C   UNL     1       2.792   4.583  21.854  0.00  0.00    +0.006 A 
ATOM     31  C   UNL     1       3.274   3.390  22.379  0.00  0.00    +0.040 A 
ATOM     32  C   UNL     1       4.309   3.411  23.313  0.00  0.00    +0.147 A 
ATOM     33  F   UNL     1       4.746   2.248  23.823  0.00  0.00    -0.203 F 
ENDBRANCH  24  26
ENDBRANCH   5  24
TORSDOF 9
ENDMDL
MODEL 4
REMARK VINA RESULT:      -6.7      1.996      2.627
REMARK  Name = 
REMARK  11 active torsions:
REMARK  status: ('A' for Active; 'I' for Inactive)
REMARK    1  A    between atoms: C_2  and  O_3
REMARK    2  A    between atoms: C_2  and  C_4
REMARK    3  A    between atoms: C_2  and  C_28
REMARK    4  A    between atoms: C_4  and  O_5
REMARK    5  A    between atoms: O_5  and  C_6
REMARK    6  A    between atoms: C_9  and  N_10
REMARK    7  A    between atoms: C_15  and  N_16
REMARK    8  A    between atoms: N_16  and  C_17
REMARK    9  A    between atoms: C_28  and  N_29
REMARK   10  A    between atoms: N_29  and  C_30
REMARK   11  A    between atoms: N_29  and  C_31
REMARK                            x       y       z     vdW  Elec       q    Type
REMARK                         _______ _______ _______ _____ _____    ______ ____
ROOT
ATOM      1  N   UNL     1      10.793   3.815  22.987  0.00  0.00    -0.299 N 
ATOM      2  H   UNL     1      11.793   4.000  23.029  0.00  0.00    +0.154 HD
ATOM      3  C   UNL     1      10.148   4.791  23.764  0.00  0.00    +0.128 A 
ATOM      4  C   UNL     1       8.786   4.723  23.974  0.00  0.00    +0.087 A 
ATOM      5  C   UNL     1       8.246   5.591  24.892  0.00  0.00    +0.128 A 
ATOM      6  N   UNL     1       8.978   6.558  25.466  0.00  0.00    -0.221 NA
ATOM      7  C   UNL     1      10.267   6.612  25.110  0.00  0.00    +0.225 A 
ATOM      8  N   UNL     1      10.904   5.764  24.291  0.00  0.00    -0.221 NA
ENDROOT
BRANCH   1  12
ATOM      9  C   UNL     1       9.918  -0.323  23.116  0.00  0.00    +0.121 A 
ATOM     10  C   UNL     1       9.654   0.396  21.953  0.00  0.00    +0.047 A 
ATOM     11  C   UNL     1       9.935   1.765  21.896  0.00  0.00    +0.027 A 
ATOM     12  C   UNL     1      10.513   2.431  22.987  0.00  0.00    +0.033 A 
ATOM     13  C   UNL     1      10.771   1.702  24.147  0.00  0.00    +0.027 A 
ATOM     14  C   UNL     1      10.496   0.334  24.204  0.00  0.00    +0.047 A 
BRANCH   9  15
ATOM     15  O   UNL     1       9.565  -1.648  23.086  0.00  0.00    -0.489 OA
BRANCH  15  16
ATOM     16  C   UNL     1       8.524  -1.973  22.149  0.00  0.00    +0.261 C 
BRANCH  16  17
ATOM     17  C   UNL     1       7.221  -2.218  22.910  0.00  0.00    +0.166 C 
BRANCH  17  18
ATOM     18  O   UNL     1       6.399  -1.042  22.843  0.00  0.00    -0.387 OA
ATOM     19  H   UNL     1       6.700  -0.466  23.571  0.00  0.00    +0.210 HD
ENDBRANCH  17  18
BRANCH  17  20
ATOM     20  C   UNL     1       6.439  -3.400  22.298  0.00  0.00    +0.118 C 
BRANCH  20  21
ATOM     21  N   UNL     1       7.203  -4.648  22.086  0.00  0.00    -0.306 NA
ATOM     22  C   UNL     1       6.426  -5.562  21.244  0.00  0.00    +0.104 C 
ATOM     23  C   UNL     1       7.544  -5.303  23.351  0.00  0.00    +0.104 C 
ENDBRANCH  20  21
ENDBRANCH  17  20
ENDBRANCH  16  17
ENDBRANCH  15  16
ENDBRANCH   9  15
ENDBRANCH   1  12
BRANCH   5  24
ATOM     24  N   UNL     1       6.910   5.390  25.264  0.00  0.00    -0.295 N 
ATOM     25  H   UNL     1       6.703   5.610  26.231  0.00  0.00    +0.154 HD
BRANCH  24  26
ATOM     26  C   UNL     1       5.910   4.684  24.577  0.00  0.00    +0.104 A 
ATOM     27  C   UNL     1       5.570   3.350  24.848  0.00  0.00    +0.147 A 
ATOM     28  F   UNL     1       6.225   2.649  25.787  0.00  0.00    -0.203 F 
ATOM     29  C   UNL     1       4.602   2.676  24.099  0.00  0.00    +0.040 A 
ATOM     30  C   UNL     1       3.941   3.330  23.062  0.00  0.00    +0.006 A 
ATOM     31  C   UNL     1       4.247   4.657  22.784  0.00  0.00    +0.040 A 
ATOM     32  C   UNL     1       5.220   5.316  23.535  0.00  0.00    +0.147 A 
ATOM     33  F   UNL     1       5.515   6.592  23.236  0.00  0.00    -0.203 F 
ENDBRANCH  24  26
ENDBRANCH   5  24
TORSDOF 9
ENDMDL
MODEL 5
REMARK VINA RESULT:      -6.7      1.633      2.263
REMARK  Name = 
REMARK  11 active torsions:
REMARK  status: ('A' for Active; 'I' for Inactive)
REMARK    1  A    between atoms: C_2  and  O_3
REMARK    2  A    between atoms: C_2  and  C_4
REMARK    3  A    between atoms: C_2  and  C_28
REMARK    4  A    between atoms: C_4  and  O_5
REMARK    5  A    between atoms: O_5  and  C_6
REMARK    6  A    between atoms: C_9  and  N_10
REMARK    7  A    between atoms: C_15  and  N_16
REMARK    8  A    between atoms: N_16  and  C_17
REMARK    9  A    between atoms: C_28  and  N_29
REMARK   10  A    between atoms: N_29  and  C_30
REMARK   11  A    between atoms: N_29  and  C_31
REMARK                            x       y       z     vdW  Elec       q    Type
REMARK                         _______ _______ _______ _____ _____    ______ ____
ROOT
ATOM      1  N   UNL     1      10.514   2.872  22.689  0.00  0.00    -0.299 N 
ATOM      2  H   UNL     1      11.491   3.034  22.453  0.00  0.00    +0.154 HD
ATOM      3  C   UNL     1      10.085   3.951  23.480  0.00  0.00    +0.128 A 
ATOM      4  C   UNL     1       8.823   3.945  24.037  0.00  0.00    +0.087 A 
ATOM      5  C   UNL     1       8.531   4.930  24.949  0.00  0.00    +0.128 A 
ATOM      6  N   UNL     1       9.381   5.939  25.194  0.00  0.00    -0.221 NA
ATOM      7  C   UNL     1      10.536   5.916  24.517  0.00  0.00    +0.225 A 
ATOM      8  N   UNL     1      10.945   4.959  23.673  0.00  0.00    -0.221 NA
ENDROOT
BRANCH   1  12
ATOM      9  C   UNL     1       9.765  -1.249  23.289  0.00  0.00    +0.121 A 
ATOM     10  C   UNL     1      10.256  -0.482  24.343  0.00  0.00    +0.047 A 
ATOM     11  C   UNL     1      10.511   0.880  24.159  0.00  0.00    +0.027 A 
ATOM     12  C   UNL     1      10.251   1.506  22.931  0.00  0.00    +0.033 A 
ATOM     13  C   UNL     1       9.762   0.728  21.882  0.00  0.00    +0.027 A 
ATOM     14  C   UNL     1       9.501  -0.631  22.065  0.00  0.00    +0.047 A 
BRANCH   9  15
ATOM     15  O   UNL     1       9.591  -2.583  23.558  0.00  0.00    -0.489 OA
BRANCH  15  16
ATOM     16  C   UNL     1       9.119  -2.874  24.884  0.00  0.00    +0.261 C 
BRANCH  16  17
ATOM     17  C   UNL     1       9.013  -4.389  25.060  0.00  0.00    +0.166 C 
BRANCH  17  18
ATOM     18  O   UNL     1      10.301  -4.987  24.843  0.00  0.00    -0.387 OA
ATOM     19  H   UNL     1      10.123  -5.895  24.531  0.00  0.00    +0.210 HD
ENDBRANCH  17  18
BRANCH  17  20
ATOM     20  C   UNL     1       8.537  -4.748  26.483  0.00  0.00    +0.118 C 
BRANCH  20  21
ATOM     21  N   UNL     1       7.403  -5.692  26.575  0.00  0.00    -0.306 NA
ATOM     22  C   UNL     1       6.478  -5.457  25.462  0.00  0.00    +0.104 C 
ATOM     23  C   UNL     1       6.692  -5.572  27.849  0.00  0.00    +0.104 C 
ENDBRANCH  20  21
ENDBRANCH  17  20
ENDBRANCH  16  17
ENDBRANCH  15  16
ENDBRANCH   9  15
ENDBRANCH   1  12
BRANCH   5  24
ATOM     24  N   UNL     1       7.337   4.810  25.671  0.00  0.00    -0.295 N 
ATOM     25  H   UNL     1       7.221   5.491  26.412  0.00  0.00    +0.154 HD
BRANCH  24  26
ATOM     26  C   UNL     1       6.432   3.736  25.689  0.00  0.00    +0.104 A 
ATOM     27  C   UNL     1       5.433   3.542  24.723  0.00  0.00    +0.147 A 
ATOM     28  F   UNL     1       5.267   4.415  23.717  0.00  0.00    -0.203 F 
ATOM     29  C   UNL     1       4.524   2.485  24.815  0.00  0.00    +0.040 A 
ATOM     30  C   UNL     1       4.601   1.588  25.878  0.00  0.00    +0.006 A 
ATOM     31  C   UNL     1       5.591   1.749  26.839  0.00  0.00    +0.040 A 
ATOM     32  C   UNL     1       6.489   2.812  26.739  0.00  0.00    +0.147 A 
ATOM     33  F   UNL     1       7.426   2.961  27.690  0.00  0.00    -0.203 F 
ENDBRANCH  24  26
ENDBRANCH   5  24
TORSDOF 9
ENDMDL
MODEL 6
REMARK VINA RESULT:      -6.6      2.704      3.792
REMARK  Name = 
REMARK  11 active torsions:
REMARK  status: ('A' for Active; 'I' for Inactive)
REMARK    1  A    between atoms: C_2  and  O_3
REMARK    2  A    between atoms: C_2  and  C_4
REMARK    3  A    between atoms: C_2  and  C_28
REMARK    4  A    between atoms: C_4  and  O_5
REMARK    5  A    between atoms: O_5  and  C_6
REMARK    6  A    between atoms: C_9  and  N_10
REMARK    7  A    between atoms: C_15  and  N_16
REMARK    8  A    between atoms: N_16  and  C_17
REMARK    9  A    between atoms: C_28  and  N_29
REMARK   10  A    between atoms: N_29  and  C_30
REMARK   11  A    between atoms: N_29  and  C_31
REMARK                            x       y       z     vdW  Elec       q    Type
REMARK                         _______ _______ _______ _____ _____    ______ ____
ROOT
ATOM      1  N   UNL     1       9.509  -1.462  23.247  0.00  0.00    -0.299 N 
ATOM      2  H   UNL     1      10.034  -1.891  24.006  0.00  0.00    +0.154 HD
ATOM      3  C   UNL     1       9.810  -0.089  23.247  0.00  0.00    +0.128 A 
ATOM      4  C   UNL     1       9.154   0.765  22.384  0.00  0.00    +0.087 A 
ATOM      5  C   UNL     1       9.352   2.113  22.561  0.00  0.00    +0.128 A 
ATOM      6  N   UNL     1      10.246   2.586  23.442  0.00  0.00    -0.221 NA
ATOM      7  C   UNL     1      10.915   1.671  24.154  0.00  0.00    +0.225 A 
ATOM      8  N   UNL     1      10.735   0.343  24.113  0.00  0.00    -0.221 NA
ENDROOT
BRANCH   1  12
ATOM      9  C   UNL     1       5.720  -3.293  22.805  0.00  0.00    +0.121 A 
ATOM     10  C   UNL     1       5.873  -2.245  23.710  0.00  0.00    +0.047 A 
ATOM     11  C   UNL     1       7.119  -1.632  23.869  0.00  0.00    +0.027 A 
ATOM     12  C   UNL     1       8.226  -2.033  23.106  0.00  0.00    +0.033 A 
ATOM     13  C   UNL     1       8.063  -3.084  22.205  0.00  0.00    +0.027 A 
ATOM     14  C   UNL     1       6.818  -3.694  22.040  0.00  0.00    +0.047 A 
BRANCH   9  15
ATOM     15  O   UNL     1       4.471  -3.856  22.756  0.00  0.00    -0.489 OA
BRANCH  15  16
ATOM     16  C   UNL     1       3.939  -4.255  24.030  0.00  0.00    +0.261 C 
BRANCH  16  17
ATOM     17  C   UNL     1       3.956  -5.780  24.128  0.00  0.00    +0.166 C 
BRANCH  17  18
ATOM     18  O   UNL     1       4.071  -6.343  22.811  0.00  0.00    -0.387 OA
ATOM     19  H   UNL     1       4.259  -5.592  22.217  0.00  0.00    +0.210 HD
ENDBRANCH  17  18
BRANCH  17  20
ATOM     20  C   UNL     1       5.150  -6.265  24.976  0.00  0.00    +0.118 C 
BRANCH  20  21
ATOM     21  N   UNL     1       5.778  -5.257  25.857  0.00  0.00    -0.306 NA
ATOM     22  C   UNL     1       7.222  -5.222  25.610  0.00  0.00    +0.104 C 
ATOM     23  C   UNL     1       5.519  -5.529  27.272  0.00  0.00    +0.104 C 
ENDBRANCH  20  21
ENDBRANCH  17  20
ENDBRANCH  16  17
ENDBRANCH  15  16
ENDBRANCH   9  15
ENDBRANCH   1  12
BRANCH   5  24
ATOM     24  N   UNL     1       8.534   2.988  21.833  0.00  0.00    -0.295 N 
ATOM     25  H   UNL     1       8.978   3.408  21.027  0.00  0.00    +0.154 HD
BRANCH  24  26
ATOM     26  C   UNL     1       7.308   3.557  22.215  0.00  0.00    +0.104 A 
ATOM     27  C   UNL     1       6.127   2.820  22.388  0.00  0.00    +0.147 A 
ATOM     28  F   UNL     1       6.099   1.497  22.162  0.00  0.00    -0.203 F 
ATOM     29  C   UNL     1       4.920   3.442  22.718  0.00  0.00    +0.040 A 
ATOM     30  C   UNL     1       4.871   4.823  22.893  0.00  0.00    +0.006 A 
ATOM     31  C   UNL     1       6.032   5.574  22.744  0.00  0.00    +0.040 A 
ATOM     32  C   UNL     1       7.228   4.941  22.408  0.00  0.00    +0.147 A 
ATOM     33  F   UNL     1       8.333   5.688  22.249  0.00  0.00    -0.203 F 
ENDBRANCH  24  26
ENDBRANCH   5  24
TORSDOF 9
ENDMDL
MODEL 7
REMARK VINA RESULT:      -6.6      3.744      8.088
REMARK  Name = 
REMARK  11 active torsions:
REMARK  status: ('A' for Active; 'I' for Inactive)
REMARK    1  A    between atoms: C_2  and  O_3
REMARK    2  A    between atoms: C_2  and  C_4
REMARK    3  A    between atoms: C_2  and  C_28
REMARK    4  A    between atoms: C_4  and  O_5
REMARK    5  A    between atoms: O_5  and  C_6
REMARK    6  A    between atoms: C_9  and  N_10
REMARK    7  A    between atoms: C_15  and  N_16
REMARK    8  A    between atoms: N_16  and  C_17
REMARK    9  A    between atoms: C_28  and  N_29
REMARK   10  A    between atoms: N_29  and  C_30
REMARK   11  A    between atoms: N_29  and  C_31
REMARK                            x       y       z     vdW  Elec       q    Type
REMARK                         _______ _______ _______ _____ _____    ______ ____
ROOT
ATOM      1  N   UNL     1       6.454  -2.264  25.971  0.00  0.00    -0.299 N 
ATOM      2  H   UNL     1       6.181  -2.895  26.721  0.00  0.00    +0.154 HD
ATOM      3  C   UNL     1       7.601  -2.800  25.362  0.00  0.00    +0.128 A 
ATOM      4  C   UNL     1       8.257  -2.095  24.374  0.00  0.00    +0.087 A 
ATOM      5  C   UNL     1       9.471  -2.581  23.953  0.00  0.00    +0.128 A 
ATOM      6  N   UNL     1       9.945  -3.761  24.379  0.00  0.00    -0.221 NA
ATOM      7  C   UNL     1       9.180  -4.424  25.254  0.00  0.00    +0.225 A 
ATOM      8  N   UNL     1       8.025  -3.998  25.785  0.00  0.00    -0.221 NA
ENDROOT
BRANCH   1  12
ATOM      9  C   UNL     1       5.983   1.804  27.037  0.00  0.00    +0.121 A 
ATOM     10  C   UNL     1       5.140   1.245  26.080  0.00  0.00    +0.047 A 
ATOM     11  C   UNL     1       5.285  -0.097  25.715  0.00  0.00    +0.027 A 
ATOM     12  C   UNL     1       6.253  -0.911  26.322  0.00  0.00    +0.033 A 
ATOM     13  C   UNL     1       7.093  -0.341  27.277  0.00  0.00    +0.027 A 
ATOM     14  C   UNL     1       6.946   0.997  27.647  0.00  0.00    +0.047 A 
BRANCH   9  15
ATOM     15  O   UNL     1       5.788   3.138  27.291  0.00  0.00    -0.489 OA
BRANCH  15  16
ATOM     16  C   UNL     1       6.957   3.842  27.740  0.00  0.00    +0.261 C 
BRANCH  16  17
ATOM     17  C   UNL     1       7.277   4.968  26.756  0.00  0.00    +0.166 C 
BRANCH  17  18
ATOM     18  O   UNL     1       8.233   5.863  27.346  0.00  0.00    -0.387 OA
ATOM     19  H   UNL     1       8.138   5.754  28.311  0.00  0.00    +0.210 HD
ENDBRANCH  17  18
BRANCH  17  20
ATOM     20  C   UNL     1       7.872   4.404  25.449  0.00  0.00    +0.118 C 
BRANCH  20  21
ATOM     21  N   UNL     1       7.164   4.762  24.201  0.00  0.00    -0.306 NA
ATOM     22  C   UNL     1       6.664   3.546  23.554  0.00  0.00    +0.104 C 
ATOM     23  C   UNL     1       8.025   5.503  23.276  0.00  0.00    +0.104 C 
ENDBRANCH  20  21
ENDBRANCH  17  20
ENDBRANCH  16  17
ENDBRANCH  15  16
ENDBRANCH   9  15
ENDBRANCH   1  12
BRANCH   5  24
ATOM     24  N   UNL     1      10.237  -1.765  23.109  0.00  0.00    -0.295 N 
ATOM     25  H   UNL     1      11.024  -2.229  22.674  0.00  0.00    +0.154 HD
BRANCH  24  26
ATOM     26  C   UNL     1      10.224  -0.365  23.002  0.00  0.00    +0.104 A 
ATOM     27  C   UNL     1      10.637   0.499  24.028  0.00  0.00    +0.147 A 
ATOM     28  F   UNL     1      11.049   0.017  25.211  0.00  0.00    -0.203 F 
ATOM     29  C   UNL     1      10.556   1.887  23.891  0.00  0.00    +0.040 A 
ATOM     30  C   UNL     1      10.066   2.445  22.712  0.00  0.00    +0.006 A 
ATOM     31  C   UNL     1       9.667   1.611  21.674  0.00  0.00    +0.040 A 
ATOM     32  C   UNL     1       9.747   0.227  21.826  0.00  0.00    +0.147 A 
ATOM     33  F   UNL     1       9.336  -0.561  20.819  0.00  0.00    -0.203 F 
ENDBRANCH  24  26
ENDBRANCH   5  24
TORSDOF 9
ENDMDL
MODEL 8
REMARK VINA RESULT:      -6.5      1.151      1.859
REMARK  Name = 
REMARK  11 active torsions:
REMARK  status: ('A' for Active; 'I' for Inactive)
REMARK    1  A    between atoms: C_2  and  O_3
REMARK    2  A    between atoms: C_2  and  C_4
REMARK    3  A    between atoms: C_2  and  C_28
REMARK    4  A    between atoms: C_4  and  O_5
REMARK    5  A    between atoms: O_5  and  C_6
REMARK    6  A    between atoms: C_9  and  N_10
REMARK    7  A    between atoms: C_15  and  N_16
REMARK    8  A    between atoms: N_16  and  C_17
REMARK    9  A    between atoms: C_28  and  N_29
REMARK   10  A    between atoms: N_29  and  C_30
REMARK   11  A    between atoms: N_29  and  C_31
REMARK                            x       y       z     vdW  Elec       q    Type
REMARK                         _______ _______ _______ _____ _____    ______ ____
ROOT
ATOM      1  N   UNL     1      10.463   2.130  23.123  0.00  0.00    -0.299 N 
ATOM      2  H   UNL     1      11.246   2.436  23.697  0.00  0.00    +0.154 HD
ATOM      3  C   UNL     1       9.512   3.165  23.117  0.00  0.00    +0.128 A 
ATOM      4  C   UNL     1       8.292   2.983  22.500  0.00  0.00    +0.087 A 
ATOM      5  C   UNL     1       7.338   3.954  22.690  0.00  0.00    +0.128 A 
ATOM      6  N   UNL     1       7.614   5.098  23.333  0.00  0.00    -0.221 NA
ATOM      7  C   UNL     1       8.863   5.228  23.799  0.00  0.00    +0.225 A 
ATOM      8  N   UNL     1       9.835   4.308  23.737  0.00  0.00    -0.221 NA
ENDROOT
BRANCH   1  12
ATOM      9  C   UNL     1       9.741  -2.020  23.514  0.00  0.00    +0.121 A 
ATOM     10  C   UNL     1       9.813  -1.227  24.656  0.00  0.00    +0.047 A 
ATOM     11  C   UNL     1      10.054   0.145  24.543  0.00  0.00    +0.027 A 
ATOM     12  C   UNL     1      10.195   0.754  23.287  0.00  0.00    +0.033 A 
ATOM     13  C   UNL     1      10.124  -0.049  22.150  0.00  0.00    +0.027 A 
ATOM     14  C   UNL     1       9.878  -1.419  22.260  0.00  0.00    +0.047 A 
BRANCH   9  15
ATOM     15  O   UNL     1       9.546  -3.360  23.734  0.00  0.00    -0.489 OA
BRANCH  15  16
ATOM     16  C   UNL     1       8.349  -3.684  24.459  0.00  0.00    +0.261 C 
BRANCH  16  17
ATOM     17  C   UNL     1       8.456  -5.112  24.995  0.00  0.00    +0.166 C 
BRANCH  17  18
ATOM     18  O   UNL     1       9.810  -5.574  24.860  0.00  0.00    -0.387 OA
ATOM     19  H   UNL     1       9.759  -6.548  24.862  0.00  0.00    +0.210 HD
ENDBRANCH  17  18
BRANCH  17  20
ATOM     20  C   UNL     1       8.062  -5.173  26.486  0.00  0.00    +0.118 C 
BRANCH  20  21
ATOM     21  N   UNL     1       6.890  -6.012  26.819  0.00  0.00    -0.306 NA
ATOM     22  C   UNL     1       5.856  -5.839  25.795  0.00  0.00    +0.104 C 
ATOM     23  C   UNL     1       6.345  -5.691  28.139  0.00  0.00    +0.104 C 
ENDBRANCH  20  21
ENDBRANCH  17  20
ENDBRANCH  16  17
ENDBRANCH  15  16
ENDBRANCH   9  15
ENDBRANCH   1  12
BRANCH   5  24
ATOM     24  N   UNL     1       6.038   3.679  22.245  0.00  0.00    -0.295 N 
ATOM     25  H   UNL     1       5.966   3.465  21.258  0.00  0.00    +0.154 HD
BRANCH  24  26
ATOM     26  C   UNL     1       4.822   3.923  22.902  0.00  0.00    +0.104 A 
ATOM     27  C   UNL     1       4.057   5.086  22.720  0.00  0.00    +0.147 A 
ATOM     28  F   UNL     1       4.477   6.067  21.907  0.00  0.00    -0.203 F 
ATOM     29  C   UNL     1       2.878   5.304  23.438  0.00  0.00    +0.040 A 
ATOM     30  C   UNL     1       2.431   4.353  24.353  0.00  0.00    +0.006 A 
ATOM     31  C   UNL     1       3.162   3.185  24.539  0.00  0.00    +0.040 A 
ATOM     32  C   UNL     1       4.340   2.982  23.821  0.00  0.00    +0.147 A 
ATOM     33  F   UNL     1       5.041   1.856  24.031  0.00  0.00    -0.203 F 
ENDBRANCH  24  26
ENDBRANCH   5  24
TORSDOF 9
ENDMDL
MODEL 9
REMARK VINA RESULT:      -6.5      3.711      9.299
REMARK  Name = 
REMARK  11 active torsions:
REMARK  status: ('A' for Active; 'I' for Inactive)
REMARK    1  A    between atoms: C_2  and  O_3
REMARK    2  A    between atoms: C_2  and  C_4
REMARK    3  A    between atoms: C_2  and  C_28
REMARK    4  A    between atoms: C_4  and  O_5
REMARK    5  A    between atoms: O_5  and  C_6
REMARK    6  A    between atoms: C_9  and  N_10
REMARK    7  A    between atoms: C_15  and  N_16
REMARK    8  A    between atoms: N_16  and  C_17
REMARK    9  A    between atoms: C_28  and  N_29
REMARK   10  A    between atoms: N_29  and  C_30
REMARK   11  A    between atoms: N_29  and  C_31
REMARK                            x       y       z     vdW  Elec       q    Type
REMARK                         _______ _______ _______ _____ _____    ______ ____
ROOT
ATOM      1  N   UNL     1       7.506  -3.597  22.384  0.00  0.00    -0.299 N 
ATOM      2  H   UNL     1       7.070  -3.473  21.472  0.00  0.00    +0.154 HD
ATOM      3  C   UNL     1       6.757  -4.557  23.085  0.00  0.00    +0.128 A 
ATOM      4  C   UNL     1       7.058  -4.848  24.399  0.00  0.00    +0.087 A 
ATOM      5  C   UNL     1       6.178  -5.650  25.085  0.00  0.00    +0.128 A 
ATOM      6  N   UNL     1       5.138  -6.239  24.476  0.00  0.00    -0.221 NA
ATOM      7  C   UNL     1       4.995  -5.983  23.170  0.00  0.00    +0.225 A 
ATOM      8  N   UNL     1       5.749  -5.154  22.434  0.00  0.00    -0.221 NA
ENDROOT
BRANCH   1  12
ATOM      9  C   UNL     1       8.855   0.068  24.011  0.00  0.00    +0.121 A 
ATOM     10  C   UNL     1       9.769  -0.959  23.786  0.00  0.00    +0.047 A 
ATOM     11  C   UNL     1       9.338  -2.177  23.252  0.00  0.00    +0.027 A 
ATOM     12  C   UNL     1       7.994  -2.379  22.904  0.00  0.00    +0.033 A 
ATOM     13  C   UNL     1       7.087  -1.345  23.136  0.00  0.00    +0.027 A 
ATOM     14  C   UNL     1       7.516  -0.127  23.664  0.00  0.00    +0.047 A 
BRANCH   9  15
ATOM     15  O   UNL     1       9.370   1.205  24.581  0.00  0.00    -0.489 OA
BRANCH  15  16
ATOM     16  C   UNL     1      10.651   1.609  24.068  0.00  0.00    +0.261 C 
BRANCH  16  17
ATOM     17  C   UNL     1      10.461   2.783  23.107  0.00  0.00    +0.166 C 
BRANCH  17  18
ATOM     18  O   UNL     1      10.255   2.283  21.776  0.00  0.00    -0.387 OA
ATOM     19  H   UNL     1      11.031   2.572  21.261  0.00  0.00    +0.210 HD
ENDBRANCH  17  18
BRANCH  17  20
ATOM     20  C   UNL     1       9.237   3.632  23.509  0.00  0.00    +0.118 C 
BRANCH  20  21
ATOM     21  N   UNL     1       9.508   4.804  24.370  0.00  0.00    -0.306 NA
ATOM     22  C   UNL     1       8.454   4.925  25.380  0.00  0.00    +0.104 C 
ATOM     23  C   UNL     1       9.602   6.042  23.594  0.00  0.00    +0.104 C 
ENDBRANCH  20  21
ENDBRANCH  17  20
ENDBRANCH  16  17
ENDBRANCH  15  16
ENDBRANCH   9  15
ENDBRANCH   1  12
BRANCH   5  24
ATOM     24  N   UNL     1       6.363  -5.778  26.468  0.00  0.00    -0.295 N 
ATOM     25  H   UNL     1       7.083  -6.436  26.738  0.00  0.00    +0.154 HD
BRANCH  24  26
ATOM     26  C   UNL     1       5.523  -5.340  27.505  0.00  0.00    +0.104 A 
ATOM     27  C   UNL     1       5.150  -4.001  27.693  0.00  0.00    +0.147 A 
ATOM     28  F   UNL     1       5.615  -3.035  26.885  0.00  0.00    -0.203 F 
ATOM     29  C   UNL     1       4.354  -3.610  28.772  0.00  0.00    +0.040 A 
ATOM     30  C   UNL     1       3.902  -4.558  29.688  0.00  0.00    +0.006 A 
ATOM     31  C   UNL     1       4.244  -5.894  29.514  0.00  0.00    +0.040 A 
ATOM     32  C   UNL     1       5.045  -6.271  28.436  0.00  0.00    +0.147 A 
ATOM     33  F   UNL     1       5.380  -7.564  28.298  0.00  0.00    -0.203 F 
ENDBRANCH  24  26
ENDBRANCH   5  24
TORSDOF 9
ENDMDL
