MODEL 1
REMARK VINA RESULT:      -4.0      0.000      0.000
REMARK  Name = 
REMARK  8 active torsions:
REMARK  status: ('A' for Active; 'I' for Inactive)
REMARK    1  A    between atoms: C_1  and  C_2
REMARK    2  A    between atoms: C_2  and  C_3
REMARK    3  A    between atoms: C_2  and  C_4
REMARK    4  A    between atoms: C_4  and  O_6
REMARK    5  A    between atoms: C_4  and  CA_7
REMARK    6  A    between atoms: CA_7  and  N_9
REMARK    7  A    between atoms: CA_7  and  C_10
REMARK    8  A    between atoms: C_10  and  O_11
REMARK                            x       y       z     vdW  Elec       q    Type
REMARK                         _______ _______ _______ _____ _____    ______ ____
ROOT
ATOM      1  CA  UNL     1       9.266  -2.248  23.642  0.00  0.00    +0.190 C 
ENDROOT
BRANCH   1   2
ATOM      2  N   UNL     1       9.764  -3.544  24.214  0.00  0.00    -0.316 NA
ATOM      3  H1  UNL     1       9.208  -4.270  23.739  0.00  0.00    +0.119 HD
ATOM      4  H2  UNL     1      10.711  -3.700  23.850  0.00  0.00    +0.119 HD
ENDBRANCH   1   2
BRANCH   1   5
ATOM      5  C   UNL     1       8.008  -2.509  22.814  0.00  0.00    +0.324 C 
ATOM      6  OXT UNL     1       7.717  -3.575  22.301  0.00  0.00    -0.249 OA
BRANCH   5   7
ATOM      7  O   UNL     1       7.230  -1.398  22.732  0.00  0.00    -0.479 OA
ATOM      8  H   UNL     1       7.009  -1.157  23.668  0.00  0.00    +0.295 HD
ENDBRANCH   5   7
ENDBRANCH   1   5
BRANCH   1   9
ATOM      9  C   UNL     1      10.329  -1.471  22.828  0.00  0.00    +0.145 C 
BRANCH   9  11
ATOM     10  C   UNL     1       9.986   0.443  24.542  0.00  0.00    +0.010 C 
ATOM     11  C   UNL     1      10.541   0.027  23.177  0.00  0.00    +0.013 C 
ATOM     12  C   UNL     1       9.905   0.927  22.105  0.00  0.00    +0.010 C 
ENDBRANCH   9  11
BRANCH   9  13
ATOM     13  O   UNL     1       9.971  -1.610  21.441  0.00  0.00    -0.389 OA
ATOM     14  H   UNL     1      10.332  -0.839  20.968  0.00  0.00    +0.210 HD
ENDBRANCH   9  13
ENDBRANCH   1   9
TORSDOF 6
ENDMDL
MODEL 2
REMARK VINA RESULT:      -3.9      3.068      4.234
REMARK  Name = 
REMARK  8 active torsions:
REMARK  status: ('A' for Active; 'I' for Inactive)
REMARK    1  A    between atoms: C_1  and  C_2
REMARK    2  A    between atoms: C_2  and  C_3
REMARK    3  A    between atoms: C_2  and  C_4
REMARK    4  A    between atoms: C_4  and  O_6
REMARK    5  A    between atoms: C_4  and  CA_7
REMARK    6  A    between atoms: CA_7  and  N_9
REMARK    7  A    between atoms: CA_7  and  C_10
REMARK    8  A    between atoms: C_10  and  O_11
REMARK                            x       y       z     vdW  Elec       q    Type
REMARK                         _______ _______ _______ _____ _____    ______ ____
ROOT
ATOM      1  CA  UNL     1       9.222  -4.483  25.471  0.00  0.00    +0.190 C 
ENDROOT
BRANCH   1   2
ATOM      2  N   UNL     1      10.221  -5.601  25.378  0.00  0.00    -0.316 NA
ATOM      3  H1  UNL     1      11.037  -5.267  25.912  0.00  0.00    +0.119 HD
ATOM      4  H2  UNL     1       9.870  -6.378  25.949  0.00  0.00    +0.119 HD
ENDBRANCH   1   2
BRANCH   1   5
ATOM      5  C   UNL     1       8.248  -4.766  26.614  0.00  0.00    +0.324 C 
ATOM      6  OXT UNL     1       7.581  -3.924  27.190  0.00  0.00    -0.249 OA
BRANCH   5   7
ATOM      7  O   UNL     1       8.199  -6.092  26.906  0.00  0.00    -0.479 OA
ATOM      8  H   UNL     1       8.975  -6.497  26.441  0.00  0.00    +0.295 HD
ENDBRANCH   5   7
ENDBRANCH   1   5
BRANCH   1   9
ATOM      9  C   UNL     1       8.474  -4.197  24.146  0.00  0.00    +0.145 C 
BRANCH   9  11
ATOM     10  C   UNL     1       7.844  -2.553  22.244  0.00  0.00    +0.010 C 
ATOM     11  C   UNL     1       8.481  -2.735  23.624  0.00  0.00    +0.013 C 
ATOM     12  C   UNL     1       9.917  -2.189  23.567  0.00  0.00    +0.010 C 
ENDBRANCH   9  11
BRANCH   9  13
ATOM     13  O   UNL     1       7.121  -4.652  24.329  0.00  0.00    -0.389 OA
ATOM     14  H   UNL     1       6.657  -3.979  24.858  0.00  0.00    +0.210 HD
ENDBRANCH   9  13
ENDBRANCH   1   9
TORSDOF 6
ENDMDL
MODEL 3
REMARK VINA RESULT:      -3.9      1.627      2.031
REMARK  Name = 
REMARK  8 active torsions:
REMARK  status: ('A' for Active; 'I' for Inactive)
REMARK    1  A    between atoms: C_1  and  C_2
REMARK    2  A    between atoms: C_2  and  C_3
REMARK    3  A    between atoms: C_2  and  C_4
REMARK    4  A    between atoms: C_4  and  O_6
REMARK    5  A    between atoms: C_4  and  CA_7
REMARK    6  A    between atoms: CA_7  and  N_9
REMARK    7  A    between atoms: CA_7  and  C_10
REMARK    8  A    between atoms: C_10  and  O_11
REMARK                            x       y       z     vdW  Elec       q    Type
REMARK                         _______ _______ _______ _____ _____    ______ ____
ROOT
ATOM      1  CA  UNL     1       9.216  -0.997  23.551  0.00  0.00    +0.190 C 
ENDROOT
BRANCH   1   2
ATOM      2  N   UNL     1       9.690  -0.621  24.925  0.00  0.00    -0.316 NA
ATOM      3  H1  UNL     1       9.596   0.405  24.963  0.00  0.00    +0.119 HD
ATOM      4  H2  UNL     1       8.985  -0.946  25.596  0.00  0.00    +0.119 HD
ENDBRANCH   1   2
BRANCH   1   5
ATOM      5  C   UNL     1       9.070  -2.516  23.462  0.00  0.00    +0.324 C 
ATOM      6  OXT UNL     1       8.110  -3.101  22.992  0.00  0.00    -0.249 OA
BRANCH   5   7
ATOM      7  O   UNL     1      10.164  -3.148  23.960  0.00  0.00    -0.479 OA
ATOM      8  H   UNL     1      10.689  -2.448  24.427  0.00  0.00    +0.295 HD
ENDBRANCH   5   7
ENDBRANCH   1   5
BRANCH   1   9
ATOM      9  C   UNL     1      10.101  -0.445  22.407  0.00  0.00    +0.145 C 
BRANCH   9  11
ATOM     10  C   UNL     1      10.337   2.135  22.490  0.00  0.00    +0.010 C 
ATOM     11  C   UNL     1       9.705   0.927  21.796  0.00  0.00    +0.013 C 
ATOM     12  C   UNL     1       8.177   1.105  21.816  0.00  0.00    +0.010 C 
ENDBRANCH   9  11
BRANCH   9  13
ATOM     13  O   UNL     1      10.130  -1.454  21.382  0.00  0.00    -0.389 OA
ATOM     14  H   UNL     1       9.769  -1.055  20.571  0.00  0.00    +0.210 HD
ENDBRANCH   9  13
ENDBRANCH   1   9
TORSDOF 6
ENDMDL
MODEL 4
REMARK VINA RESULT:      -3.8      2.196      2.511
REMARK  Name = 
REMARK  8 active torsions:
REMARK  status: ('A' for Active; 'I' for Inactive)
REMARK    1  A    between atoms: C_1  and  C_2
REMARK    2  A    between atoms: C_2  and  C_3
REMARK    3  A    between atoms: C_2  and  C_4
REMARK    4  A    between atoms: C_4  and  O_6
REMARK    5  A    between atoms: C_4  and  CA_7
REMARK    6  A    between atoms: CA_7  and  N_9
REMARK    7  A    between atoms: CA_7  and  C_10
REMARK    8  A    between atoms: C_10  and  O_11
REMARK                            x       y       z     vdW  Elec       q    Type
REMARK                         _______ _______ _______ _____ _____    ______ ____
ROOT
ATOM      1  CA  UNL     1      10.270  -1.173  22.915  0.00  0.00    +0.190 C 
ENDROOT
BRANCH   1   2
ATOM      2  N   UNL     1      10.052  -1.507  21.467  0.00  0.00    -0.316 NA
ATOM      3  H1  UNL     1       9.253  -2.158  21.468  0.00  0.00    +0.119 HD
ATOM      4  H2  UNL     1       9.672  -0.671  21.010  0.00  0.00    +0.119 HD
ENDBRANCH   1   2
BRANCH   1   5
ATOM      5  C   UNL     1       9.693  -2.288  23.786  0.00  0.00    +0.324 C 
ATOM      6  OXT UNL     1      10.233  -3.359  24.001  0.00  0.00    -0.249 OA
BRANCH   5   7
ATOM      7  O   UNL     1       8.495  -1.931  24.318  0.00  0.00    -0.479 OA
ATOM      8  H   UNL     1       7.812  -2.413  23.784  0.00  0.00    +0.295 HD
ENDBRANCH   5   7
ENDBRANCH   1   5
BRANCH   1   9
ATOM      9  C   UNL     1       9.720   0.214  23.330  0.00  0.00    +0.145 C 
BRANCH   9  11
ATOM     10  C   UNL     1      10.543   2.652  23.024  0.00  0.00    +0.010 C 
ATOM     11  C   UNL     1       9.967   1.400  22.359  0.00  0.00    +0.013 C 
ATOM     12  C   UNL     1       8.664   1.791  21.642  0.00  0.00    +0.010 C 
ENDBRANCH   9  11
BRANCH   9  13
ATOM     13  O   UNL     1      10.275   0.509  24.625  0.00  0.00    -0.389 OA
ATOM     14  H   UNL     1      10.669   1.397  24.576  0.00  0.00    +0.210 HD
ENDBRANCH   9  13
ENDBRANCH   1   9
TORSDOF 6
ENDMDL
MODEL 5
REMARK VINA RESULT:      -3.7      3.559      4.593
REMARK  Name = 
REMARK  8 active torsions:
REMARK  status: ('A' for Active; 'I' for Inactive)
REMARK    1  A    between atoms: C_1  and  C_2
REMARK    2  A    between atoms: C_2  and  C_3
REMARK    3  A    between atoms: C_2  and  C_4
REMARK    4  A    between atoms: C_4  and  O_6
REMARK    5  A    between atoms: C_4  and  CA_7
REMARK    6  A    between atoms: CA_7  and  N_9
REMARK    7  A    between atoms: CA_7  and  C_10
REMARK    8  A    between atoms: C_10  and  O_11
REMARK                            x       y       z     vdW  Elec       q    Type
REMARK                         _______ _______ _______ _____ _____    ______ ____
ROOT
ATOM      1  CA  UNL     1       8.089   1.625  22.733  0.00  0.00    +0.190 C 
ENDROOT
BRANCH   1   2
ATOM      2  N   UNL     1       6.658   1.381  22.347  0.00  0.00    -0.316 NA
ATOM      3  H1  UNL     1       6.690   1.189  21.335  0.00  0.00    +0.119 HD
ATOM      4  H2  UNL     1       6.379   0.478  22.747  0.00  0.00    +0.119 HD
ENDBRANCH   1   2
BRANCH   1   5
ATOM      5  C   UNL     1       8.285   3.109  23.040  0.00  0.00    +0.324 C 
ATOM      6  OXT UNL     1       8.847   3.551  24.027  0.00  0.00    -0.249 OA
BRANCH   5   7
ATOM      7  O   UNL     1       7.766   3.891  22.058  0.00  0.00    -0.479 OA
ATOM      8  H   UNL     1       8.532   4.405  21.693  0.00  0.00    +0.295 HD
ENDBRANCH   5   7
ENDBRANCH   1   5
BRANCH   1   9
ATOM      9  C   UNL     1       9.116   1.121  21.691  0.00  0.00    +0.145 C 
BRANCH   9  11
ATOM     10  C   UNL     1       9.054  -1.466  21.847  0.00  0.00    +0.010 C 
ATOM     11  C   UNL     1       9.882  -0.190  22.019  0.00  0.00    +0.013 C 
ATOM     12  C   UNL     1      10.419  -0.154  23.460  0.00  0.00    +0.010 C 
ENDBRANCH   9  11
BRANCH   9  13
ATOM     13  O   UNL     1      10.047   2.197  21.473  0.00  0.00    -0.389 OA
ATOM     14  H   UNL     1      10.804   1.832  20.982  0.00  0.00    +0.210 HD
ENDBRANCH   9  13
ENDBRANCH   1   9
TORSDOF 6
ENDMDL
MODEL 6
REMARK VINA RESULT:      -3.7      4.205      5.269
REMARK  Name = 
REMARK  8 active torsions:
REMARK  status: ('A' for Active; 'I' for Inactive)
REMARK    1  A    between atoms: C_1  and  C_2
REMARK    2  A    between atoms: C_2  and  C_3
REMARK    3  A    between atoms: C_2  and  C_4
REMARK    4  A    between atoms: C_4  and  O_6
REMARK    5  A    between atoms: C_4  and  CA_7
REMARK    6  A    between atoms: CA_7  and  N_9
REMARK    7  A    between atoms: CA_7  and  C_10
REMARK    8  A    between atoms: C_10  and  O_11
REMARK                            x       y       z     vdW  Elec       q    Type
REMARK                         _______ _______ _______ _____ _____    ______ ____
ROOT
ATOM      1  CA  UNL     1       7.788  -3.980  25.540  0.00  0.00    +0.190 C 
ENDROOT
BRANCH   1   2
ATOM      2  N   UNL     1       8.391  -2.656  25.916  0.00  0.00    -0.316 NA
ATOM      3  H1  UNL     1       8.360  -2.638  26.946  0.00  0.00    +0.119 HD
ATOM      4  H2  UNL     1       9.396  -2.705  25.713  0.00  0.00    +0.119 HD
ENDBRANCH   1   2
BRANCH   1   5
ATOM      5  C   UNL     1       8.194  -5.033  26.571  0.00  0.00    +0.324 C 
ATOM      6  OXT UNL     1       7.500  -5.971  26.923  0.00  0.00    -0.249 OA
BRANCH   5   7
ATOM      7  O   UNL     1       9.447  -4.806  27.044  0.00  0.00    -0.479 OA
ATOM      8  H   UNL     1       9.921  -5.673  26.971  0.00  0.00    +0.295 HD
ENDBRANCH   5   7
ENDBRANCH   1   5
BRANCH   1   9
ATOM      9  C   UNL     1       8.124  -4.438  24.100  0.00  0.00    +0.145 C 
BRANCH   9  11
ATOM     10  C   UNL     1       5.665  -5.234  23.904  0.00  0.00    +0.010 C 
ATOM     11  C   UNL     1       6.933  -4.794  23.169  0.00  0.00    +0.013 C 
ATOM     12  C   UNL     1       7.331  -5.907  22.185  0.00  0.00    +0.010 C 
ENDBRANCH   9  11
BRANCH   9  13
ATOM     13  O   UNL     1       9.012  -5.564  24.221  0.00  0.00    -0.389 OA
ATOM     14  H   UNL     1       8.994  -6.041  23.372  0.00  0.00    +0.210 HD
ENDBRANCH   9  13
ENDBRANCH   1   9
TORSDOF 6
ENDMDL
MODEL 7
REMARK VINA RESULT:      -3.7      2.133      2.454
REMARK  Name = 
REMARK  8 active torsions:
REMARK  status: ('A' for Active; 'I' for Inactive)
REMARK    1  A    between atoms: C_1  and  C_2
REMARK    2  A    between atoms: C_2  and  C_3
REMARK    3  A    between atoms: C_2  and  C_4
REMARK    4  A    between atoms: C_4  and  O_6
REMARK    5  A    between atoms: C_4  and  CA_7
REMARK    6  A    between atoms: CA_7  and  N_9
REMARK    7  A    between atoms: CA_7  and  C_10
REMARK    8  A    between atoms: C_10  and  O_11
REMARK                            x       y       z     vdW  Elec       q    Type
REMARK                         _______ _______ _______ _____ _____    ______ ____
ROOT
ATOM      1  CA  UNL     1       8.283  -0.346  22.625  0.00  0.00    +0.190 C 
ENDROOT
BRANCH   1   2
ATOM      2  N   UNL     1       6.803  -0.403  22.875  0.00  0.00    -0.316 NA
ATOM      3  H1  UNL     1       6.565   0.528  23.249  0.00  0.00    +0.119 HD
ATOM      4  H2  UNL     1       6.335  -0.413  21.961  0.00  0.00    +0.119 HD
ENDBRANCH   1   2
BRANCH   1   5
ATOM      5  C   UNL     1       8.772  -1.716  22.159  0.00  0.00    +0.324 C 
ATOM      6  OXT UNL     1       8.240  -2.779  22.430  0.00  0.00    -0.249 OA
BRANCH   5   7
ATOM      7  O   UNL     1       9.878  -1.608  21.377  0.00  0.00    -0.479 OA
ATOM      8  H   UNL     1       9.836  -2.373  20.748  0.00  0.00    +0.295 HD
ENDBRANCH   5   7
ENDBRANCH   1   5
BRANCH   1   9
ATOM      9  C   UNL     1       9.104   0.169  23.833  0.00  0.00    +0.145 C 
BRANCH   9  11
ATOM     10  C   UNL     1       9.238   2.708  24.337  0.00  0.00    +0.010 C 
ATOM     11  C   UNL     1       9.882   1.500  23.651  0.00  0.00    +0.013 C 
ATOM     12  C   UNL     1      10.051   1.828  22.158  0.00  0.00    +0.010 C 
ENDBRANCH   9  11
BRANCH   9  13
ATOM     13  O   UNL     1      10.010  -0.889  24.197  0.00  0.00    -0.389 OA
ATOM     14  H   UNL     1       9.694  -1.265  25.037  0.00  0.00    +0.210 HD
ENDBRANCH   9  13
ENDBRANCH   1   9
TORSDOF 6
ENDMDL
MODEL 8
REMARK VINA RESULT:      -3.7      3.720      4.837
REMARK  Name = 
REMARK  8 active torsions:
REMARK  status: ('A' for Active; 'I' for Inactive)
REMARK    1  A    between atoms: C_1  and  C_2
REMARK    2  A    between atoms: C_2  and  C_3
REMARK    3  A    between atoms: C_2  and  C_4
REMARK    4  A    between atoms: C_4  and  O_6
REMARK    5  A    between atoms: C_4  and  CA_7
REMARK    6  A    between atoms: CA_7  and  N_9
REMARK    7  A    between atoms: CA_7  and  C_10
REMARK    8  A    between atoms: C_10  and  O_11
REMARK                            x       y       z     vdW  Elec       q    Type
REMARK                         _______ _______ _______ _____ _____    ______ ____
ROOT
ATOM      1  CA  UNL     1       9.586   1.824  22.978  0.00  0.00    +0.190 C 
ENDROOT
BRANCH   1   2
ATOM      2  N   UNL     1       9.872   2.014  21.516  0.00  0.00    -0.316 NA
ATOM      3  H1  UNL     1      10.393   2.902  21.466  0.00  0.00    +0.119 HD
ATOM      4  H2  UNL     1      10.573   1.316  21.243  0.00  0.00    +0.119 HD
ENDBRANCH   1   2
BRANCH   1   5
ATOM      5  C   UNL     1       9.795   3.147  23.713  0.00  0.00    +0.324 C 
ATOM      6  OXT UNL     1       9.069   3.584  24.589  0.00  0.00    -0.249 OA
BRANCH   5   7
ATOM      7  O   UNL     1      10.915   3.783  23.280  0.00  0.00    -0.479 OA
ATOM      8  H   UNL     1      11.186   4.383  24.021  0.00  0.00    +0.295 HD
ENDBRANCH   5   7
ENDBRANCH   1   5
BRANCH   1   9
ATOM      9  C   UNL     1      10.396   0.678  23.633  0.00  0.00    +0.145 C 
BRANCH   9  11
ATOM     10  C   UNL     1      10.139  -1.540  22.316  0.00  0.00    +0.010 C 
ATOM     11  C   UNL     1       9.786  -0.749  23.578  0.00  0.00    +0.013 C 
ATOM     12  C   UNL     1       8.254  -0.686  23.694  0.00  0.00    +0.010 C 
ENDBRANCH   9  11
BRANCH   9  13
ATOM     13  O   UNL     1      10.630   1.065  24.999  0.00  0.00    -0.389 OA
ATOM     14  H   UNL     1       9.885   1.629  25.273  0.00  0.00    +0.210 HD
ENDBRANCH   9  13
ENDBRANCH   1   9
TORSDOF 6
ENDMDL
MODEL 9
REMARK VINA RESULT:      -3.6      2.505      3.607
REMARK  Name = 
REMARK  8 active torsions:
REMARK  status: ('A' for Active; 'I' for Inactive)
REMARK    1  A    between atoms: C_1  and  C_2
REMARK    2  A    between atoms: C_2  and  C_3
REMARK    3  A    between atoms: C_2  and  C_4
REMARK    4  A    between atoms: C_4  and  O_6
REMARK    5  A    between atoms: C_4  and  CA_7
REMARK    6  A    between atoms: CA_7  and  N_9
REMARK    7  A    between atoms: CA_7  and  C_10
REMARK    8  A    between atoms: C_10  and  O_11
REMARK                            x       y       z     vdW  Elec       q    Type
REMARK                         _______ _______ _______ _____ _____    ______ ____
ROOT
ATOM      1  CA  UNL     1       8.378   0.358  22.746  0.00  0.00    +0.190 C 
ENDROOT
BRANCH   1   2
ATOM      2  N   UNL     1       6.887   0.460  22.590  0.00  0.00    -0.316 NA
ATOM      3  H1  UNL     1       6.675  -0.090  21.745  0.00  0.00    +0.119 HD
ATOM      4  H2  UNL     1       6.459  -0.092  23.342  0.00  0.00    +0.119 HD
ENDBRANCH   1   2
BRANCH   1   5
ATOM      5  C   UNL     1       9.055   1.352  21.803  0.00  0.00    +0.324 C 
ATOM      6  OXT UNL     1      10.175   1.809  21.954  0.00  0.00    -0.249 OA
BRANCH   5   7
ATOM      7  O   UNL     1       8.256   1.657  20.748  0.00  0.00    -0.479 OA
ATOM      8  H   UNL     1       8.807   2.222  20.149  0.00  0.00    +0.295 HD
ENDBRANCH   5   7
ENDBRANCH   1   5
BRANCH   1   9
ATOM      9  C   UNL     1       8.934  -1.074  22.555  0.00  0.00    +0.145 C 
BRANCH   9  11
ATOM     10  C   UNL     1       9.529  -3.009  24.173  0.00  0.00    +0.010 C 
ATOM     11  C   UNL     1       9.893  -1.618  23.648  0.00  0.00    +0.013 C 
ATOM     12  C   UNL     1       9.953  -0.653  24.843  0.00  0.00    +0.010 C 
ENDBRANCH   9  11
BRANCH   9  13
ATOM     13  O   UNL     1       9.581  -1.098  21.270  0.00  0.00    -0.389 OA
ATOM     14  H   UNL     1      10.497  -0.794  21.400  0.00  0.00    +0.210 HD
ENDBRANCH   9  13
ENDBRANCH   1   9
TORSDOF 6
ENDMDL
