MODEL 1
REMARK VINA RESULT:      -7.5      0.000      0.000
REMARK  Name = 
REMARK  8 active torsions:
REMARK  status: ('A' for Active; 'I' for Inactive)
REMARK    1  A    between atoms: C_2  and  N_3
REMARK    2  A    between atoms: C_2  and  C_4
REMARK    3  A    between atoms: C_2  and  C_22
REMARK    4  A    between atoms: C_4  and  O_5
REMARK    5  A    between atoms: O_5  and  C_6
REMARK    6  A    between atoms: C_10  and  C_12
REMARK    7  A    between atoms: C_18  and  C_19
REMARK    8  A    between atoms: C_22  and  C_23
REMARK                            x       y       z     vdW  Elec       q    Type
REMARK                         _______ _______ _______ _____ _____    ______ ____
ROOT
ATOM      1  O   UNL     1       9.263  -0.869  21.224  0.00  0.00    -0.489 OA
ENDROOT
BRANCH   1   2
ATOM      2  C   UNL     1       9.248  -1.796  22.232  0.00  0.00    +0.139 A 
ATOM      3  C   UNL     1       8.119  -2.620  22.297  0.00  0.00    +0.057 A 
ATOM      4  C   UNL     1       8.003  -3.620  23.278  0.00  0.00    +0.004 A 
ATOM      5  C   UNL     1       9.076  -3.711  24.173  0.00  0.00    +0.119 A 
ATOM      6  N   UNL     1      10.186  -2.937  24.150  0.00  0.00    -0.259 NA
ATOM      7  C   UNL     1      10.242  -1.998  23.182  0.00  0.00    +0.156 A 
BRANCH   4   8
ATOM      8  C   UNL     1       6.835  -4.528  23.377  0.00  0.00    -0.016 A 
ATOM      9  C   UNL     1       6.450  -5.100  24.609  0.00  0.00    +0.020 A 
ATOM     10  C   UNL     1       5.357  -5.990  24.671  0.00  0.00    +0.023 A 
ATOM     11  C   UNL     1       4.667  -6.295  23.507  0.00  0.00    +0.066 A 
ATOM     12  N   UNL     1       3.691  -7.177  23.883  0.00  0.00    -0.277 N 
ATOM     13  H   UNL     1       2.999  -7.622  23.292  0.00  0.00    +0.189 HD
ATOM     14  N   UNL     1       3.682  -7.463  25.196  0.00  0.00    -0.178 NA
ATOM     15  C   UNL     1       4.996  -5.750  22.267  0.00  0.00    +0.028 A 
ATOM     16  C   UNL     1       4.700  -6.743  25.685  0.00  0.00    +0.067 A 
ATOM     17  C   UNL     1       5.025  -6.791  27.131  0.00  0.00    +0.068 C 
ATOM     18  C   UNL     1       6.082  -4.864  22.233  0.00  0.00    +0.010 A 
ENDBRANCH   4   8
ENDBRANCH   1   2
BRANCH   1  19
ATOM     19  C   UNL     1       8.663   0.397  21.540  0.00  0.00    +0.247 C 
BRANCH  19  20
ATOM     20  C   UNL     1       9.602   1.227  22.442  0.00  0.00    +0.093 C 
BRANCH  20  21
ATOM     21  N   UNL     1      10.170   2.349  21.672  0.00  0.00    -0.324 NA
ATOM     22  H   UNL     1      11.168   2.420  21.885  0.00  0.00    +0.119 HD
ATOM     23  H   UNL     1      10.103   2.125  20.678  0.00  0.00    +0.119 HD
ENDBRANCH  20  21
BRANCH  20  24
ATOM     24  C   UNL     1       8.806   1.715  23.672  0.00  0.00    +0.059 C 
BRANCH  24  25
ATOM     25  C   UNL     1       8.708   0.719  24.786  0.00  0.00    -0.021 A 
ATOM     26  C   UNL     1       7.584  -0.119  25.083  0.00  0.00    +0.003 A 
ATOM     27  C   UNL     1       7.937  -0.931  26.161  0.00  0.00    +0.047 A 
ATOM     28  C   UNL     1       7.071  -1.890  26.701  0.00  0.00    +0.026 A 
ATOM     29  C   UNL     1       5.803  -2.016  26.127  0.00  0.00    +0.002 A 
ATOM     30  C   UNL     1       5.416  -1.212  25.058  0.00  0.00    +0.001 A 
ATOM     31  N   UNL     1       9.221  -0.592  26.515  0.00  0.00    -0.360 N 
ATOM     32  H   UNL     1       9.738  -1.024  27.269  0.00  0.00    +0.165 HD
ATOM     33  C   UNL     1       6.297  -0.262  24.526  0.00  0.00    +0.010 A 
ATOM     34  C   UNL     1       9.695   0.400  25.698  0.00  0.00    +0.087 A 
ENDBRANCH  24  25
ENDBRANCH  20  24
ENDBRANCH  19  20
ENDBRANCH   1  19
TORSDOF 7
ENDMDL
MODEL 2
REMARK VINA RESULT:      -7.5      2.425      7.246
REMARK  Name = 
REMARK  8 active torsions:
REMARK  status: ('A' for Active; 'I' for Inactive)
REMARK    1  A    between atoms: C_2  and  N_3
REMARK    2  A    between atoms: C_2  and  C_4
REMARK    3  A    between atoms: C_2  and  C_22
REMARK    4  A    between atoms: C_4  and  O_5
REMARK    5  A    between atoms: O_5  and  C_6
REMARK    6  A    between atoms: C_10  and  C_12
REMARK    7  A    between atoms: C_18  and  C_19
REMARK    8  A    between atoms: C_22  and  C_23
REMARK                            x       y       z     vdW  Elec       q    Type
REMARK                         _______ _______ _______ _____ _____    ______ ____
ROOT
ATOM      1  O   UNL     1       7.734  -5.611  27.526  0.00  0.00    -0.489 OA
ENDROOT
BRANCH   1   2
ATOM      2  C   UNL     1       8.321  -4.939  26.486  0.00  0.00    +0.139 A 
ATOM      3  C   UNL     1       8.109  -3.557  26.445  0.00  0.00    +0.057 A 
ATOM      4  C   UNL     1       8.678  -2.763  25.434  0.00  0.00    +0.004 A 
ATOM      5  C   UNL     1       9.442  -3.453  24.487  0.00  0.00    +0.119 A 
ATOM      6  N   UNL     1       9.675  -4.786  24.485  0.00  0.00    -0.259 NA
ATOM      7  C   UNL     1       9.106  -5.495  25.483  0.00  0.00    +0.156 A 
BRANCH   4   8
ATOM      8  C   UNL     1       8.495  -1.294  25.358  0.00  0.00    -0.016 A 
ATOM      9  C   UNL     1       9.087  -0.531  24.328  0.00  0.00    +0.020 A 
ATOM     10  C   UNL     1       8.929   0.871  24.297  0.00  0.00    +0.023 A 
ATOM     11  C   UNL     1       8.185   1.488  25.292  0.00  0.00    +0.066 A 
ATOM     12  N   UNL     1       8.227   2.825  25.000  0.00  0.00    -0.277 N 
ATOM     13  H   UNL     1       7.799   3.584  25.518  0.00  0.00    +0.189 HD
ATOM     14  N   UNL     1       8.928   3.127  23.894  0.00  0.00    -0.178 NA
ATOM     15  C   UNL     1       7.568   0.784  26.324  0.00  0.00    +0.028 A 
ATOM     16  C   UNL     1       9.363   1.937  23.459  0.00  0.00    +0.067 A 
ATOM     17  C   UNL     1      10.194   1.845  22.235  0.00  0.00    +0.068 C 
ATOM     18  C   UNL     1       7.735  -0.608  26.329  0.00  0.00    +0.010 A 
ENDBRANCH   4   8
ENDBRANCH   1   2
BRANCH   1  19
ATOM     19  C   UNL     1       6.350  -5.302  27.758  0.00  0.00    +0.247 C 
BRANCH  19  20
ATOM     20  C   UNL     1       5.443  -6.284  26.985  0.00  0.00    +0.093 C 
BRANCH  20  21
ATOM     21  N   UNL     1       4.942  -7.326  27.902  0.00  0.00    -0.324 NA
ATOM     22  H   UNL     1       4.027  -7.037  28.256  0.00  0.00    +0.119 HD
ATOM     23  H   UNL     1       4.786  -8.180  27.364  0.00  0.00    +0.119 HD
ENDBRANCH  20  21
BRANCH  20  24
ATOM     24  C   UNL     1       4.293  -5.488  26.332  0.00  0.00    +0.059 C 
BRANCH  24  25
ATOM     25  C   UNL     1       4.738  -4.387  25.418  0.00  0.00    -0.021 A 
ATOM     26  C   UNL     1       5.484  -4.537  24.204  0.00  0.00    +0.003 A 
ATOM     27  C   UNL     1       5.634  -3.269  23.643  0.00  0.00    +0.047 A 
ATOM     28  C   UNL     1       6.303  -3.052  22.432  0.00  0.00    +0.026 A 
ATOM     29  C   UNL     1       6.843  -4.165  21.780  0.00  0.00    +0.002 A 
ATOM     30  C   UNL     1       6.722  -5.442  22.321  0.00  0.00    +0.001 A 
ATOM     31  N   UNL     1       5.014  -2.380  24.488  0.00  0.00    -0.360 N 
ATOM     32  H   UNL     1       4.962  -1.383  24.329  0.00  0.00    +0.165 HD
ATOM     33  C   UNL     1       6.044  -5.642  23.530  0.00  0.00    +0.010 A 
ATOM     34  C   UNL     1       4.473  -3.039  25.560  0.00  0.00    +0.087 A 
ENDBRANCH  24  25
ENDBRANCH  20  24
ENDBRANCH  19  20
ENDBRANCH   1  19
TORSDOF 7
ENDMDL
MODEL 3
REMARK VINA RESULT:      -7.4      2.924      8.031
REMARK  Name = 
REMARK  8 active torsions:
REMARK  status: ('A' for Active; 'I' for Inactive)
REMARK    1  A    between atoms: C_2  and  N_3
REMARK    2  A    between atoms: C_2  and  C_4
REMARK    3  A    between atoms: C_2  and  C_22
REMARK    4  A    between atoms: C_4  and  O_5
REMARK    5  A    between atoms: O_5  and  C_6
REMARK    6  A    between atoms: C_10  and  C_12
REMARK    7  A    between atoms: C_18  and  C_19
REMARK    8  A    between atoms: C_22  and  C_23
REMARK                            x       y       z     vdW  Elec       q    Type
REMARK                         _______ _______ _______ _____ _____    ______ ____
ROOT
ATOM      1  O   UNL     1       9.057  -2.566  26.652  0.00  0.00    -0.489 OA
ENDROOT
BRANCH   1   2
ATOM      2  C   UNL     1       8.305  -1.456  26.370  0.00  0.00    +0.139 A 
ATOM      3  C   UNL     1       8.992  -0.369  25.820  0.00  0.00    +0.057 A 
ATOM      4  C   UNL     1       8.320   0.817  25.473  0.00  0.00    +0.004 A 
ATOM      5  C   UNL     1       6.945   0.825  25.731  0.00  0.00    +0.119 A 
ATOM      6  N   UNL     1       6.238  -0.201  26.261  0.00  0.00    -0.259 NA
ATOM      7  C   UNL     1       6.937  -1.314  26.569  0.00  0.00    +0.156 A 
BRANCH   4   8
ATOM      8  C   UNL     1       9.001   1.989  24.873  0.00  0.00    -0.016 A 
ATOM      9  C   UNL     1       8.391   3.262  24.851  0.00  0.00    +0.020 A 
ATOM     10  C   UNL     1       9.043   4.355  24.242  0.00  0.00    +0.023 A 
ATOM     11  C   UNL     1      10.290   4.161  23.666  0.00  0.00    +0.066 A 
ATOM     12  N   UNL     1      10.648   5.379  23.155  0.00  0.00    -0.277 N 
ATOM     13  H   UNL     1      11.497   5.615  22.655  0.00  0.00    +0.189 HD
ATOM     14  N   UNL     1       9.742   6.351  23.360  0.00  0.00    -0.178 NA
ATOM     15  C   UNL     1      10.944   2.930  23.670  0.00  0.00    +0.028 A 
ATOM     16  C   UNL     1       8.756   5.732  24.022  0.00  0.00    +0.067 A 
ATOM     17  C   UNL     1       7.546   6.482  24.436  0.00  0.00    +0.068 C 
ATOM     18  C   UNL     1      10.278   1.862  24.287  0.00  0.00    +0.010 A 
ENDBRANCH   4   8
ENDBRANCH   1   2
BRANCH   1  19
ATOM     19  C   UNL     1       8.488  -3.819  26.238  0.00  0.00    +0.247 C 
BRANCH  19  20
ATOM     20  C   UNL     1       9.190  -4.335  24.964  0.00  0.00    +0.093 C 
BRANCH  20  21
ATOM     21  N   UNL     1       9.818  -5.642  25.235  0.00  0.00    -0.324 NA
ATOM     22  H   UNL     1      10.384  -5.563  26.082  0.00  0.00    +0.119 HD
ATOM     23  H   UNL     1       9.080  -6.317  25.442  0.00  0.00    +0.119 HD
ENDBRANCH  20  21
BRANCH  20  24
ATOM     24  C   UNL     1       8.153  -4.418  23.823  0.00  0.00    +0.059 C 
BRANCH  24  25
ATOM     25  C   UNL     1       7.574  -3.099  23.410  0.00  0.00    -0.021 A 
ATOM     26  C   UNL     1       8.277  -2.020  22.781  0.00  0.00    +0.003 A 
ATOM     27  C   UNL     1       7.351  -1.010  22.521  0.00  0.00    +0.047 A 
ATOM     28  C   UNL     1       7.700   0.190  21.889  0.00  0.00    +0.026 A 
ATOM     29  C   UNL     1       9.037   0.366  21.521  0.00  0.00    +0.002 A 
ATOM     30  C   UNL     1       9.987  -0.618  21.779  0.00  0.00    +0.001 A 
ATOM     31  N   UNL     1       6.135  -1.450  22.985  0.00  0.00    -0.360 N 
ATOM     32  H   UNL     1       5.275  -0.921  22.926  0.00  0.00    +0.165 HD
ATOM     33  C   UNL     1       9.620  -1.815  22.406  0.00  0.00    +0.010 A 
ATOM     34  C   UNL     1       6.256  -2.704  23.524  0.00  0.00    +0.087 A 
ENDBRANCH  24  25
ENDBRANCH  20  24
ENDBRANCH  19  20
ENDBRANCH   1  19
TORSDOF 7
ENDMDL
MODEL 4
REMARK VINA RESULT:      -7.4      2.784      7.606
REMARK  Name = 
REMARK  8 active torsions:
REMARK  status: ('A' for Active; 'I' for Inactive)
REMARK    1  A    between atoms: C_2  and  N_3
REMARK    2  A    between atoms: C_2  and  C_4
REMARK    3  A    between atoms: C_2  and  C_22
REMARK    4  A    between atoms: C_4  and  O_5
REMARK    5  A    between atoms: O_5  and  C_6
REMARK    6  A    between atoms: C_10  and  C_12
REMARK    7  A    between atoms: C_18  and  C_19
REMARK    8  A    between atoms: C_22  and  C_23
REMARK                            x       y       z     vdW  Elec       q    Type
REMARK                         _______ _______ _______ _____ _____    ______ ____
ROOT
ATOM      1  O   UNL     1       5.339  -2.483  24.182  0.00  0.00    -0.489 OA
ENDROOT
BRANCH   1   2
ATOM      2  C   UNL     1       5.793  -1.405  24.894  0.00  0.00    +0.139 A 
ATOM      3  C   UNL     1       6.106  -0.261  24.152  0.00  0.00    +0.057 A 
ATOM      4  C   UNL     1       6.563   0.911  24.779  0.00  0.00    +0.004 A 
ATOM      5  C   UNL     1       6.693   0.836  26.170  0.00  0.00    +0.119 A 
ATOM      6  N   UNL     1       6.405  -0.246  26.930  0.00  0.00    -0.259 NA
ATOM      7  C   UNL     1       5.965  -1.340  26.272  0.00  0.00    +0.156 A 
BRANCH   4   8
ATOM      8  C   UNL     1       6.891   2.152  24.037  0.00  0.00    -0.016 A 
ATOM      9  C   UNL     1       7.598   3.210  24.649  0.00  0.00    +0.020 A 
ATOM     10  C   UNL     1       7.866   4.397  23.934  0.00  0.00    +0.023 A 
ATOM     11  C   UNL     1       7.426   4.509  22.623  0.00  0.00    +0.066 A 
ATOM     12  N   UNL     1       7.818   5.754  22.214  0.00  0.00    -0.277 N 
ATOM     13  H   UNL     1       7.661   6.186  21.311  0.00  0.00    +0.189 HD
ATOM     14  N   UNL     1       8.485   6.457  23.145  0.00  0.00    -0.178 NA
ATOM     15  C   UNL     1       6.735   3.493  21.966  0.00  0.00    +0.028 A 
ATOM     16  C   UNL     1       8.517   5.634  24.202  0.00  0.00    +0.067 A 
ATOM     17  C   UNL     1       9.178   6.056  25.460  0.00  0.00    +0.068 C 
ATOM     18  C   UNL     1       6.487   2.321  22.696  0.00  0.00    +0.010 A 
ENDBRANCH   4   8
ENDBRANCH   1   2
BRANCH   1  19
ATOM     19  C   UNL     1       5.880  -2.622  22.858  0.00  0.00    +0.247 C 
BRANCH  19  20
ATOM     20  C   UNL     1       7.195  -3.429  22.896  0.00  0.00    +0.093 C 
BRANCH  20  21
ATOM     21  N   UNL     1       7.005  -4.723  22.214  0.00  0.00    -0.324 NA
ATOM     22  H   UNL     1       7.803  -5.325  22.429  0.00  0.00    +0.119 HD
ATOM     23  H   UNL     1       6.184  -5.180  22.613  0.00  0.00    +0.119 HD
ENDBRANCH  20  21
BRANCH  20  24
ATOM     24  C   UNL     1       8.313  -2.590  22.240  0.00  0.00    +0.059 C 
BRANCH  24  25
ATOM     25  C   UNL     1       9.050  -1.689  23.183  0.00  0.00    -0.021 A 
ATOM     26  C   UNL     1       9.521  -0.365  22.904  0.00  0.00    +0.003 A 
ATOM     27  C   UNL     1      10.100   0.131  24.072  0.00  0.00    +0.047 A 
ATOM     28  C   UNL     1      10.649   1.417  24.157  0.00  0.00    +0.026 A 
ATOM     29  C   UNL     1      10.611   2.216  23.010  0.00  0.00    +0.002 A 
ATOM     30  C   UNL     1      10.052   1.745  21.826  0.00  0.00    +0.001 A 
ATOM     31  N   UNL     1       9.998  -0.857  25.022  0.00  0.00    -0.360 N 
ATOM     32  H   UNL     1      10.333  -0.772  25.972  0.00  0.00    +0.165 HD
ATOM     33  C   UNL     1       9.503   0.459  21.760  0.00  0.00    +0.010 A 
ATOM     34  C   UNL     1       9.370  -1.957  24.500  0.00  0.00    +0.087 A 
ENDBRANCH  24  25
ENDBRANCH  20  24
ENDBRANCH  19  20
ENDBRANCH   1  19
TORSDOF 7
ENDMDL
MODEL 5
REMARK VINA RESULT:      -7.4      2.468      6.674
REMARK  Name = 
REMARK  8 active torsions:
REMARK  status: ('A' for Active; 'I' for Inactive)
REMARK    1  A    between atoms: C_2  and  N_3
REMARK    2  A    between atoms: C_2  and  C_4
REMARK    3  A    between atoms: C_2  and  C_22
REMARK    4  A    between atoms: C_4  and  O_5
REMARK    5  A    between atoms: O_5  and  C_6
REMARK    6  A    between atoms: C_10  and  C_12
REMARK    7  A    between atoms: C_18  and  C_19
REMARK    8  A    between atoms: C_22  and  C_23
REMARK                            x       y       z     vdW  Elec       q    Type
REMARK                         _______ _______ _______ _____ _____    ______ ____
ROOT
ATOM      1  O   UNL     1       3.800  -4.503  22.848  0.00  0.00    -0.489 OA
ENDROOT
BRANCH   1   2
ATOM      2  C   UNL     1       5.168  -4.441  22.880  0.00  0.00    +0.139 A 
ATOM      3  C   UNL     1       5.735  -3.185  22.642  0.00  0.00    +0.057 A 
ATOM      4  C   UNL     1       7.128  -2.998  22.669  0.00  0.00    +0.004 A 
ATOM      5  C   UNL     1       7.883  -4.147  22.931  0.00  0.00    +0.119 A 
ATOM      6  N   UNL     1       7.380  -5.381  23.166  0.00  0.00    -0.259 NA
ATOM      7  C   UNL     1       6.036  -5.497  23.132  0.00  0.00    +0.156 A 
BRANCH   4   8
ATOM      8  C   UNL     1       7.775  -1.684  22.439  0.00  0.00    -0.016 A 
ATOM      9  C   UNL     1       7.089  -0.474  22.683  0.00  0.00    +0.020 A 
ATOM     10  C   UNL     1       7.712   0.765  22.422  0.00  0.00    +0.023 A 
ATOM     11  C   UNL     1       9.007   0.777  21.924  0.00  0.00    +0.066 A 
ATOM     12  N   UNL     1       9.322   2.099  21.765  0.00  0.00    -0.277 N 
ATOM     13  H   UNL     1      10.188   2.490  21.412  0.00  0.00    +0.189 HD
ATOM     14  N   UNL     1       8.345   2.947  22.128  0.00  0.00    -0.178 NA
ATOM     15  C   UNL     1       9.734  -0.385  21.677  0.00  0.00    +0.028 A 
ATOM     16  C   UNL     1       7.355   2.139  22.529  0.00  0.00    +0.067 A 
ATOM     17  C   UNL     1       6.074   2.706  23.013  0.00  0.00    +0.068 C 
ATOM     18  C   UNL     1       9.095  -1.603  21.950  0.00  0.00    +0.010 A 
ENDBRANCH   4   8
ENDBRANCH   1   2
BRANCH   1  19
ATOM     19  C   UNL     1       3.173  -4.940  24.065  0.00  0.00    +0.247 C 
BRANCH  19  20
ATOM     20  C   UNL     1       3.145  -3.794  25.099  0.00  0.00    +0.093 C 
BRANCH  20  21
ATOM     21  N   UNL     1       1.779  -3.247  25.200  0.00  0.00    -0.324 NA
ATOM     22  H   UNL     1       1.840  -2.230  25.287  0.00  0.00    +0.119 HD
ATOM     23  H   UNL     1       1.291  -3.433  24.322  0.00  0.00    +0.119 HD
ENDBRANCH  20  21
BRANCH  20  24
ATOM     24  C   UNL     1       3.653  -4.333  26.453  0.00  0.00    +0.059 C 
BRANCH  24  25
ATOM     25  C   UNL     1       5.120  -4.631  26.494  0.00  0.00    -0.021 A 
ATOM     26  C   UNL     1       6.186  -3.678  26.395  0.00  0.00    +0.003 A 
ATOM     27  C   UNL     1       7.387  -4.373  26.535  0.00  0.00    +0.047 A 
ATOM     28  C   UNL     1       8.635  -3.739  26.507  0.00  0.00    +0.026 A 
ATOM     29  C   UNL     1       8.656  -2.354  26.322  0.00  0.00    +0.002 A 
ATOM     30  C   UNL     1       7.475  -1.633  26.166  0.00  0.00    +0.001 A 
ATOM     31  N   UNL     1       7.067  -5.699  26.699  0.00  0.00    -0.360 N 
ATOM     32  H   UNL     1       7.744  -6.439  26.829  0.00  0.00    +0.165 HD
ATOM     33  C   UNL     1       6.235  -2.282  26.203  0.00  0.00    +0.010 A 
ATOM     34  C   UNL     1       5.707  -5.868  26.674  0.00  0.00    +0.087 A 
ENDBRANCH  24  25
ENDBRANCH  20  24
ENDBRANCH  19  20
ENDBRANCH   1  19
TORSDOF 7
ENDMDL
MODEL 6
REMARK VINA RESULT:      -7.3      2.928      3.559
REMARK  Name = 
REMARK  8 active torsions:
REMARK  status: ('A' for Active; 'I' for Inactive)
REMARK    1  A    between atoms: C_2  and  N_3
REMARK    2  A    between atoms: C_2  and  C_4
REMARK    3  A    between atoms: C_2  and  C_22
REMARK    4  A    between atoms: C_4  and  O_5
REMARK    5  A    between atoms: O_5  and  C_6
REMARK    6  A    between atoms: C_10  and  C_12
REMARK    7  A    between atoms: C_18  and  C_19
REMARK    8  A    between atoms: C_22  and  C_23
REMARK                            x       y       z     vdW  Elec       q    Type
REMARK                         _______ _______ _______ _____ _____    ______ ____
ROOT
ATOM      1  O   UNL     1      10.622   1.492  23.798  0.00  0.00    -0.489 OA
ENDROOT
BRANCH   1   2
ATOM      2  C   UNL     1      10.085   0.348  23.269  0.00  0.00    +0.139 A 
ATOM      3  C   UNL     1       9.793  -0.675  24.176  0.00  0.00    +0.057 A 
ATOM      4  C   UNL     1       9.222  -1.887  23.749  0.00  0.00    +0.004 A 
ATOM      5  C   UNL     1       8.991  -1.989  22.373  0.00  0.00    +0.119 A 
ATOM      6  N   UNL     1       9.257  -1.028  21.458  0.00  0.00    -0.259 NA
ATOM      7  C   UNL     1       9.800   0.115  21.929  0.00  0.00    +0.156 A 
BRANCH   4   8
ATOM      8  C   UNL     1       8.880  -2.993  24.675  0.00  0.00    -0.016 A 
ATOM      9  C   UNL     1       7.728  -2.942  25.488  0.00  0.00    +0.020 A 
ATOM     10  C   UNL     1       7.443  -3.990  26.389  0.00  0.00    +0.023 A 
ATOM     11  C   UNL     1       8.310  -5.071  26.462  0.00  0.00    +0.066 A 
ATOM     12  N   UNL     1       7.780  -5.897  27.416  0.00  0.00    -0.277 N 
ATOM     13  H   UNL     1       8.150  -6.782  27.743  0.00  0.00    +0.189 HD
ATOM     14  N   UNL     1       6.636  -5.448  27.961  0.00  0.00    -0.178 NA
ATOM     15  C   UNL     1       9.453  -5.180  25.675  0.00  0.00    +0.028 A 
ATOM     16  C   UNL     1       6.424  -4.281  27.339  0.00  0.00    +0.067 A 
ATOM     17  C   UNL     1       5.236  -3.460  27.673  0.00  0.00    +0.068 C 
ATOM     18  C   UNL     1       9.711  -4.128  24.784  0.00  0.00    +0.010 A 
ENDBRANCH   4   8
ENDBRANCH   1   2
BRANCH   1  19
ATOM     19  C   UNL     1      10.496   2.668  22.983  0.00  0.00    +0.247 C 
BRANCH  19  20
ATOM     20  C   UNL     1       9.854   3.817  23.789  0.00  0.00    +0.093 C 
BRANCH  20  21
ATOM     21  N   UNL     1      10.676   5.035  23.664  0.00  0.00    -0.324 NA
ATOM     22  H   UNL     1      10.707   5.503  24.573  0.00  0.00    +0.119 HD
ATOM     23  H   UNL     1      11.635   4.756  23.450  0.00  0.00    +0.119 HD
ENDBRANCH  20  21
BRANCH  20  24
ATOM     24  C   UNL     1       8.413   4.038  23.279  0.00  0.00    +0.059 C 
BRANCH  24  25
ATOM     25  C   UNL     1       7.554   2.811  23.289  0.00  0.00    -0.021 A 
ATOM     26  C   UNL     1       7.206   2.024  24.435  0.00  0.00    +0.003 A 
ATOM     27  C   UNL     1       6.349   1.012  24.006  0.00  0.00    +0.047 A 
ATOM     28  C   UNL     1       5.798   0.065  24.879  0.00  0.00    +0.026 A 
ATOM     29  C   UNL     1       6.142   0.153  26.231  0.00  0.00    +0.002 A 
ATOM     30  C   UNL     1       7.006   1.144  26.689  0.00  0.00    +0.001 A 
ATOM     31  N   UNL     1       6.190   1.167  22.650  0.00  0.00    -0.360 N 
ATOM     32  H   UNL     1       5.615   0.572  22.069  0.00  0.00    +0.165 HD
ATOM     33  C   UNL     1       7.543   2.085  25.803  0.00  0.00    +0.010 A 
ATOM     34  C   UNL     1       6.911   2.244  22.206  0.00  0.00    +0.087 A 
ENDBRANCH  24  25
ENDBRANCH  20  24
ENDBRANCH  19  20
ENDBRANCH   1  19
TORSDOF 7
ENDMDL
MODEL 7
REMARK VINA RESULT:      -7.2      1.682      2.905
REMARK  Name = 
REMARK  8 active torsions:
REMARK  status: ('A' for Active; 'I' for Inactive)
REMARK    1  A    between atoms: C_2  and  N_3
REMARK    2  A    between atoms: C_2  and  C_4
REMARK    3  A    between atoms: C_2  and  C_22
REMARK    4  A    between atoms: C_4  and  O_5
REMARK    5  A    between atoms: O_5  and  C_6
REMARK    6  A    between atoms: C_10  and  C_12
REMARK    7  A    between atoms: C_18  and  C_19
REMARK    8  A    between atoms: C_22  and  C_23
REMARK                            x       y       z     vdW  Elec       q    Type
REMARK                         _______ _______ _______ _____ _____    ______ ____
ROOT
ATOM      1  O   UNL     1       7.672   1.734  22.338  0.00  0.00    -0.489 OA
ENDROOT
BRANCH   1   2
ATOM      2  C   UNL     1       6.971   0.989  23.248  0.00  0.00    +0.139 A 
ATOM      3  C   UNL     1       6.785  -0.361  22.930  0.00  0.00    +0.057 A 
ATOM      4  C   UNL     1       6.097  -1.226  23.799  0.00  0.00    +0.004 A 
ATOM      5  C   UNL     1       5.611  -0.637  24.972  0.00  0.00    +0.119 A 
ATOM      6  N   UNL     1       5.765   0.661  25.322  0.00  0.00    -0.259 NA
ATOM      7  C   UNL     1       6.438   1.441  24.450  0.00  0.00    +0.156 A 
BRANCH   4   8
ATOM      8  C   UNL     1       5.890  -2.665  23.513  0.00  0.00    -0.016 A 
ATOM      9  C   UNL     1       5.258  -3.517  24.445  0.00  0.00    +0.020 A 
ATOM     10  C   UNL     1       5.105  -4.892  24.166  0.00  0.00    +0.023 A 
ATOM     11  C   UNL     1       5.584  -5.394  22.965  0.00  0.00    +0.066 A 
ATOM     12  N   UNL     1       5.304  -6.733  22.994  0.00  0.00    -0.277 N 
ATOM     13  H   UNL     1       5.518  -7.425  22.285  0.00  0.00    +0.189 HD
ATOM     14  N   UNL     1       4.675  -7.142  24.110  0.00  0.00    -0.178 NA
ATOM     15  C   UNL     1       6.204  -4.598  22.005  0.00  0.00    +0.028 A 
ATOM     16  C   UNL     1       4.551  -6.021  24.833  0.00  0.00    +0.067 A 
ATOM     17  C   UNL     1       3.896  -6.056  26.162  0.00  0.00    +0.068 C 
ATOM     18  C   UNL     1       6.338  -3.234  22.303  0.00  0.00    +0.010 A 
ENDBRANCH   4   8
ENDBRANCH   1   2
BRANCH   1  19
ATOM     19  C   UNL     1       8.576   2.701  22.897  0.00  0.00    +0.247 C 
BRANCH  19  20
ATOM     20  C   UNL     1      10.033   2.203  22.785  0.00  0.00    +0.093 C 
BRANCH  20  21
ATOM     21  N   UNL     1      10.943   3.354  22.631  0.00  0.00    -0.324 NA
ATOM     22  H   UNL     1      10.400   4.158  22.307  0.00  0.00    +0.119 HD
ATOM     23  H   UNL     1      11.307   3.604  23.552  0.00  0.00    +0.119 HD
ENDBRANCH  20  21
BRANCH  20  24
ATOM     24  C   UNL     1      10.370   1.366  24.037  0.00  0.00    +0.059 C 
BRANCH  24  25
ATOM     25  C   UNL     1      10.210  -0.113  23.859  0.00  0.00    -0.021 A 
ATOM     26  C   UNL     1       9.615  -1.025  24.791  0.00  0.00    +0.003 A 
ATOM     27  C   UNL     1       9.620  -2.290  24.204  0.00  0.00    +0.047 A 
ATOM     28  C   UNL     1       9.092  -3.420  24.840  0.00  0.00    +0.026 A 
ATOM     29  C   UNL     1       8.549  -3.253  26.117  0.00  0.00    +0.002 A 
ATOM     30  C   UNL     1       8.541  -2.005  26.735  0.00  0.00    +0.001 A 
ATOM     31  N   UNL     1      10.207  -2.158  22.969  0.00  0.00    -0.360 N 
ATOM     32  H   UNL     1      10.342  -2.918  22.316  0.00  0.00    +0.165 HD
ATOM     33  C   UNL     1       9.068  -0.884  26.083  0.00  0.00    +0.010 A 
ATOM     34  C   UNL     1      10.568  -0.854  22.749  0.00  0.00    +0.087 A 
ENDBRANCH  24  25
ENDBRANCH  20  24
ENDBRANCH  19  20
ENDBRANCH   1  19
TORSDOF 7
ENDMDL
MODEL 8
REMARK VINA RESULT:      -7.1      2.263      7.164
REMARK  Name = 
REMARK  8 active torsions:
REMARK  status: ('A' for Active; 'I' for Inactive)
REMARK    1  A    between atoms: C_2  and  N_3
REMARK    2  A    between atoms: C_2  and  C_4
REMARK    3  A    between atoms: C_2  and  C_22
REMARK    4  A    between atoms: C_4  and  O_5
REMARK    5  A    between atoms: O_5  and  C_6
REMARK    6  A    between atoms: C_10  and  C_12
REMARK    7  A    between atoms: C_18  and  C_19
REMARK    8  A    between atoms: C_22  and  C_23
REMARK                            x       y       z     vdW  Elec       q    Type
REMARK                         _______ _______ _______ _____ _____    ______ ____
ROOT
ATOM      1  O   UNL     1       6.673  -3.959  27.433  0.00  0.00    -0.489 OA
ENDROOT
BRANCH   1   2
ATOM      2  C   UNL     1       7.472  -4.094  26.329  0.00  0.00    +0.139 A 
ATOM      3  C   UNL     1       7.711  -2.929  25.593  0.00  0.00    +0.057 A 
ATOM      4  C   UNL     1       8.531  -2.944  24.451  0.00  0.00    +0.004 A 
ATOM      5  C   UNL     1       9.063  -4.193  24.110  0.00  0.00    +0.119 A 
ATOM      6  N   UNL     1       8.860  -5.345  24.790  0.00  0.00    -0.259 NA
ATOM      7  C   UNL     1       8.068  -5.267  25.880  0.00  0.00    +0.156 A 
BRANCH   4   8
ATOM      8  C   UNL     1       8.827  -1.733  23.649  0.00  0.00    -0.016 A 
ATOM      9  C   UNL     1       8.733  -0.440  24.208  0.00  0.00    +0.020 A 
ATOM     10  C   UNL     1       8.984   0.700  23.415  0.00  0.00    +0.023 A 
ATOM     11  C   UNL     1       9.324   0.532  22.080  0.00  0.00    +0.066 A 
ATOM     12  N   UNL     1       9.487   1.798  21.585  0.00  0.00    -0.277 N 
ATOM     13  H   UNL     1       9.731   2.064  20.638  0.00  0.00    +0.189 HD
ATOM     14  N   UNL     1       9.292   2.773  22.489  0.00  0.00    -0.178 NA
ATOM     15  C   UNL     1       9.443  -0.719  21.481  0.00  0.00    +0.028 A 
ATOM     16  C   UNL     1       8.982   2.110  23.610  0.00  0.00    +0.067 A 
ATOM     17  C   UNL     1       8.686   2.850  24.860  0.00  0.00    +0.068 C 
ATOM     18  C   UNL     1       9.195  -1.836  22.292  0.00  0.00    +0.010 A 
ENDBRANCH   4   8
ENDBRANCH   1   2
BRANCH   1  19
ATOM     19  C   UNL     1       5.357  -3.440  27.184  0.00  0.00    +0.247 C 
BRANCH  19  20
ATOM     20  C   UNL     1       4.300  -4.554  27.345  0.00  0.00    +0.093 C 
BRANCH  20  21
ATOM     21  N   UNL     1       3.411  -4.237  28.479  0.00  0.00    -0.324 NA
ATOM     22  H   UNL     1       2.487  -4.631  28.289  0.00  0.00    +0.119 HD
ATOM     23  H   UNL     1       3.764  -4.717  29.308  0.00  0.00    +0.119 HD
ENDBRANCH  20  21
BRANCH  20  24
ATOM     24  C   UNL     1       3.519  -4.693  26.020  0.00  0.00    +0.059 C 
BRANCH  24  25
ATOM     25  C   UNL     1       4.278  -5.367  24.918  0.00  0.00    -0.021 A 
ATOM     26  C   UNL     1       4.899  -4.727  23.796  0.00  0.00    +0.003 A 
ATOM     27  C   UNL     1       5.540  -5.715  23.050  0.00  0.00    +0.047 A 
ATOM     28  C   UNL     1       6.268  -5.431  21.887  0.00  0.00    +0.026 A 
ATOM     29  C   UNL     1       6.334  -4.098  21.471  0.00  0.00    +0.002 A 
ATOM     30  C   UNL     1       5.693  -3.091  22.188  0.00  0.00    +0.001 A 
ATOM     31  N   UNL     1       5.309  -6.911  23.684  0.00  0.00    -0.360 N 
ATOM     32  H   UNL     1       5.660  -7.804  23.365  0.00  0.00    +0.165 HD
ATOM     33  C   UNL     1       4.975  -3.391  23.351  0.00  0.00    +0.010 A 
ATOM     34  C   UNL     1       4.549  -6.717  24.808  0.00  0.00    +0.087 A 
ENDBRANCH  24  25
ENDBRANCH  20  24
ENDBRANCH  19  20
ENDBRANCH   1  19
TORSDOF 7
ENDMDL
MODEL 9
REMARK VINA RESULT:      -7.0      1.917      6.717
REMARK  Name = 
REMARK  8 active torsions:
REMARK  status: ('A' for Active; 'I' for Inactive)
REMARK    1  A    between atoms: C_2  and  N_3
REMARK    2  A    between atoms: C_2  and  C_4
REMARK    3  A    between atoms: C_2  and  C_22
REMARK    4  A    between atoms: C_4  and  O_5
REMARK    5  A    between atoms: O_5  and  C_6
REMARK    6  A    between atoms: C_10  and  C_12
REMARK    7  A    between atoms: C_18  and  C_19
REMARK    8  A    between atoms: C_22  and  C_23
REMARK                            x       y       z     vdW  Elec       q    Type
REMARK                         _______ _______ _______ _____ _____    ______ ____
ROOT
ATOM      1  O   UNL     1       6.456  -4.879  22.252  0.00  0.00    -0.489 OA
ENDROOT
BRANCH   1   2
ATOM      2  C   UNL     1       7.497  -4.443  23.028  0.00  0.00    +0.139 A 
ATOM      3  C   UNL     1       7.725  -3.063  23.037  0.00  0.00    +0.057 A 
ATOM      4  C   UNL     1       8.755  -2.500  23.813  0.00  0.00    +0.004 A 
ATOM      5  C   UNL     1       9.523  -3.413  24.543  0.00  0.00    +0.119 A 
ATOM      6  N   UNL     1       9.342  -4.754  24.565  0.00  0.00    -0.259 NA
ATOM      7  C   UNL     1       8.335  -5.235  23.804  0.00  0.00    +0.156 A 
BRANCH   4   8
ATOM      8  C   UNL     1       9.024  -1.044  23.868  0.00  0.00    -0.016 A 
ATOM      9  C   UNL     1       8.135  -0.109  23.295  0.00  0.00    +0.020 A 
ATOM     10  C   UNL     1       8.431   1.271  23.328  0.00  0.00    +0.023 A 
ATOM     11  C   UNL     1       9.606   1.694  23.932  0.00  0.00    +0.066 A 
ATOM     12  N   UNL     1       9.615   3.056  23.794  0.00  0.00    -0.277 N 
ATOM     13  H   UNL     1      10.327   3.705  24.109  0.00  0.00    +0.189 HD
ATOM     14  N   UNL     1       8.540   3.553  23.159  0.00  0.00    -0.178 NA
ATOM     15  C   UNL     1      10.512   0.818  24.525  0.00  0.00    +0.028 A 
ATOM     16  C   UNL     1       7.812   2.467  22.869  0.00  0.00    +0.067 A 
ATOM     17  C   UNL     1       6.522   2.601  22.150  0.00  0.00    +0.068 C 
ATOM     18  C   UNL     1      10.192  -0.547  24.484  0.00  0.00    +0.010 A 
ENDBRANCH   4   8
ENDBRANCH   1   2
BRANCH   1  19
ATOM     19  C   UNL     1       5.702  -5.977  22.790  0.00  0.00    +0.247 C 
BRANCH  19  20
ATOM     20  C   UNL     1       4.349  -5.482  23.344  0.00  0.00    +0.093 C 
BRANCH  20  21
ATOM     21  N   UNL     1       3.244  -6.144  22.626  0.00  0.00    -0.324 NA
ATOM     22  H   UNL     1       2.639  -5.424  22.223  0.00  0.00    +0.119 HD
ATOM     23  H   UNL     1       3.636  -6.665  21.840  0.00  0.00    +0.119 HD
ENDBRANCH  20  21
BRANCH  20  24
ATOM     24  C   UNL     1       4.301  -5.760  24.862  0.00  0.00    +0.059 C 
BRANCH  24  25
ATOM     25  C   UNL     1       5.319  -5.010  25.665  0.00  0.00    -0.021 A 
ATOM     26  C   UNL     1       5.471  -3.587  25.733  0.00  0.00    +0.003 A 
ATOM     27  C   UNL     1       6.498  -3.315  26.636  0.00  0.00    +0.047 A 
ATOM     28  C   UNL     1       6.898  -2.012  26.956  0.00  0.00    +0.026 A 
ATOM     29  C   UNL     1       6.234  -0.955  26.327  0.00  0.00    +0.002 A 
ATOM     30  C   UNL     1       5.213  -1.194  25.411  0.00  0.00    +0.001 A 
ATOM     31  N   UNL     1       6.963  -4.525  27.091  0.00  0.00    -0.360 N 
ATOM     32  H   UNL     1       7.710  -4.634  27.764  0.00  0.00    +0.165 HD
ATOM     33  C   UNL     1       4.821  -2.503  25.107  0.00  0.00    +0.010 A 
ATOM     34  C   UNL     1       6.264  -5.552  26.514  0.00  0.00    +0.087 A 
ENDBRANCH  24  25
ENDBRANCH  20  24
ENDBRANCH  19  20
ENDBRANCH   1  19
TORSDOF 7
ENDMDL
