MODEL 1
REMARK VINA RESULT:      -3.4      0.000      0.000
REMARK  Name = 
REMARK  5 active torsions:
REMARK  status: ('A' for Active; 'I' for Inactive)
REMARK    1  A    between atoms: C_1  and  C_2
REMARK    2  A    between atoms: C_2  and  O_3
REMARK    3  A    between atoms: O_3  and  C_4
REMARK    4  A    between atoms: C_4  and  C_6
REMARK    5  A    between atoms: C_6  and  C_7
REMARK                            x       y       z     vdW  Elec       q    Type
REMARK                         _______ _______ _______ _____ _____    ______ ____
ROOT
ATOM      1  C   UNL     1       9.041  -1.893  22.450  0.00  0.00    +0.375 C 
ATOM      2  O   UNL     1       8.018  -2.409  22.037  0.00  0.00    -0.242 OA
ENDROOT
BRANCH   1   3
ATOM      3  C   UNL     1       9.620  -2.196  23.835  0.00  0.00    +0.236 C 
ATOM      4  O   UNL     1      10.116  -3.288  24.093  0.00  0.00    -0.285 OA
ATOM      5  C   UNL     1       9.477  -1.117  24.870  0.00  0.00    +0.099 C 
ENDBRANCH   1   3
BRANCH   1   6
ATOM      6  O   UNL     1       9.874  -1.076  21.769  0.00  0.00    -0.459 OA
BRANCH   6   8
ATOM      7  C   UNL     1       9.978   1.296  22.038  0.00  0.00    +0.048 C 
ATOM      8  C   UNL     1       9.295   0.151  21.313  0.00  0.00    +0.229 C 
ENDBRANCH   6   8
ENDBRANCH   1   6
TORSDOF 3
ENDMDL
MODEL 2
REMARK VINA RESULT:      -3.4      1.292      1.939
REMARK  Name = 
REMARK  5 active torsions:
REMARK  status: ('A' for Active; 'I' for Inactive)
REMARK    1  A    between atoms: C_1  and  C_2
REMARK    2  A    between atoms: C_2  and  O_3
REMARK    3  A    between atoms: O_3  and  C_4
REMARK    4  A    between atoms: C_4  and  C_6
REMARK    5  A    between atoms: C_6  and  C_7
REMARK                            x       y       z     vdW  Elec       q    Type
REMARK                         _______ _______ _______ _____ _____    ______ ____
ROOT
ATOM      1  C   UNL     1       9.958  -2.141  23.760  0.00  0.00    +0.375 C 
ATOM      2  O   UNL     1      10.085  -3.317  24.050  0.00  0.00    -0.242 OA
ENDROOT
BRANCH   1   3
ATOM      3  C   UNL     1       9.450  -1.093  24.756  0.00  0.00    +0.236 C 
ATOM      4  O   UNL     1       8.363  -1.217  25.310  0.00  0.00    -0.285 OA
ATOM      5  C   UNL     1      10.316   0.118  24.950  0.00  0.00    +0.099 C 
ENDBRANCH   1   3
BRANCH   1   6
ATOM      6  O   UNL     1      10.314  -1.543  22.601  0.00  0.00    -0.459 OA
BRANCH   6   8
ATOM      7  C   UNL     1       9.330   0.249  21.364  0.00  0.00    +0.048 C 
ATOM      8  C   UNL     1       9.234  -1.224  21.717  0.00  0.00    +0.229 C 
ENDBRANCH   6   8
ENDBRANCH   1   6
TORSDOF 3
ENDMDL
MODEL 3
REMARK VINA RESULT:      -3.3      1.439      2.141
REMARK  Name = 
REMARK  5 active torsions:
REMARK  status: ('A' for Active; 'I' for Inactive)
REMARK    1  A    between atoms: C_1  and  C_2
REMARK    2  A    between atoms: C_2  and  O_3
REMARK    3  A    between atoms: O_3  and  C_4
REMARK    4  A    between atoms: C_4  and  C_6
REMARK    5  A    between atoms: C_6  and  C_7
REMARK                            x       y       z     vdW  Elec       q    Type
REMARK                         _______ _______ _______ _____ _____    ______ ____
ROOT
ATOM      1  C   UNL     1      10.221  -0.565  23.209  0.00  0.00    +0.375 C 
ATOM      2  O   UNL     1      10.618  -0.026  24.226  0.00  0.00    -0.242 OA
ENDROOT
BRANCH   1   3
ATOM      3  C   UNL     1       9.664  -1.993  23.191  0.00  0.00    +0.236 C 
ATOM      4  O   UNL     1      10.230  -2.903  23.788  0.00  0.00    -0.285 OA
ATOM      5  C   UNL     1       8.444  -2.224  22.347  0.00  0.00    +0.099 C 
ENDBRANCH   1   3
BRANCH   1   6
ATOM      6  O   UNL     1      10.105  -0.009  21.983  0.00  0.00    -0.459 OA
BRANCH   6   8
ATOM      7  C   UNL     1       8.394   1.611  21.585  0.00  0.00    +0.048 C 
ATOM      8  C   UNL     1       9.847   1.400  21.968  0.00  0.00    +0.229 C 
ENDBRANCH   6   8
ENDBRANCH   1   6
TORSDOF 3
ENDMDL
MODEL 4
REMARK VINA RESULT:      -3.3      1.831      2.301
REMARK  Name = 
REMARK  5 active torsions:
REMARK  status: ('A' for Active; 'I' for Inactive)
REMARK    1  A    between atoms: C_1  and  C_2
REMARK    2  A    between atoms: C_2  and  O_3
REMARK    3  A    between atoms: O_3  and  C_4
REMARK    4  A    between atoms: C_4  and  C_6
REMARK    5  A    between atoms: C_6  and  C_7
REMARK                            x       y       z     vdW  Elec       q    Type
REMARK                         _______ _______ _______ _____ _____    ______ ____
ROOT
ATOM      1  C   UNL     1       9.803  -1.776  23.164  0.00  0.00    +0.375 C 
ATOM      2  O   UNL     1      10.639  -1.869  22.283  0.00  0.00    -0.242 OA
ENDROOT
BRANCH   1   3
ATOM      3  C   UNL     1       9.260  -2.992  23.922  0.00  0.00    +0.236 C 
ATOM      4  O   UNL     1      10.014  -3.835  24.396  0.00  0.00    -0.285 OA
ATOM      5  C   UNL     1       7.766  -3.130  23.980  0.00  0.00    +0.099 C 
ENDBRANCH   1   3
BRANCH   1   6
ATOM      6  O   UNL     1       9.294  -0.640  23.688  0.00  0.00    -0.459 OA
BRANCH   6   8
ATOM      7  C   UNL     1      10.985   0.817  24.541  0.00  0.00    +0.048 C 
ATOM      8  C   UNL     1       9.909  -0.191  24.901  0.00  0.00    +0.229 C 
ENDBRANCH   6   8
ENDBRANCH   1   6
TORSDOF 3
ENDMDL
MODEL 5
REMARK VINA RESULT:      -3.2      1.640      3.014
REMARK  Name = 
REMARK  5 active torsions:
REMARK  status: ('A' for Active; 'I' for Inactive)
REMARK    1  A    between atoms: C_1  and  C_2
REMARK    2  A    between atoms: C_2  and  O_3
REMARK    3  A    between atoms: O_3  and  C_4
REMARK    4  A    between atoms: C_4  and  C_6
REMARK    5  A    between atoms: C_6  and  C_7
REMARK                            x       y       z     vdW  Elec       q    Type
REMARK                         _______ _______ _______ _____ _____    ______ ____
ROOT
ATOM      1  C   UNL     1       9.735  -1.883  22.924  0.00  0.00    +0.375 C 
ATOM      2  O   UNL     1      10.262  -2.723  23.632  0.00  0.00    -0.242 OA
ENDROOT
BRANCH   1   3
ATOM      3  C   UNL     1      10.155  -0.410  22.935  0.00  0.00    +0.236 C 
ATOM      4  O   UNL     1      10.759   0.072  23.887  0.00  0.00    -0.285 OA
ATOM      5  C   UNL     1       9.720   0.417  21.759  0.00  0.00    +0.099 C 
ENDBRANCH   1   3
BRANCH   1   6
ATOM      6  O   UNL     1       8.799  -2.090  21.972  0.00  0.00    -0.459 OA
BRANCH   6   8
ATOM      7  C   UNL     1       6.643  -1.765  22.948  0.00  0.00    +0.048 C 
ATOM      8  C   UNL     1       7.625  -2.786  22.404  0.00  0.00    +0.229 C 
ENDBRANCH   6   8
ENDBRANCH   1   6
TORSDOF 3
ENDMDL
MODEL 6
REMARK VINA RESULT:      -3.2      1.212      2.850
REMARK  Name = 
REMARK  5 active torsions:
REMARK  status: ('A' for Active; 'I' for Inactive)
REMARK    1  A    between atoms: C_1  and  C_2
REMARK    2  A    between atoms: C_2  and  O_3
REMARK    3  A    between atoms: O_3  and  C_4
REMARK    4  A    between atoms: C_4  and  C_6
REMARK    5  A    between atoms: C_6  and  C_7
REMARK                            x       y       z     vdW  Elec       q    Type
REMARK                         _______ _______ _______ _____ _____    ______ ____
ROOT
ATOM      1  C   UNL     1       9.901  -2.080  23.600  0.00  0.00    +0.375 C 
ATOM      2  O   UNL     1      10.155  -3.211  23.972  0.00  0.00    -0.242 OA
ENDROOT
BRANCH   1   3
ATOM      3  C   UNL     1       9.027  -1.787  22.376  0.00  0.00    +0.236 C 
ATOM      4  O   UNL     1       8.070  -2.499  22.093  0.00  0.00    -0.285 OA
ATOM      5  C   UNL     1       9.454  -0.637  21.510  0.00  0.00    +0.099 C 
ENDBRANCH   1   3
BRANCH   1   6
ATOM      6  O   UNL     1      10.237  -0.924  24.214  0.00  0.00    -0.459 OA
BRANCH   6   8
ATOM      7  C   UNL     1       8.989   0.991  24.910  0.00  0.00    +0.048 C 
ATOM      8  C   UNL     1       9.310  -0.462  25.204  0.00  0.00    +0.229 C 
ENDBRANCH   6   8
ENDBRANCH   1   6
TORSDOF 3
ENDMDL
MODEL 7
REMARK VINA RESULT:      -3.2      3.703      4.699
REMARK  Name = 
REMARK  5 active torsions:
REMARK  status: ('A' for Active; 'I' for Inactive)
REMARK    1  A    between atoms: C_1  and  C_2
REMARK    2  A    between atoms: C_2  and  O_3
REMARK    3  A    between atoms: O_3  and  C_4
REMARK    4  A    between atoms: C_4  and  C_6
REMARK    5  A    between atoms: C_6  and  C_7
REMARK                            x       y       z     vdW  Elec       q    Type
REMARK                         _______ _______ _______ _____ _____    ______ ____
ROOT
ATOM      1  C   UNL     1       8.008  -4.347  23.622  0.00  0.00    +0.375 C 
ATOM      2  O   UNL     1       8.193  -3.259  23.106  0.00  0.00    -0.242 OA
ENDROOT
BRANCH   1   3
ATOM      3  C   UNL     1       8.806  -4.835  24.835  0.00  0.00    +0.236 C 
ATOM      4  O   UNL     1      10.030  -4.892  24.810  0.00  0.00    -0.285 OA
ATOM      5  C   UNL     1       8.005  -5.309  26.014  0.00  0.00    +0.099 C 
ENDBRANCH   1   3
BRANCH   1   6
ATOM      6  O   UNL     1       7.049  -5.245  23.307  0.00  0.00    -0.459 OA
BRANCH   6   8
ATOM      7  C   UNL     1       6.224  -5.646  21.101  0.00  0.00    +0.048 C 
ATOM      8  C   UNL     1       7.287  -6.010  22.120  0.00  0.00    +0.229 C 
ENDBRANCH   6   8
ENDBRANCH   1   6
TORSDOF 3
ENDMDL
MODEL 8
REMARK VINA RESULT:      -3.1      1.942      3.692
REMARK  Name = 
REMARK  5 active torsions:
REMARK  status: ('A' for Active; 'I' for Inactive)
REMARK    1  A    between atoms: C_1  and  C_2
REMARK    2  A    between atoms: C_2  and  O_3
REMARK    3  A    between atoms: O_3  and  C_4
REMARK    4  A    between atoms: C_4  and  C_6
REMARK    5  A    between atoms: C_6  and  C_7
REMARK                            x       y       z     vdW  Elec       q    Type
REMARK                         _______ _______ _______ _____ _____    ______ ____
ROOT
ATOM      1  C   UNL     1       8.116  -1.848  22.490  0.00  0.00    +0.375 C 
ATOM      2  O   UNL     1       7.141  -1.164  22.741  0.00  0.00    -0.242 OA
ENDROOT
BRANCH   1   3
ATOM      3  C   UNL     1       9.466  -1.248  22.082  0.00  0.00    +0.236 C 
ATOM      4  O   UNL     1      10.518  -1.838  22.306  0.00  0.00    -0.285 OA
ATOM      5  C   UNL     1       9.429   0.123  21.470  0.00  0.00    +0.099 C 
ENDBRANCH   1   3
BRANCH   1   6
ATOM      6  O   UNL     1       8.225  -3.190  22.612  0.00  0.00    -0.459 OA
BRANCH   6   8
ATOM      7  C   UNL     1       7.310  -5.397  22.592  0.00  0.00    +0.048 C 
ATOM      8  C   UNL     1       7.048  -3.935  22.282  0.00  0.00    +0.229 C 
ENDBRANCH   6   8
ENDBRANCH   1   6
TORSDOF 3
ENDMDL
MODEL 9
REMARK VINA RESULT:      -3.1      3.455      5.085
REMARK  Name = 
REMARK  5 active torsions:
REMARK  status: ('A' for Active; 'I' for Inactive)
REMARK    1  A    between atoms: C_1  and  C_2
REMARK    2  A    between atoms: C_2  and  O_3
REMARK    3  A    between atoms: O_3  and  C_4
REMARK    4  A    between atoms: C_4  and  C_6
REMARK    5  A    between atoms: C_6  and  C_7
REMARK                            x       y       z     vdW  Elec       q    Type
REMARK                         _______ _______ _______ _____ _____    ______ ____
ROOT
ATOM      1  C   UNL     1       7.615  -3.862  22.578  0.00  0.00    +0.375 C 
ATOM      2  O   UNL     1       8.030  -2.724  22.452  0.00  0.00    -0.242 OA
ENDROOT
BRANCH   1   3
ATOM      3  C   UNL     1       6.400  -4.391  21.809  0.00  0.00    +0.236 C 
ATOM      4  O   UNL     1       5.424  -3.680  21.596  0.00  0.00    -0.285 OA
ATOM      5  C   UNL     1       6.443  -5.836  21.404  0.00  0.00    +0.099 C 
ENDBRANCH   1   3
BRANCH   1   6
ATOM      6  O   UNL     1       8.172  -4.857  23.303  0.00  0.00    -0.459 OA
BRANCH   6   8
ATOM      7  C   UNL     1       9.422  -5.243  25.303  0.00  0.00    +0.048 C 
ATOM      8  C   UNL     1       8.139  -4.676  24.723  0.00  0.00    +0.229 C 
ENDBRANCH   6   8
ENDBRANCH   1   6
TORSDOF 3
ENDMDL
