MODEL 1
REMARK VINA RESULT:      -4.2      0.000      0.000
REMARK  Name = 
REMARK  14 active torsions:
REMARK  status: ('A' for Active; 'I' for Inactive)
REMARK    1  A    between atoms: C_1  and  C_2
REMARK    2  A    between atoms: C_2  and  O_4
REMARK    3  A    between atoms: C_2  and  N_5
REMARK    4  A    between atoms: N_5  and  CA_6
REMARK    5  A    between atoms: CA_6  and  C_8
REMARK    6  A    between atoms: CA_6  and  C_10
REMARK    7  A    between atoms: C_8  and  O_9
REMARK    8  A    between atoms: C_10  and  O_12
REMARK    9  A    between atoms: C_10  and  C_13
REMARK   10  A    between atoms: C_13  and  O_15
REMARK   11  A    between atoms: C_13  and  C_16
REMARK   12  A    between atoms: C_16  and  O_18
REMARK   13  A    between atoms: C_16  and  C_19
REMARK   14  A    between atoms: C_19  and  O_20
REMARK                            x       y       z     vdW  Elec       q    Type
REMARK                         _______ _______ _______ _____ _____    ______ ____
ROOT
ATOM      1  C   UNL     1       7.688  -2.824  23.524  0.00  0.00    +0.165 C 
ENDROOT
BRANCH   1   2
ATOM      2  O   UNL     1       7.796  -3.108  22.115  0.00  0.00    -0.388 OA
ATOM      3  H   UNL     1       8.762  -3.152  21.924  0.00  0.00    +0.210 HD
ENDBRANCH   1   2
BRANCH   1   4
ATOM      4  CA  UNL     1       7.447  -4.173  24.279  0.00  0.00    +0.112 C 
BRANCH   4   5
ATOM      5  N   UNL     1       8.522  -5.198  24.099  0.00  0.00    -0.285 NA
ATOM      6  H   UNL     1       8.048  -6.056  23.814  0.00  0.00    +0.125 HD
BRANCH   5   8
ATOM      7  C   UNL     1       8.722  -4.741  26.489  0.00  0.00    +0.055 C 
ATOM      8  C   UNL     1       9.240  -5.560  25.314  0.00  0.00    +0.180 C 
BRANCH   8   9
ATOM      9  O   UNL     1      10.611  -5.267  25.158  0.00  0.00    -0.378 OA
ATOM     10  H   UNL     1      10.615  -4.344  24.838  0.00  0.00    +0.211 HD
ENDBRANCH   8   9
ENDBRANCH   5   8
ENDBRANCH   4   5
BRANCH   4  11
ATOM     11  C   UNL     1       6.111  -4.830  23.860  0.00  0.00    +0.177 C 
BRANCH  11  12
ATOM     12  O   UNL     1       6.263  -5.603  22.670  0.00  0.00    -0.393 OA
ATOM     13  H   UNL     1       6.957  -6.264  22.864  0.00  0.00    +0.209 HD
ENDBRANCH  11  12
ENDBRANCH   4  11
ENDBRANCH   1   4
BRANCH   1  14
ATOM     14  C   UNL     1       8.966  -2.051  23.966  0.00  0.00    +0.175 C 
BRANCH  14  15
ATOM     15  O   UNL     1      10.161  -2.725  23.550  0.00  0.00    -0.387 OA
ATOM     16  H   UNL     1      10.933  -2.295  23.960  0.00  0.00    +0.210 HD
ENDBRANCH  14  15
BRANCH  14  17
ATOM     17  C   UNL     1       8.975  -0.609  23.413  0.00  0.00    +0.171 C 
BRANCH  17  18
ATOM     18  O   UNL     1       7.711  -0.281  22.805  0.00  0.00    -0.387 OA
ATOM     19  H   UNL     1       7.195  -1.113  22.831  0.00  0.00    +0.210 HD
ENDBRANCH  17  18
BRANCH  17  20
ATOM     20  C   UNL     1      10.094  -0.399  22.386  0.00  0.00    +0.189 C 
BRANCH  20  21
ATOM     21  O   UNL     1       9.724  -1.071  21.179  0.00  0.00    -0.392 OA
ATOM     22  H   UNL     1       8.753  -1.090  21.150  0.00  0.00    +0.210 HD
ENDBRANCH  20  21
ENDBRANCH  17  20
ENDBRANCH  14  17
ENDBRANCH   1  14
TORSDOF 13
ENDMDL
MODEL 2
REMARK VINA RESULT:      -4.2      3.960      5.830
REMARK  Name = 
REMARK  14 active torsions:
REMARK  status: ('A' for Active; 'I' for Inactive)
REMARK    1  A    between atoms: C_1  and  C_2
REMARK    2  A    between atoms: C_2  and  O_4
REMARK    3  A    between atoms: C_2  and  N_5
REMARK    4  A    between atoms: N_5  and  CA_6
REMARK    5  A    between atoms: CA_6  and  C_8
REMARK    6  A    between atoms: CA_6  and  C_10
REMARK    7  A    between atoms: C_8  and  O_9
REMARK    8  A    between atoms: C_10  and  O_12
REMARK    9  A    between atoms: C_10  and  C_13
REMARK   10  A    between atoms: C_13  and  O_15
REMARK   11  A    between atoms: C_13  and  C_16
REMARK   12  A    between atoms: C_16  and  O_18
REMARK   13  A    between atoms: C_16  and  C_19
REMARK   14  A    between atoms: C_19  and  O_20
REMARK                            x       y       z     vdW  Elec       q    Type
REMARK                         _______ _______ _______ _____ _____    ______ ____
ROOT
ATOM      1  C   UNL     1       9.624   1.861  22.784  0.00  0.00    +0.165 C 
ENDROOT
BRANCH   1   2
ATOM      2  O   UNL     1       9.983   2.040  21.399  0.00  0.00    -0.388 OA
ATOM      3  H   UNL     1       9.254   2.571  21.000  0.00  0.00    +0.210 HD
ENDBRANCH   1   2
BRANCH   1   4
ATOM      4  CA  UNL     1      10.211   0.494  23.269  0.00  0.00    +0.112 C 
BRANCH   4   5
ATOM      5  N   UNL     1       9.214  -0.616  23.388  0.00  0.00    -0.285 NA
ATOM      6  H   UNL     1       9.655  -1.330  23.968  0.00  0.00    +0.125 HD
BRANCH   5   8
ATOM      7  C   UNL     1       8.192  -2.616  22.432  0.00  0.00    +0.055 C 
ATOM      8  C   UNL     1       8.897  -1.298  22.140  0.00  0.00    +0.180 C 
BRANCH   8   9
ATOM      9  O   UNL     1      10.090  -1.595  21.448  0.00  0.00    -0.378 OA
ATOM     10  H   UNL     1      10.792  -1.327  22.072  0.00  0.00    +0.211 HD
ENDBRANCH   8   9
ENDBRANCH   5   8
ENDBRANCH   4   5
BRANCH   4  11
ATOM     11  C   UNL     1      10.913   0.629  24.641  0.00  0.00    +0.177 C 
BRANCH  11  12
ATOM     12  O   UNL     1      10.043   0.253  25.708  0.00  0.00    -0.393 OA
ATOM     13  H   UNL     1       9.847  -0.696  25.575  0.00  0.00    +0.209 HD
ENDBRANCH  11  12
ENDBRANCH   4  11
ENDBRANCH   1   4
BRANCH   1  14
ATOM     14  C   UNL     1      10.123   3.102  23.583  0.00  0.00    +0.175 C 
BRANCH  14  15
ATOM     15  O   UNL     1      11.246   3.725  22.944  0.00  0.00    -0.387 OA
ATOM     16  H   UNL     1      10.957   4.553  22.522  0.00  0.00    +0.210 HD
ENDBRANCH  14  15
BRANCH  14  17
ATOM     17  C   UNL     1       9.000   4.144  23.767  0.00  0.00    +0.171 C 
BRANCH  17  18
ATOM     18  O   UNL     1       8.238   4.304  22.555  0.00  0.00    -0.387 OA
ATOM     19  H   UNL     1       8.846   4.754  21.933  0.00  0.00    +0.210 HD
ENDBRANCH  17  18
BRANCH  17  20
ATOM     20  C   UNL     1       9.552   5.509  24.195  0.00  0.00    +0.189 C 
BRANCH  20  21
ATOM     21  O   UNL     1       9.844   6.263  23.015  0.00  0.00    -0.392 OA
ATOM     22  H   UNL     1      10.141   5.630  22.340  0.00  0.00    +0.210 HD
ENDBRANCH  20  21
ENDBRANCH  17  20
ENDBRANCH  14  17
ENDBRANCH   1  14
TORSDOF 13
ENDMDL
MODEL 3
REMARK VINA RESULT:      -4.1      1.582      2.700
REMARK  Name = 
REMARK  14 active torsions:
REMARK  status: ('A' for Active; 'I' for Inactive)
REMARK    1  A    between atoms: C_1  and  C_2
REMARK    2  A    between atoms: C_2  and  O_4
REMARK    3  A    between atoms: C_2  and  N_5
REMARK    4  A    between atoms: N_5  and  CA_6
REMARK    5  A    between atoms: CA_6  and  C_8
REMARK    6  A    between atoms: CA_6  and  C_10
REMARK    7  A    between atoms: C_8  and  O_9
REMARK    8  A    between atoms: C_10  and  O_12
REMARK    9  A    between atoms: C_10  and  C_13
REMARK   10  A    between atoms: C_13  and  O_15
REMARK   11  A    between atoms: C_13  and  C_16
REMARK   12  A    between atoms: C_16  and  O_18
REMARK   13  A    between atoms: C_16  and  C_19
REMARK   14  A    between atoms: C_19  and  O_20
REMARK                            x       y       z     vdW  Elec       q    Type
REMARK                         _______ _______ _______ _____ _____    ______ ____
ROOT
ATOM      1  C   UNL     1       8.412  -2.913  25.208  0.00  0.00    +0.165 C 
ENDROOT
BRANCH   1   2
ATOM      2  O   UNL     1       7.076  -2.441  24.943  0.00  0.00    -0.388 OA
ATOM      3  H   UNL     1       7.082  -1.481  25.169  0.00  0.00    +0.210 HD
ENDBRANCH   1   2
BRANCH   1   4
ATOM      4  CA  UNL     1       8.437  -4.462  24.992  0.00  0.00    +0.112 C 
BRANCH   4   5
ATOM      5  N   UNL     1       8.193  -4.908  23.584  0.00  0.00    -0.285 NA
ATOM      6  H   UNL     1       8.300  -4.076  23.002  0.00  0.00    +0.125 HD
BRANCH   5   8
ATOM      7  C   UNL     1       6.844  -6.281  22.083  0.00  0.00    +0.055 C 
ATOM      8  C   UNL     1       6.842  -5.378  23.309  0.00  0.00    +0.180 C 
BRANCH   8   9
ATOM      9  O   UNL     1       6.007  -4.276  23.029  0.00  0.00    -0.378 OA
ATOM     10  H   UNL     1       5.108  -4.658  23.042  0.00  0.00    +0.211 HD
ENDBRANCH   8   9
ENDBRANCH   5   8
ENDBRANCH   4   5
BRANCH   4  11
ATOM     11  C   UNL     1       7.398  -5.179  25.886  0.00  0.00    +0.177 C 
BRANCH  11  12
ATOM     12  O   UNL     1       8.034  -5.931  26.920  0.00  0.00    -0.393 OA
ATOM     13  H   UNL     1       8.830  -6.329  26.514  0.00  0.00    +0.209 HD
ENDBRANCH  11  12
ENDBRANCH   4  11
ENDBRANCH   1   4
BRANCH   1  14
ATOM     14  C   UNL     1       9.401  -2.115  24.307  0.00  0.00    +0.175 C 
BRANCH  14  15
ATOM     15  O   UNL     1      10.385  -2.974  23.715  0.00  0.00    -0.387 OA
ATOM     16  H   UNL     1      10.442  -2.790  22.760  0.00  0.00    +0.210 HD
ENDBRANCH  14  15
BRANCH  14  17
ATOM     17  C   UNL     1       8.657  -1.349  23.191  0.00  0.00    +0.171 C 
BRANCH  17  18
ATOM     18  O   UNL     1       7.935  -2.256  22.335  0.00  0.00    -0.387 OA
ATOM     19  H   UNL     1       7.536  -2.912  22.942  0.00  0.00    +0.210 HD
ENDBRANCH  17  18
BRANCH  17  20
ATOM     20  C   UNL     1       9.615  -0.510  22.339  0.00  0.00    +0.189 C 
BRANCH  20  21
ATOM     21  O   UNL     1      10.235  -1.374  21.382  0.00  0.00    -0.392 OA
ATOM     22  H   UNL     1       9.980  -2.283  21.612  0.00  0.00    +0.210 HD
ENDBRANCH  20  21
ENDBRANCH  17  20
ENDBRANCH  14  17
ENDBRANCH   1  14
TORSDOF 13
ENDMDL
MODEL 4
REMARK VINA RESULT:      -4.1      2.038      4.748
REMARK  Name = 
REMARK  14 active torsions:
REMARK  status: ('A' for Active; 'I' for Inactive)
REMARK    1  A    between atoms: C_1  and  C_2
REMARK    2  A    between atoms: C_2  and  O_4
REMARK    3  A    between atoms: C_2  and  N_5
REMARK    4  A    between atoms: N_5  and  CA_6
REMARK    5  A    between atoms: CA_6  and  C_8
REMARK    6  A    between atoms: CA_6  and  C_10
REMARK    7  A    between atoms: C_8  and  O_9
REMARK    8  A    between atoms: C_10  and  O_12
REMARK    9  A    between atoms: C_10  and  C_13
REMARK   10  A    between atoms: C_13  and  O_15
REMARK   11  A    between atoms: C_13  and  C_16
REMARK   12  A    between atoms: C_16  and  O_18
REMARK   13  A    between atoms: C_16  and  C_19
REMARK   14  A    between atoms: C_19  and  O_20
REMARK                            x       y       z     vdW  Elec       q    Type
REMARK                         _______ _______ _______ _____ _____    ______ ____
ROOT
ATOM      1  C   UNL     1       8.306  -3.679  23.494  0.00  0.00    +0.165 C 
ENDROOT
BRANCH   1   2
ATOM      2  O   UNL     1       7.081  -4.429  23.614  0.00  0.00    -0.388 OA
ATOM      3  H   UNL     1       6.561  -3.981  24.322  0.00  0.00    +0.210 HD
ENDBRANCH   1   2
BRANCH   1   4
ATOM      4  CA  UNL     1       8.024  -2.419  22.610  0.00  0.00    +0.112 C 
BRANCH   4   5
ATOM      5  N   UNL     1       8.624  -1.145  23.115  0.00  0.00    -0.285 NA
ATOM      6  H   UNL     1       7.886  -0.442  23.055  0.00  0.00    +0.125 HD
BRANCH   5   8
ATOM      7  C   UNL     1       9.213   0.578  21.489  0.00  0.00    +0.055 C 
ATOM      8  C   UNL     1       9.710  -0.608  22.305  0.00  0.00    +0.180 C 
BRANCH   8   9
ATOM      9  O   UNL     1      10.155  -1.595  21.400  0.00  0.00    -0.378 OA
ATOM     10  H   UNL     1      11.078  -1.336  21.212  0.00  0.00    +0.211 HD
ENDBRANCH   8   9
ENDBRANCH   5   8
ENDBRANCH   4   5
BRANCH   4  11
ATOM     11  C   UNL     1       6.507  -2.174  22.433  0.00  0.00    +0.177 C 
BRANCH  11  12
ATOM     12  O   UNL     1       5.936  -1.590  23.603  0.00  0.00    -0.393 OA
ATOM     13  H   UNL     1       5.576  -0.724  23.326  0.00  0.00    +0.209 HD
ENDBRANCH  11  12
ENDBRANCH   4  11
ENDBRANCH   1   4
BRANCH   1  14
ATOM     14  C   UNL     1       8.829  -3.363  24.927  0.00  0.00    +0.175 C 
BRANCH  14  15
ATOM     15  O   UNL     1       7.812  -2.761  25.739  0.00  0.00    -0.387 OA
ATOM     16  H   UNL     1       7.018  -3.326  25.732  0.00  0.00    +0.210 HD
ENDBRANCH  14  15
BRANCH  14  17
ATOM     17  C   UNL     1       9.356  -4.633  25.629  0.00  0.00    +0.171 C 
BRANCH  17  18
ATOM     18  O   UNL     1       9.519  -5.713  24.690  0.00  0.00    -0.387 OA
ATOM     19  H   UNL     1      10.484  -5.875  24.657  0.00  0.00    +0.210 HD
ENDBRANCH  17  18
BRANCH  17  20
ATOM     20  C   UNL     1       8.427  -5.087  26.760  0.00  0.00    +0.189 C 
BRANCH  20  21
ATOM     21  O   UNL     1       7.322  -5.785  26.177  0.00  0.00    -0.392 OA
ATOM     22  H   UNL     1       7.579  -6.720  26.110  0.00  0.00    +0.210 HD
ENDBRANCH  20  21
ENDBRANCH  17  20
ENDBRANCH  14  17
ENDBRANCH   1  14
TORSDOF 13
ENDMDL
MODEL 5
REMARK VINA RESULT:      -4.1      2.540      5.279
REMARK  Name = 
REMARK  14 active torsions:
REMARK  status: ('A' for Active; 'I' for Inactive)
REMARK    1  A    between atoms: C_1  and  C_2
REMARK    2  A    between atoms: C_2  and  O_4
REMARK    3  A    between atoms: C_2  and  N_5
REMARK    4  A    between atoms: N_5  and  CA_6
REMARK    5  A    between atoms: CA_6  and  C_8
REMARK    6  A    between atoms: CA_6  and  C_10
REMARK    7  A    between atoms: C_8  and  O_9
REMARK    8  A    between atoms: C_10  and  O_12
REMARK    9  A    between atoms: C_10  and  C_13
REMARK   10  A    between atoms: C_13  and  O_15
REMARK   11  A    between atoms: C_13  and  C_16
REMARK   12  A    between atoms: C_16  and  O_18
REMARK   13  A    between atoms: C_16  and  C_19
REMARK   14  A    between atoms: C_19  and  O_20
REMARK                            x       y       z     vdW  Elec       q    Type
REMARK                         _______ _______ _______ _____ _____    ______ ____
ROOT
ATOM      1  C   UNL     1      10.077  -0.878  22.443  0.00  0.00    +0.165 C 
ENDROOT
BRANCH   1   2
ATOM      2  O   UNL     1       9.367  -0.957  21.191  0.00  0.00    -0.388 OA
ATOM      3  H   UNL     1       9.782  -0.281  20.605  0.00  0.00    +0.210 HD
ENDBRANCH   1   2
BRANCH   1   4
ATOM      4  CA  UNL     1       9.799   0.526  23.076  0.00  0.00    +0.112 C 
BRANCH   4   5
ATOM      5  N   UNL     1       8.371   0.784  23.440  0.00  0.00    -0.285 NA
ATOM      6  H   UNL     1       8.054   1.534  22.825  0.00  0.00    +0.125 HD
BRANCH   5   8
ATOM      7  C   UNL     1       7.975   2.809  24.745  0.00  0.00    +0.055 C 
ATOM      8  C   UNL     1       8.159   1.298  24.787  0.00  0.00    +0.180 C 
BRANCH   8   9
ATOM      9  O   UNL     1       9.294   1.025  25.580  0.00  0.00    -0.378 OA
ATOM     10  H   UNL     1       9.769   0.338  25.074  0.00  0.00    +0.211 HD
ENDBRANCH   8   9
ENDBRANCH   5   8
ENDBRANCH   4   5
BRANCH   4  11
ATOM     11  C   UNL     1      10.249   1.672  22.140  0.00  0.00    +0.177 C 
BRANCH  11  12
ATOM     12  O   UNL     1       9.188   2.087  21.280  0.00  0.00    -0.393 OA
ATOM     13  H   UNL     1       9.594   2.675  20.613  0.00  0.00    +0.209 HD
ENDBRANCH  11  12
ENDBRANCH   4  11
ENDBRANCH   1   4
BRANCH   1  14
ATOM     14  C   UNL     1       9.646  -2.086  23.328  0.00  0.00    +0.175 C 
BRANCH  14  15
ATOM     15  O   UNL     1       9.469  -1.701  24.697  0.00  0.00    -0.387 OA
ATOM     16  H   UNL     1       8.621  -1.231  24.793  0.00  0.00    +0.210 HD
ENDBRANCH  14  15
BRANCH  14  17
ATOM     17  C   UNL     1       8.343  -2.730  22.808  0.00  0.00    +0.171 C 
BRANCH  17  18
ATOM     18  O   UNL     1       7.230  -1.824  22.938  0.00  0.00    -0.387 OA
ATOM     19  H   UNL     1       7.206  -1.589  23.888  0.00  0.00    +0.210 HD
ENDBRANCH  17  18
BRANCH  17  20
ATOM     20  C   UNL     1       8.016  -4.033  23.546  0.00  0.00    +0.189 C 
BRANCH  20  21
ATOM     21  O   UNL     1       9.195  -4.466  24.231  0.00  0.00    -0.392 OA
ATOM     22  H   UNL     1       9.237  -5.433  24.142  0.00  0.00    +0.210 HD
ENDBRANCH  20  21
ENDBRANCH  17  20
ENDBRANCH  14  17
ENDBRANCH   1  14
TORSDOF 13
ENDMDL
MODEL 6
REMARK VINA RESULT:      -4.1      2.177      5.126
REMARK  Name = 
REMARK  14 active torsions:
REMARK  status: ('A' for Active; 'I' for Inactive)
REMARK    1  A    between atoms: C_1  and  C_2
REMARK    2  A    between atoms: C_2  and  O_4
REMARK    3  A    between atoms: C_2  and  N_5
REMARK    4  A    between atoms: N_5  and  CA_6
REMARK    5  A    between atoms: CA_6  and  C_8
REMARK    6  A    between atoms: CA_6  and  C_10
REMARK    7  A    between atoms: C_8  and  O_9
REMARK    8  A    between atoms: C_10  and  O_12
REMARK    9  A    between atoms: C_10  and  C_13
REMARK   10  A    between atoms: C_13  and  O_15
REMARK   11  A    between atoms: C_13  and  C_16
REMARK   12  A    between atoms: C_16  and  O_18
REMARK   13  A    between atoms: C_16  and  C_19
REMARK   14  A    between atoms: C_19  and  O_20
REMARK                            x       y       z     vdW  Elec       q    Type
REMARK                         _______ _______ _______ _____ _____    ______ ____
ROOT
ATOM      1  C   UNL     1       7.948  -2.330  25.022  0.00  0.00    +0.165 C 
ENDROOT
BRANCH   1   2
ATOM      2  O   UNL     1       8.632  -2.243  26.288  0.00  0.00    -0.388 OA
ATOM      3  H   UNL     1       9.015  -3.138  26.448  0.00  0.00    +0.210 HD
ENDBRANCH   1   2
BRANCH   1   4
ATOM      4  CA  UNL     1       8.056  -0.942  24.310  0.00  0.00    +0.112 C 
BRANCH   4   5
ATOM      5  N   UNL     1       8.254  -1.004  22.828  0.00  0.00    -0.285 NA
ATOM      6  H   UNL     1       8.265  -1.996  22.587  0.00  0.00    +0.125 HD
BRANCH   5   8
ATOM      7  C   UNL     1       9.306   0.626  21.347  0.00  0.00    +0.055 C 
ATOM      8  C   UNL     1       9.533  -0.494  22.353  0.00  0.00    +0.180 C 
BRANCH   8   9
ATOM      9  O   UNL     1      10.237  -1.525  21.695  0.00  0.00    -0.378 OA
ATOM     10  H   UNL     1      10.839  -1.869  22.382  0.00  0.00    +0.211 HD
ENDBRANCH   8   9
ENDBRANCH   5   8
ENDBRANCH   4   5
BRANCH   4  11
ATOM     11  C   UNL     1       9.211  -0.092  24.892  0.00  0.00    +0.177 C 
BRANCH  11  12
ATOM     12  O   UNL     1       8.766   0.710  25.985  0.00  0.00    -0.393 OA
ATOM     13  H   UNL     1       8.606   0.093  26.726  0.00  0.00    +0.209 HD
ENDBRANCH  11  12
ENDBRANCH   4  11
ENDBRANCH   1   4
BRANCH   1  14
ATOM     14  C   UNL     1       8.553  -3.521  24.219  0.00  0.00    +0.175 C 
BRANCH  14  15
ATOM     15  O   UNL     1       9.980  -3.418  24.118  0.00  0.00    -0.387 OA
ATOM     16  H   UNL     1      10.392  -4.140  24.626  0.00  0.00    +0.210 HD
ENDBRANCH  14  15
BRANCH  14  17
ATOM     17  C   UNL     1       8.185  -4.878  24.857  0.00  0.00    +0.171 C 
BRANCH  17  18
ATOM     18  O   UNL     1       7.173  -4.715  25.870  0.00  0.00    -0.387 OA
ATOM     19  H   UNL     1       7.664  -4.709  26.717  0.00  0.00    +0.210 HD
ENDBRANCH  17  18
BRANCH  17  20
ATOM     20  C   UNL     1       9.406  -5.569  25.474  0.00  0.00    +0.189 C 
BRANCH  20  21
ATOM     21  O   UNL     1       9.683  -4.946  26.732  0.00  0.00    -0.392 OA
ATOM     22  H   UNL     1       8.831  -4.661  27.102  0.00  0.00    +0.210 HD
ENDBRANCH  20  21
ENDBRANCH  17  20
ENDBRANCH  14  17
ENDBRANCH   1  14
TORSDOF 13
ENDMDL
MODEL 7
REMARK VINA RESULT:      -4.1      4.466      7.582
REMARK  Name = 
REMARK  14 active torsions:
REMARK  status: ('A' for Active; 'I' for Inactive)
REMARK    1  A    between atoms: C_1  and  C_2
REMARK    2  A    between atoms: C_2  and  O_4
REMARK    3  A    between atoms: C_2  and  N_5
REMARK    4  A    between atoms: N_5  and  CA_6
REMARK    5  A    between atoms: CA_6  and  C_8
REMARK    6  A    between atoms: CA_6  and  C_10
REMARK    7  A    between atoms: C_8  and  O_9
REMARK    8  A    between atoms: C_10  and  O_12
REMARK    9  A    between atoms: C_10  and  C_13
REMARK   10  A    between atoms: C_13  and  O_15
REMARK   11  A    between atoms: C_13  and  C_16
REMARK   12  A    between atoms: C_16  and  O_18
REMARK   13  A    between atoms: C_16  and  C_19
REMARK   14  A    between atoms: C_19  and  O_20
REMARK                            x       y       z     vdW  Elec       q    Type
REMARK                         _______ _______ _______ _____ _____    ______ ____
ROOT
ATOM      1  C   UNL     1       9.753   2.028  22.873  0.00  0.00    +0.165 C 
ENDROOT
BRANCH   1   2
ATOM      2  O   UNL     1      10.096   2.172  21.480  0.00  0.00    -0.388 OA
ATOM      3  H   UNL     1       9.384   2.728  21.085  0.00  0.00    +0.210 HD
ENDBRANCH   1   2
BRANCH   1   4
ATOM      4  CA  UNL     1       8.893   3.264  23.296  0.00  0.00    +0.112 C 
BRANCH   4   5
ATOM      5  N   UNL     1       8.027   3.831  22.215  0.00  0.00    -0.285 NA
ATOM      6  H   UNL     1       8.647   4.016  21.425  0.00  0.00    +0.125 HD
BRANCH   5   8
ATOM      7  C   UNL     1       5.935   4.951  22.792  0.00  0.00    +0.055 C 
ATOM      8  C   UNL     1       7.424   5.122  22.519  0.00  0.00    +0.180 C 
BRANCH   8   9
ATOM      9  O   UNL     1       7.560   5.981  21.408  0.00  0.00    -0.378 OA
ATOM     10  H   UNL     1       8.288   5.580  20.894  0.00  0.00    +0.211 HD
ENDBRANCH   8   9
ENDBRANCH   5   8
ENDBRANCH   4   5
BRANCH   4  11
ATOM     11  C   UNL     1       9.774   4.418  23.830  0.00  0.00    +0.177 C 
BRANCH  11  12
ATOM     12  O   UNL     1      11.050   4.435  23.190  0.00  0.00    -0.393 OA
ATOM     13  H   UNL     1      11.625   4.997  23.748  0.00  0.00    +0.209 HD
ENDBRANCH  11  12
ENDBRANCH   4  11
ENDBRANCH   1   4
BRANCH   1  14
ATOM     14  C   UNL     1       9.050   0.651  23.065  0.00  0.00    +0.175 C 
BRANCH  14  15
ATOM     15  O   UNL     1       7.753   0.632  22.455  0.00  0.00    -0.387 OA
ATOM     16  H   UNL     1       7.835   0.867  21.513  0.00  0.00    +0.210 HD
ENDBRANCH  14  15
BRANCH  14  17
ATOM     17  C   UNL     1       9.900  -0.502  22.489  0.00  0.00    +0.171 C 
BRANCH  17  18
ATOM     18  O   UNL     1       9.665  -0.663  21.077  0.00  0.00    -0.387 OA
ATOM     19  H   UNL     1       8.731  -0.948  21.007  0.00  0.00    +0.210 HD
ENDBRANCH  17  18
BRANCH  17  20
ATOM     20  C   UNL     1       9.614  -1.831  23.199  0.00  0.00    +0.189 C 
BRANCH  20  21
ATOM     21  O   UNL     1       8.444  -2.408  22.612  0.00  0.00    -0.392 OA
ATOM     22  H   UNL     1       8.428  -3.345  22.870  0.00  0.00    +0.210 HD
ENDBRANCH  20  21
ENDBRANCH  17  20
ENDBRANCH  14  17
ENDBRANCH   1  14
TORSDOF 13
ENDMDL
MODEL 8
REMARK VINA RESULT:      -4.1      1.681      2.430
REMARK  Name = 
REMARK  14 active torsions:
REMARK  status: ('A' for Active; 'I' for Inactive)
REMARK    1  A    between atoms: C_1  and  C_2
REMARK    2  A    between atoms: C_2  and  O_4
REMARK    3  A    between atoms: C_2  and  N_5
REMARK    4  A    between atoms: N_5  and  CA_6
REMARK    5  A    between atoms: CA_6  and  C_8
REMARK    6  A    between atoms: CA_6  and  C_10
REMARK    7  A    between atoms: C_8  and  O_9
REMARK    8  A    between atoms: C_10  and  O_12
REMARK    9  A    between atoms: C_10  and  C_13
REMARK   10  A    between atoms: C_13  and  O_15
REMARK   11  A    between atoms: C_13  and  C_16
REMARK   12  A    between atoms: C_16  and  O_18
REMARK   13  A    between atoms: C_16  and  C_19
REMARK   14  A    between atoms: C_19  and  O_20
REMARK                            x       y       z     vdW  Elec       q    Type
REMARK                         _______ _______ _______ _____ _____    ______ ____
ROOT
ATOM      1  C   UNL     1       9.411  -1.802  22.297  0.00  0.00    +0.165 C 
ENDROOT
BRANCH   1   2
ATOM      2  O   UNL     1      10.839  -1.927  22.442  0.00  0.00    -0.388 OA
ATOM      3  H   UNL     1      11.230  -1.443  21.676  0.00  0.00    +0.210 HD
ENDBRANCH   1   2
BRANCH   1   4
ATOM      4  CA  UNL     1       8.728  -2.618  23.444  0.00  0.00    +0.112 C 
BRANCH   4   5
ATOM      5  N   UNL     1       9.653  -3.485  24.240  0.00  0.00    -0.285 NA
ATOM      6  H   UNL     1      10.292  -3.909  23.566  0.00  0.00    +0.125 HD
BRANCH   5   8
ATOM      7  C   UNL     1       8.887  -4.330  26.399  0.00  0.00    +0.055 C 
ATOM      8  C   UNL     1       9.020  -4.614  24.908  0.00  0.00    +0.180 C 
BRANCH   8   9
ATOM      9  O   UNL     1       9.826  -5.762  24.761  0.00  0.00    -0.378 OA
ATOM     10  H   UNL     1      10.736  -5.412  24.798  0.00  0.00    +0.211 HD
ENDBRANCH   8   9
ENDBRANCH   5   8
ENDBRANCH   4   5
BRANCH   4  11
ATOM     11  C   UNL     1       7.598  -3.526  22.905  0.00  0.00    +0.177 C 
BRANCH  11  12
ATOM     12  O   UNL     1       6.526  -2.754  22.364  0.00  0.00    -0.393 OA
ATOM     13  H   UNL     1       5.713  -3.078  22.801  0.00  0.00    +0.209 HD
ENDBRANCH  11  12
ENDBRANCH   4  11
ENDBRANCH   1   4
BRANCH   1  14
ATOM     14  C   UNL     1       9.052  -0.286  22.276  0.00  0.00    +0.175 C 
BRANCH  14  15
ATOM     15  O   UNL     1       7.834  -0.022  22.986  0.00  0.00    -0.387 OA
ATOM     16  H   UNL     1       7.576  -0.815  23.488  0.00  0.00    +0.210 HD
ENDBRANCH  14  15
BRANCH  14  17
ATOM     17  C   UNL     1      10.187   0.572  22.876  0.00  0.00    +0.171 C 
BRANCH  17  18
ATOM     18  O   UNL     1      10.218   0.458  24.311  0.00  0.00    -0.387 OA
ATOM     19  H   UNL     1      10.276  -0.504  24.487  0.00  0.00    +0.210 HD
ENDBRANCH  17  18
BRANCH  17  20
ATOM     20  C   UNL     1      10.048   2.050  22.493  0.00  0.00    +0.189 C 
BRANCH  20  21
ATOM     21  O   UNL     1       9.194   2.137  21.349  0.00  0.00    -0.392 OA
ATOM     22  H   UNL     1       9.769   2.204  20.569  0.00  0.00    +0.210 HD
ENDBRANCH  20  21
ENDBRANCH  17  20
ENDBRANCH  14  17
ENDBRANCH   1  14
TORSDOF 13
ENDMDL
MODEL 9
REMARK VINA RESULT:      -4.1      3.634      5.048
REMARK  Name = 
REMARK  14 active torsions:
REMARK  status: ('A' for Active; 'I' for Inactive)
REMARK    1  A    between atoms: C_1  and  C_2
REMARK    2  A    between atoms: C_2  and  O_4
REMARK    3  A    between atoms: C_2  and  N_5
REMARK    4  A    between atoms: N_5  and  CA_6
REMARK    5  A    between atoms: CA_6  and  C_8
REMARK    6  A    between atoms: CA_6  and  C_10
REMARK    7  A    between atoms: C_8  and  O_9
REMARK    8  A    between atoms: C_10  and  O_12
REMARK    9  A    between atoms: C_10  and  C_13
REMARK   10  A    between atoms: C_13  and  O_15
REMARK   11  A    between atoms: C_13  and  C_16
REMARK   12  A    between atoms: C_16  and  O_18
REMARK   13  A    between atoms: C_16  and  C_19
REMARK   14  A    between atoms: C_19  and  O_20
REMARK                            x       y       z     vdW  Elec       q    Type
REMARK                         _______ _______ _______ _____ _____    ______ ____
ROOT
ATOM      1  C   UNL     1       8.774   0.728  21.788  0.00  0.00    +0.165 C 
ENDROOT
BRANCH   1   2
ATOM      2  O   UNL     1      10.000   1.363  22.205  0.00  0.00    -0.388 OA
ATOM      3  H   UNL     1       9.989   2.260  21.794  0.00  0.00    +0.210 HD
ENDBRANCH   1   2
BRANCH   1   4
ATOM      4  CA  UNL     1       8.502  -0.483  22.740  0.00  0.00    +0.112 C 
BRANCH   4   5
ATOM      5  N   UNL     1       8.247  -0.119  24.169  0.00  0.00    -0.285 NA
ATOM      6  H   UNL     1       8.078   0.888  24.178  0.00  0.00    +0.125 HD
BRANCH   5   8
ATOM      7  C   UNL     1       8.885  -0.765  26.435  0.00  0.00    +0.055 C 
ATOM      8  C   UNL     1       9.378  -0.311  25.067  0.00  0.00    +0.180 C 
BRANCH   8   9
ATOM      9  O   UNL     1      10.056   0.914  25.241  0.00  0.00    -0.378 OA
ATOM     10  H   UNL     1       9.826   1.179  26.152  0.00  0.00    +0.211 HD
ENDBRANCH   8   9
ENDBRANCH   5   8
ENDBRANCH   4   5
BRANCH   4  11
ATOM     11  C   UNL     1       9.672  -1.494  22.726  0.00  0.00    +0.177 C 
BRANCH  11  12
ATOM     12  O   UNL     1      10.314  -1.528  21.451  0.00  0.00    -0.393 OA
ATOM     13  H   UNL     1      10.565  -0.605  21.250  0.00  0.00    +0.209 HD
ENDBRANCH  11  12
ENDBRANCH   4  11
ENDBRANCH   1   4
BRANCH   1  14
ATOM     14  C   UNL     1       7.648   1.804  21.766  0.00  0.00    +0.175 C 
BRANCH  14  15
ATOM     15  O   UNL     1       6.437   1.312  22.356  0.00  0.00    -0.387 OA
ATOM     16  H   UNL     1       6.214   0.450  21.962  0.00  0.00    +0.210 HD
ENDBRANCH  14  15
BRANCH  14  17
ATOM     17  C   UNL     1       8.083   3.093  22.497  0.00  0.00    +0.171 C 
BRANCH  17  18
ATOM     18  O   UNL     1       8.251   2.855  23.908  0.00  0.00    -0.387 OA
ATOM     19  H   UNL     1       7.391   3.099  24.309  0.00  0.00    +0.210 HD
ENDBRANCH  17  18
BRANCH  17  20
ATOM     20  C   UNL     1       7.075   4.230  22.297  0.00  0.00    +0.189 C 
BRANCH  20  21
ATOM     21  O   UNL     1       7.785   5.377  21.819  0.00  0.00    -0.392 OA
ATOM     22  H   UNL     1       7.164   5.890  21.275  0.00  0.00    +0.210 HD
ENDBRANCH  20  21
ENDBRANCH  17  20
ENDBRANCH  14  17
ENDBRANCH   1  14
TORSDOF 13
ENDMDL
