MODEL 1
REMARK VINA RESULT:      -7.1      0.000      0.000
REMARK  Name = 
REMARK  11 active torsions:
REMARK  status: ('A' for Active; 'I' for Inactive)
REMARK    1  A    between atoms: N_4  and  O_5
REMARK    2  A    between atoms: O_5  and  C_6
REMARK    3  A    between atoms: C_6  and  C_7
REMARK    4  A    between atoms: C_7  and  N_8
REMARK    5  A    between atoms: C_9  and  C_11
REMARK    6  A    between atoms: C_11  and  C_12
REMARK    7  A    between atoms: C_13  and  C_30
REMARK    8  A    between atoms: C_16  and  N_17
REMARK    9  A    between atoms: N_17  and  C_18
REMARK   10  A    between atoms: C_18  and  C_19
REMARK   11  A    between atoms: C_19  and  C_22
REMARK                            x       y       z     vdW  Elec       q    Type
REMARK                         _______ _______ _______ _____ _____    ______ ____
ROOT
ATOM      1  C   UNL     1       8.607   0.546  22.543  0.00  0.00    +0.016 A 
ATOM      2  C   UNL     1       9.197  -0.704  22.799  0.00  0.00    +0.149 A 
ATOM      3  F   UNL     1      10.501  -0.868  22.521  0.00  0.00    -0.203 F 
ATOM      4  C   UNL     1       8.477  -1.806  23.302  0.00  0.00    +0.063 A 
ATOM      5  C   UNL     1       7.138  -1.588  23.641  0.00  0.00    +0.027 A 
ATOM      6  C   UNL     1       6.521  -0.362  23.384  0.00  0.00    +0.021 A 
ATOM      7  C   UNL     1       7.241   0.700  22.824  0.00  0.00    +0.058 A 
ENDROOT
BRANCH   4   8
ATOM      8  N   UNL     1       9.137  -3.021  23.551  0.00  0.00    -0.336 N 
ATOM      9  H   UNL     1       8.937  -3.718  22.831  0.00  0.00    +0.146 HD
BRANCH   8  10
ATOM     10  C   UNL     1       9.126  -3.564  24.932  0.00  0.00    +0.183 C 
BRANCH  10  11
ATOM     11  C   UNL     1       8.520  -4.982  25.071  0.00  0.00    +0.305 C 
ATOM     12  F   UNL     1       7.930  -5.091  26.302  0.00  0.00    -0.197 F 
ATOM     13  F   UNL     1       9.553  -5.883  25.096  0.00  0.00    -0.197 F 
BRANCH  11  14
ATOM     14  C   UNL     1       7.529  -5.279  23.947  0.00  0.00    +0.111 A 
ATOM     15  C   UNL     1       6.165  -5.110  24.187  0.00  0.00    +0.029 A 
ATOM     16  C   UNL     1       5.262  -5.317  23.146  0.00  0.00    +0.003 A 
ATOM     17  C   UNL     1       5.734  -5.691  21.894  0.00  0.00    +0.020 A 
ATOM     18  C   UNL     1       7.097  -5.859  21.735  0.00  0.00    +0.111 A 
ATOM     19  N   UNL     1       7.998  -5.667  22.726  0.00  0.00    -0.254 NA
ENDBRANCH  11  14
ENDBRANCH  10  11
ENDBRANCH   8  10
ENDBRANCH   4   8
BRANCH   7  20
ATOM     20  C   UNL     1       6.520   1.901  22.512  0.00  0.00    +0.100 C 
ATOM     21  N   UNL     1       5.904   2.865  22.319  0.00  0.00    -0.191 NA
ENDBRANCH   7  20
BRANCH   1  22
ATOM     22  C   UNL     1       9.456   1.668  21.991  0.00  0.00    +0.135 C 
BRANCH  22  25
ATOM     23  N   UNL     1      11.085   3.369  22.619  0.00  0.00    -0.313 N 
ATOM     24  H   UNL     1      11.473   3.256  21.684  0.00  0.00    +0.149 HD
ATOM     25  C   UNL     1      10.133   2.492  23.074  0.00  0.00    +0.218 C 
ATOM     26  O   UNL     1       9.844   2.379  24.262  0.00  0.00    -0.275 OA
BRANCH  23  27
ATOM     27  C   UNL     1      11.818   4.254  23.511  0.00  0.00    +0.136 C 
BRANCH  27  28
ATOM     28  C   UNL     1      11.410   5.733  23.392  0.00  0.00    +0.228 C 
BRANCH  28  29
ATOM     29  O   UNL     1      10.097   6.038  23.901  0.00  0.00    -0.217 OA
BRANCH  29  34
ATOM     30  N   UNL     1       7.808   4.886  23.918  0.00  0.00    -0.287 N 
ATOM     31  H   UNL     1       8.676   4.597  24.370  0.00  0.00    +0.255 HD
ATOM     32  H   UNL     1       7.196   4.091  23.791  0.00  0.00    +0.255 HD
ATOM     33  C   UNL     1       8.085   5.586  22.794  0.00  0.00    +0.404 C 
ATOM     34  N   UNL     1       9.262   6.269  22.807  0.00  0.00    -0.139 N 
ATOM     35  H   UNL     1       9.701   6.413  21.901  0.00  0.00    +0.299 HD
ATOM     36  N   UNL     1       7.278   5.628  21.794  0.00  0.00    -0.128 NA
ATOM     37  H   UNL     1       6.431   5.107  22.034  0.00  0.00    +0.306 HD
ENDBRANCH  29  34
ENDBRANCH  28  29
ENDBRANCH  27  28
ENDBRANCH  23  27
ENDBRANCH  22  25
ENDBRANCH   1  22
TORSDOF 11
ENDMDL
MODEL 2
REMARK VINA RESULT:      -7.0      2.342      3.402
REMARK  Name = 
REMARK  11 active torsions:
REMARK  status: ('A' for Active; 'I' for Inactive)
REMARK    1  A    between atoms: N_4  and  O_5
REMARK    2  A    between atoms: O_5  and  C_6
REMARK    3  A    between atoms: C_6  and  C_7
REMARK    4  A    between atoms: C_7  and  N_8
REMARK    5  A    between atoms: C_9  and  C_11
REMARK    6  A    between atoms: C_11  and  C_12
REMARK    7  A    between atoms: C_13  and  C_30
REMARK    8  A    between atoms: C_16  and  N_17
REMARK    9  A    between atoms: N_17  and  C_18
REMARK   10  A    between atoms: C_18  and  C_19
REMARK   11  A    between atoms: C_19  and  C_22
REMARK                            x       y       z     vdW  Elec       q    Type
REMARK                         _______ _______ _______ _____ _____    ______ ____
ROOT
ATOM      1  C   UNL     1       8.438  -0.778  24.776  0.00  0.00    +0.016 A 
ATOM      2  C   UNL     1       8.440  -1.745  23.755  0.00  0.00    +0.149 A 
ATOM      3  F   UNL     1       9.621  -2.193  23.297  0.00  0.00    -0.203 F 
ATOM      4  C   UNL     1       7.261  -2.242  23.163  0.00  0.00    +0.063 A 
ATOM      5  C   UNL     1       6.047  -1.805  23.703  0.00  0.00    +0.027 A 
ATOM      6  C   UNL     1       6.014  -0.835  24.707  0.00  0.00    +0.021 A 
ATOM      7  C   UNL     1       7.199  -0.308  25.235  0.00  0.00    +0.058 A 
ENDROOT
BRANCH   4   8
ATOM      8  N   UNL     1       7.340  -3.222  22.159  0.00  0.00    -0.336 N 
ATOM      9  H   UNL     1       7.476  -2.809  21.235  0.00  0.00    +0.146 HD
BRANCH   8  10
ATOM     10  C   UNL     1       6.362  -4.339  22.181  0.00  0.00    +0.183 C 
BRANCH  10  11
ATOM     11  C   UNL     1       6.828  -5.599  22.950  0.00  0.00    +0.305 C 
ATOM     12  F   UNL     1       7.579  -6.377  22.111  0.00  0.00    -0.197 F 
ATOM     13  F   UNL     1       5.719  -6.355  23.233  0.00  0.00    -0.197 F 
BRANCH  11  14
ATOM     14  C   UNL     1       7.604  -5.227  24.213  0.00  0.00    +0.111 A 
ATOM     15  C   UNL     1       6.896  -4.919  25.375  0.00  0.00    +0.029 A 
ATOM     16  C   UNL     1       7.600  -4.643  26.546  0.00  0.00    +0.003 A 
ATOM     17  C   UNL     1       8.989  -4.675  26.534  0.00  0.00    +0.020 A 
ATOM     18  C   UNL     1       9.624  -4.969  25.341  0.00  0.00    +0.111 A 
ATOM     19  N   UNL     1       8.969  -5.239  24.189  0.00  0.00    -0.254 NA
ENDBRANCH  11  14
ENDBRANCH  10  11
ENDBRANCH   8  10
ENDBRANCH   4   8
BRANCH   7  20
ATOM     20  C   UNL     1       7.084   0.745  26.204  0.00  0.00    +0.100 C 
ATOM     21  N   UNL     1       6.926   1.580  26.994  0.00  0.00    -0.191 NA
ENDBRANCH   7  20
BRANCH   1  22
ATOM     22  C   UNL     1       9.753  -0.294  25.341  0.00  0.00    +0.135 C 
BRANCH  22  25
ATOM     23  N   UNL     1       9.555   1.458  23.657  0.00  0.00    -0.313 N 
ATOM     24  H   UNL     1       8.634   1.074  23.455  0.00  0.00    +0.149 HD
ATOM     25  C   UNL     1      10.411   0.776  24.485  0.00  0.00    +0.218 C 
ATOM     26  O   UNL     1      11.616   1.009  24.538  0.00  0.00    -0.275 OA
BRANCH  23  27
ATOM     27  C   UNL     1      10.006   2.531  22.784  0.00  0.00    +0.136 C 
BRANCH  27  28
ATOM     28  C   UNL     1       9.537   3.929  23.225  0.00  0.00    +0.228 C 
BRANCH  28  29
ATOM     29  O   UNL     1      10.553   4.734  23.853  0.00  0.00    -0.217 OA
BRANCH  29  34
ATOM     30  N   UNL     1      12.552   6.252  24.367  0.00  0.00    -0.287 N 
ATOM     31  H   UNL     1      11.559   6.486  24.337  0.00  0.00    +0.255 HD
ATOM     32  H   UNL     1      13.113   7.084  24.233  0.00  0.00    +0.255 HD
ATOM     33  C   UNL     1      12.813   5.238  23.511  0.00  0.00    +0.404 C 
ATOM     34  N   UNL     1      11.781   4.377  23.295  0.00  0.00    -0.139 N 
ATOM     35  H   UNL     1      11.771   3.917  22.389  0.00  0.00    +0.299 HD
ATOM     36  N   UNL     1      13.965   5.080  22.963  0.00  0.00    -0.128 NA
ATOM     37  H   UNL     1      14.601   5.793  23.325  0.00  0.00    +0.306 HD
ENDBRANCH  29  34
ENDBRANCH  28  29
ENDBRANCH  27  28
ENDBRANCH  23  27
ENDBRANCH  22  25
ENDBRANCH   1  22
TORSDOF 11
ENDMDL
MODEL 3
REMARK VINA RESULT:      -7.0      1.267      2.098
REMARK  Name = 
REMARK  11 active torsions:
REMARK  status: ('A' for Active; 'I' for Inactive)
REMARK    1  A    between atoms: N_4  and  O_5
REMARK    2  A    between atoms: O_5  and  C_6
REMARK    3  A    between atoms: C_6  and  C_7
REMARK    4  A    between atoms: C_7  and  N_8
REMARK    5  A    between atoms: C_9  and  C_11
REMARK    6  A    between atoms: C_11  and  C_12
REMARK    7  A    between atoms: C_13  and  C_30
REMARK    8  A    between atoms: C_16  and  N_17
REMARK    9  A    between atoms: N_17  and  C_18
REMARK   10  A    between atoms: C_18  and  C_19
REMARK   11  A    between atoms: C_19  and  C_22
REMARK                            x       y       z     vdW  Elec       q    Type
REMARK                         _______ _______ _______ _____ _____    ______ ____
ROOT
ATOM      1  C   UNL     1       8.666   0.711  22.386  0.00  0.00    +0.016 A 
ATOM      2  C   UNL     1       9.214  -0.571  22.565  0.00  0.00    +0.149 A 
ATOM      3  F   UNL     1      10.524  -0.750  22.325  0.00  0.00    -0.203 F 
ATOM      4  C   UNL     1       8.446  -1.689  22.950  0.00  0.00    +0.063 A 
ATOM      5  C   UNL     1       7.101  -1.461  23.254  0.00  0.00    +0.027 A 
ATOM      6  C   UNL     1       6.525  -0.201  23.071  0.00  0.00    +0.021 A 
ATOM      7  C   UNL     1       7.295   0.881  22.625  0.00  0.00    +0.058 A 
ENDROOT
BRANCH   4   8
ATOM      8  N   UNL     1       9.066  -2.937  23.126  0.00  0.00    -0.336 N 
ATOM      9  H   UNL     1       8.640  -3.660  22.544  0.00  0.00    +0.146 HD
BRANCH   8  10
ATOM     10  C   UNL     1       9.377  -3.386  24.507  0.00  0.00    +0.183 C 
BRANCH  10  11
ATOM     11  C   UNL     1       8.475  -4.524  25.042  0.00  0.00    +0.305 C 
ATOM     12  F   UNL     1       7.798  -4.072  26.143  0.00  0.00    -0.197 F 
ATOM     13  F   UNL     1       9.290  -5.521  25.516  0.00  0.00    -0.197 F 
BRANCH  11  14
ATOM     14  C   UNL     1       7.518  -5.032  23.965  0.00  0.00    +0.111 A 
ATOM     15  C   UNL     1       6.146  -4.839  24.136  0.00  0.00    +0.029 A 
ATOM     16  C   UNL     1       5.274  -5.242  23.127  0.00  0.00    +0.003 A 
ATOM     17  C   UNL     1       5.782  -5.831  21.976  0.00  0.00    +0.020 A 
ATOM     18  C   UNL     1       7.151  -6.009  21.885  0.00  0.00    +0.111 A 
ATOM     19  N   UNL     1       8.022  -5.630  22.847  0.00  0.00    -0.254 NA
ENDBRANCH  11  14
ENDBRANCH  10  11
ENDBRANCH   8  10
ENDBRANCH   4   8
BRANCH   7  20
ATOM     20  C   UNL     1       6.616   2.122  22.383  0.00  0.00    +0.100 C 
ATOM     21  N   UNL     1       6.048   3.125  22.250  0.00  0.00    -0.191 NA
ENDBRANCH   7  20
BRANCH   1  22
ATOM     22  C   UNL     1       9.565   1.849  21.958  0.00  0.00    +0.135 C 
BRANCH  22  25
ATOM     23  N   UNL     1       9.123   3.758  23.408  0.00  0.00    -0.313 N 
ATOM     24  H   UNL     1       8.417   4.033  22.728  0.00  0.00    +0.149 HD
ATOM     25  C   UNL     1       9.993   2.738  23.114  0.00  0.00    +0.218 C 
ATOM     26  O   UNL     1      11.036   2.551  23.734  0.00  0.00    -0.275 OA
BRANCH  23  27
ATOM     27  C   UNL     1       9.360   4.692  24.497  0.00  0.00    +0.136 C 
BRANCH  27  28
ATOM     28  C   UNL     1       9.809   6.088  24.031  0.00  0.00    +0.228 C 
BRANCH  28  29
ATOM     29  O   UNL     1      10.848   6.084  23.033  0.00  0.00    -0.217 OA
BRANCH  29  34
ATOM     30  N   UNL     1      12.825   5.444  21.533  0.00  0.00    -0.287 N 
ATOM     31  H   UNL     1      11.825   5.361  21.349  0.00  0.00    +0.255 HD
ATOM     32  H   UNL     1      13.345   4.802  20.949  0.00  0.00    +0.255 HD
ATOM     33  C   UNL     1      13.059   5.332  22.861  0.00  0.00    +0.404 C 
ATOM     34  N   UNL     1      12.044   5.747  23.669  0.00  0.00    -0.139 N 
ATOM     35  H   UNL     1      11.984   5.290  24.575  0.00  0.00    +0.299 HD
ATOM     36  N   UNL     1      14.172   4.892  23.329  0.00  0.00    -0.128 NA
ATOM     37  H   UNL     1      14.808   4.713  22.549  0.00  0.00    +0.306 HD
ENDBRANCH  29  34
ENDBRANCH  28  29
ENDBRANCH  27  28
ENDBRANCH  23  27
ENDBRANCH  22  25
ENDBRANCH   1  22
TORSDOF 11
ENDMDL
MODEL 4
REMARK VINA RESULT:      -6.9      3.382      8.302
REMARK  Name = 
REMARK  11 active torsions:
REMARK  status: ('A' for Active; 'I' for Inactive)
REMARK    1  A    between atoms: N_4  and  O_5
REMARK    2  A    between atoms: O_5  and  C_6
REMARK    3  A    between atoms: C_6  and  C_7
REMARK    4  A    between atoms: C_7  and  N_8
REMARK    5  A    between atoms: C_9  and  C_11
REMARK    6  A    between atoms: C_11  and  C_12
REMARK    7  A    between atoms: C_13  and  C_30
REMARK    8  A    between atoms: C_16  and  N_17
REMARK    9  A    between atoms: N_17  and  C_18
REMARK   10  A    between atoms: C_18  and  C_19
REMARK   11  A    between atoms: C_19  and  C_22
REMARK                            x       y       z     vdW  Elec       q    Type
REMARK                         _______ _______ _______ _____ _____    ______ ____
ROOT
ATOM      1  C   UNL     1       7.301  -1.813  24.196  0.00  0.00    +0.016 A 
ATOM      2  C   UNL     1       7.905  -0.628  24.651  0.00  0.00    +0.149 A 
ATOM      3  F   UNL     1       7.149   0.268  25.308  0.00  0.00    -0.203 F 
ATOM      4  C   UNL     1       9.260  -0.317  24.419  0.00  0.00    +0.063 A 
ATOM      5  C   UNL     1      10.036  -1.294  23.788  0.00  0.00    +0.027 A 
ATOM      6  C   UNL     1       9.461  -2.475  23.312  0.00  0.00    +0.021 A 
ATOM      7  C   UNL     1       8.097  -2.733  23.498  0.00  0.00    +0.058 A 
ENDROOT
BRANCH   4   8
ATOM      8  N   UNL     1       9.801   0.879  24.919  0.00  0.00    -0.336 N 
ATOM      9  H   UNL     1       9.077   1.501  25.284  0.00  0.00    +0.146 HD
BRANCH   8  10
ATOM     10  C   UNL     1      10.843   1.574  24.123  0.00  0.00    +0.183 C 
BRANCH  10  11
ATOM     11  C   UNL     1      10.305   2.597  23.093  0.00  0.00    +0.305 C 
ATOM     12  F   UNL     1      10.651   2.182  21.835  0.00  0.00    -0.197 F 
ATOM     13  F   UNL     1      10.983   3.775  23.274  0.00  0.00    -0.197 F 
BRANCH  11  14
ATOM     14  C   UNL     1       8.794   2.781  23.225  0.00  0.00    +0.111 A 
ATOM     15  C   UNL     1       7.962   2.272  22.227  0.00  0.00    +0.029 A 
ATOM     16  C   UNL     1       6.580   2.380  22.375  0.00  0.00    +0.003 A 
ATOM     17  C   UNL     1       6.059   2.995  23.507  0.00  0.00    +0.020 A 
ATOM     18  C   UNL     1       6.944   3.493  24.445  0.00  0.00    +0.111 A 
ATOM     19  N   UNL     1       8.289   3.405  24.329  0.00  0.00    -0.254 NA
ENDBRANCH  11  14
ENDBRANCH  10  11
ENDBRANCH   8  10
ENDBRANCH   4   8
BRANCH   7  20
ATOM     20  C   UNL     1       7.561  -3.927  22.909  0.00  0.00    +0.100 C 
ATOM     21  N   UNL     1       7.172  -4.928  22.469  0.00  0.00    -0.191 NA
ENDBRANCH   7  20
BRANCH   1  22
ATOM     22  C   UNL     1       5.836  -2.055  24.480  0.00  0.00    +0.135 C 
BRANCH  22  25
ATOM     23  N   UNL     1       5.044  -3.995  25.726  0.00  0.00    -0.313 N 
ATOM     24  H   UNL     1       4.597  -4.292  24.860  0.00  0.00    +0.149 HD
ATOM     25  C   UNL     1       5.593  -2.741  25.815  0.00  0.00    +0.218 C 
ATOM     26  O   UNL     1       5.872  -2.209  26.886  0.00  0.00    -0.275 OA
BRANCH  23  27
ATOM     27  C   UNL     1       4.764  -4.808  26.899  0.00  0.00    +0.136 C 
BRANCH  27  28
ATOM     28  C   UNL     1       5.851  -5.854  27.204  0.00  0.00    +0.228 C 
BRANCH  28  29
ATOM     29  O   UNL     1       7.080  -5.310  27.724  0.00  0.00    -0.217 OA
BRANCH  29  34
ATOM     30  N   UNL     1       8.803  -3.695  26.730  0.00  0.00    -0.287 N 
ATOM     31  H   UNL     1       7.821  -3.531  26.950  0.00  0.00    +0.255 HD
ATOM     32  H   UNL     1       9.125  -3.031  26.037  0.00  0.00    +0.255 HD
ATOM     33  C   UNL     1       8.992  -4.996  26.410  0.00  0.00    +0.404 C 
ATOM     34  N   UNL     1       8.131  -5.872  26.999  0.00  0.00    -0.139 N 
ATOM     35  H   UNL     1       7.943  -6.725  26.479  0.00  0.00    +0.299 HD
ATOM     36  N   UNL     1       9.936  -5.383  25.628  0.00  0.00    -0.128 NA
ATOM     37  H   UNL     1      10.498  -4.570  25.366  0.00  0.00    +0.306 HD
ENDBRANCH  29  34
ENDBRANCH  28  29
ENDBRANCH  27  28
ENDBRANCH  23  27
ENDBRANCH  22  25
ENDBRANCH   1  22
TORSDOF 11
ENDMDL
MODEL 5
REMARK VINA RESULT:      -6.8      2.493      3.847
REMARK  Name = 
REMARK  11 active torsions:
REMARK  status: ('A' for Active; 'I' for Inactive)
REMARK    1  A    between atoms: N_4  and  O_5
REMARK    2  A    between atoms: O_5  and  C_6
REMARK    3  A    between atoms: C_6  and  C_7
REMARK    4  A    between atoms: C_7  and  N_8
REMARK    5  A    between atoms: C_9  and  C_11
REMARK    6  A    between atoms: C_11  and  C_12
REMARK    7  A    between atoms: C_13  and  C_30
REMARK    8  A    between atoms: C_16  and  N_17
REMARK    9  A    between atoms: N_17  and  C_18
REMARK   10  A    between atoms: C_18  and  C_19
REMARK   11  A    between atoms: C_19  and  C_22
REMARK                            x       y       z     vdW  Elec       q    Type
REMARK                         _______ _______ _______ _____ _____    ______ ____
ROOT
ATOM      1  C   UNL     1       7.967  -0.488  24.168  0.00  0.00    +0.016 A 
ATOM      2  C   UNL     1       6.943  -1.308  23.664  0.00  0.00    +0.149 A 
ATOM      3  F   UNL     1       5.719  -1.220  24.212  0.00  0.00    -0.203 F 
ATOM      4  C   UNL     1       7.146  -2.245  22.630  0.00  0.00    +0.063 A 
ATOM      5  C   UNL     1       8.411  -2.269  22.036  0.00  0.00    +0.027 A 
ATOM      6  C   UNL     1       9.452  -1.477  22.525  0.00  0.00    +0.021 A 
ATOM      7  C   UNL     1       9.243  -0.599  23.596  0.00  0.00    +0.058 A 
ENDROOT
BRANCH   4   8
ATOM      8  N   UNL     1       6.070  -3.019  22.164  0.00  0.00    -0.336 N 
ATOM      9  H   UNL     1       5.264  -2.967  22.789  0.00  0.00    +0.146 HD
BRANCH   8  10
ATOM     10  C   UNL     1       6.348  -4.386  21.655  0.00  0.00    +0.183 C 
BRANCH  10  11
ATOM     11  C   UNL     1       6.215  -5.513  22.707  0.00  0.00    +0.305 C 
ATOM     12  F   UNL     1       6.804  -6.648  22.216  0.00  0.00    -0.197 F 
ATOM     13  F   UNL     1       4.885  -5.829  22.823  0.00  0.00    -0.197 F 
BRANCH  11  14
ATOM     14  C   UNL     1       6.824  -5.102  24.048  0.00  0.00    +0.111 A 
ATOM     15  C   UNL     1       8.203  -5.216  24.226  0.00  0.00    +0.029 A 
ATOM     16  C   UNL     1       8.770  -4.782  25.423  0.00  0.00    +0.003 A 
ATOM     17  C   UNL     1       7.955  -4.251  26.414  0.00  0.00    +0.020 A 
ATOM     18  C   UNL     1       6.594  -4.187  26.175  0.00  0.00    +0.111 A 
ATOM     19  N   UNL     1       6.014  -4.602  25.026  0.00  0.00    -0.254 NA
ENDBRANCH  11  14
ENDBRANCH  10  11
ENDBRANCH   8  10
ENDBRANCH   4   8
BRANCH   7  20
ATOM     20  C   UNL     1      10.379   0.120  24.097  0.00  0.00    +0.100 C 
ATOM     21  N   UNL     1      11.257   0.731  24.546  0.00  0.00    -0.191 NA
ENDBRANCH   7  20
BRANCH   1  22
ATOM     22  C   UNL     1       7.659   0.479  25.288  0.00  0.00    +0.135 C 
BRANCH  22  25
ATOM     23  N   UNL     1       8.606   2.726  25.264  0.00  0.00    -0.313 N 
ATOM     24  H   UNL     1       9.184   2.424  26.046  0.00  0.00    +0.149 HD
ATOM     25  C   UNL     1       7.582   1.925  24.823  0.00  0.00    +0.218 C 
ATOM     26  O   UNL     1       6.674   2.337  24.107  0.00  0.00    -0.275 OA
BRANCH  23  27
ATOM     27  C   UNL     1       8.708   4.130  24.899  0.00  0.00    +0.136 C 
BRANCH  27  28
ATOM     28  C   UNL     1       9.419   4.373  23.556  0.00  0.00    +0.228 C 
BRANCH  28  29
ATOM     29  O   UNL     1      10.402   5.427  23.579  0.00  0.00    -0.217 OA
BRANCH  29  34
ATOM     30  N   UNL     1      12.585   6.329  24.573  0.00  0.00    -0.287 N 
ATOM     31  H   UNL     1      11.675   6.785  24.500  0.00  0.00    +0.255 HD
ATOM     32  H   UNL     1      13.318   7.021  24.664  0.00  0.00    +0.255 HD
ATOM     33  C   UNL     1      12.743   5.453  23.554  0.00  0.00    +0.404 C 
ATOM     34  N   UNL     1      11.593   4.904  23.073  0.00  0.00    -0.139 N 
ATOM     35  H   UNL     1      11.610   4.629  22.095  0.00  0.00    +0.299 HD
ATOM     36  N   UNL     1      13.900   5.137  23.093  0.00  0.00    -0.128 NA
ATOM     37  H   UNL     1      14.616   5.608  23.650  0.00  0.00    +0.306 HD
ENDBRANCH  29  34
ENDBRANCH  28  29
ENDBRANCH  27  28
ENDBRANCH  23  27
ENDBRANCH  22  25
ENDBRANCH   1  22
TORSDOF 11
ENDMDL
MODEL 6
REMARK VINA RESULT:      -6.8      3.524      8.962
REMARK  Name = 
REMARK  11 active torsions:
REMARK  status: ('A' for Active; 'I' for Inactive)
REMARK    1  A    between atoms: N_4  and  O_5
REMARK    2  A    between atoms: O_5  and  C_6
REMARK    3  A    between atoms: C_6  and  C_7
REMARK    4  A    between atoms: C_7  and  N_8
REMARK    5  A    between atoms: C_9  and  C_11
REMARK    6  A    between atoms: C_11  and  C_12
REMARK    7  A    between atoms: C_13  and  C_30
REMARK    8  A    between atoms: C_16  and  N_17
REMARK    9  A    between atoms: N_17  and  C_18
REMARK   10  A    between atoms: C_18  and  C_19
REMARK   11  A    between atoms: C_19  and  C_22
REMARK                            x       y       z     vdW  Elec       q    Type
REMARK                         _______ _______ _______ _____ _____    ______ ____
ROOT
ATOM      1  C   UNL     1       9.487   0.378  24.159  0.00  0.00    +0.016 A 
ATOM      2  C   UNL     1       9.120   1.702  23.858  0.00  0.00    +0.149 A 
ATOM      3  F   UNL     1       8.825   2.534  24.871  0.00  0.00    -0.203 F 
ATOM      4  C   UNL     1       9.014   2.189  22.540  0.00  0.00    +0.063 A 
ATOM      5  C   UNL     1       9.389   1.322  21.510  0.00  0.00    +0.027 A 
ATOM      6  C   UNL     1       9.742  -0.003  21.777  0.00  0.00    +0.021 A 
ATOM      7  C   UNL     1       9.778  -0.484  23.092  0.00  0.00    +0.058 A 
ENDROOT
BRANCH   4   8
ATOM      8  N   UNL     1       8.659   3.531  22.315  0.00  0.00    -0.336 N 
ATOM      9  H   UNL     1       9.223   4.172  22.875  0.00  0.00    +0.146 HD
BRANCH   8  10
ATOM     10  C   UNL     1       7.218   3.884  22.265  0.00  0.00    +0.183 C 
BRANCH  10  11
ATOM     11  C   UNL     1       6.884   5.325  22.722  0.00  0.00    +0.305 C 
ATOM     12  F   UNL     1       5.580   5.365  23.139  0.00  0.00    -0.197 F 
ATOM     13  F   UNL     1       6.925   6.138  21.619  0.00  0.00    -0.197 F 
BRANCH  11  14
ATOM     14  C   UNL     1       7.837   5.799  23.818  0.00  0.00    +0.111 A 
ATOM     15  C   UNL     1       7.481   5.604  25.153  0.00  0.00    +0.029 A 
ATOM     16  C   UNL     1       8.376   5.976  26.155  0.00  0.00    +0.003 A 
ATOM     17  C   UNL     1       9.598   6.537  25.808  0.00  0.00    +0.020 A 
ATOM     18  C   UNL     1       9.874   6.719  24.465  0.00  0.00    +0.111 A 
ATOM     19  N   UNL     1       9.027   6.370  23.471  0.00  0.00    -0.254 NA
ENDBRANCH  11  14
ENDBRANCH  10  11
ENDBRANCH   8  10
ENDBRANCH   4   8
BRANCH   7  20
ATOM     20  C   UNL     1      10.070  -1.876  23.282  0.00  0.00    +0.100 C 
ATOM     21  N   UNL     1      10.239  -3.014  23.431  0.00  0.00    -0.191 NA
ENDBRANCH   7  20
BRANCH   1  22
ATOM     22  C   UNL     1       9.561  -0.060  25.604  0.00  0.00    +0.135 C 
BRANCH  22  25
ATOM     23  N   UNL     1       7.278  -0.879  25.355  0.00  0.00    -0.313 N 
ATOM     24  H   UNL     1       7.071   0.015  24.915  0.00  0.00    +0.149 HD
ATOM     25  C   UNL     1       8.487  -1.070  25.976  0.00  0.00    +0.218 C 
ATOM     26  O   UNL     1       8.693  -1.984  26.770  0.00  0.00    -0.275 OA
BRANCH  23  27
ATOM     27  C   UNL     1       6.144  -1.762  25.574  0.00  0.00    +0.136 C 
BRANCH  27  28
ATOM     28  C   UNL     1       6.193  -3.056  24.742  0.00  0.00    +0.228 C 
BRANCH  28  29
ATOM     29  O   UNL     1       6.706  -4.204  25.446  0.00  0.00    -0.217 OA
BRANCH  29  34
ATOM     30  N   UNL     1       8.186  -5.820  26.774  0.00  0.00    -0.287 N 
ATOM     31  H   UNL     1       7.457  -5.192  27.112  0.00  0.00    +0.255 HD
ATOM     32  H   UNL     1       8.826  -6.050  27.523  0.00  0.00    +0.255 HD
ATOM     33  C   UNL     1       8.762  -5.302  25.664  0.00  0.00    +0.404 C 
ATOM     34  N   UNL     1       7.957  -4.507  24.907  0.00  0.00    -0.139 N 
ATOM     35  H   UNL     1       8.427  -3.783  24.371  0.00  0.00    +0.299 HD
ATOM     36  N   UNL     1       9.975  -5.566  25.331  0.00  0.00    -0.128 NA
ATOM     37  H   UNL     1      10.359  -6.238  25.999  0.00  0.00    +0.306 HD
ENDBRANCH  29  34
ENDBRANCH  28  29
ENDBRANCH  27  28
ENDBRANCH  23  27
ENDBRANCH  22  25
ENDBRANCH   1  22
TORSDOF 11
ENDMDL
MODEL 7
REMARK VINA RESULT:      -6.7      2.478      3.803
REMARK  Name = 
REMARK  11 active torsions:
REMARK  status: ('A' for Active; 'I' for Inactive)
REMARK    1  A    between atoms: N_4  and  O_5
REMARK    2  A    between atoms: O_5  and  C_6
REMARK    3  A    between atoms: C_6  and  C_7
REMARK    4  A    between atoms: C_7  and  N_8
REMARK    5  A    between atoms: C_9  and  C_11
REMARK    6  A    between atoms: C_11  and  C_12
REMARK    7  A    between atoms: C_13  and  C_30
REMARK    8  A    between atoms: C_16  and  N_17
REMARK    9  A    between atoms: N_17  and  C_18
REMARK   10  A    between atoms: C_18  and  C_19
REMARK   11  A    between atoms: C_19  and  C_22
REMARK                            x       y       z     vdW  Elec       q    Type
REMARK                         _______ _______ _______ _____ _____    ______ ____
ROOT
ATOM      1  C   UNL     1       8.041  -0.757  24.543  0.00  0.00    +0.016 A 
ATOM      2  C   UNL     1       7.034  -1.552  23.969  0.00  0.00    +0.149 A 
ATOM      3  F   UNL     1       5.851  -1.645  24.598  0.00  0.00    -0.203 F 
ATOM      4  C   UNL     1       7.219  -2.287  22.780  0.00  0.00    +0.063 A 
ATOM      5  C   UNL     1       8.437  -2.121  22.114  0.00  0.00    +0.027 A 
ATOM      6  C   UNL     1       9.461  -1.350  22.668  0.00  0.00    +0.021 A 
ATOM      7  C   UNL     1       9.277  -0.680  23.884  0.00  0.00    +0.058 A 
ENDROOT
BRANCH   4   8
ATOM      8  N   UNL     1       6.160  -3.047  22.255  0.00  0.00    -0.336 N 
ATOM      9  H   UNL     1       5.327  -2.998  22.843  0.00  0.00    +0.146 HD
BRANCH   8  10
ATOM     10  C   UNL     1       6.453  -4.408  21.739  0.00  0.00    +0.183 C 
BRANCH  10  11
ATOM     11  C   UNL     1       6.314  -5.544  22.782  0.00  0.00    +0.305 C 
ATOM     12  F   UNL     1       6.679  -6.727  22.197  0.00  0.00    -0.197 F 
ATOM     13  F   UNL     1       4.982  -5.692  23.071  0.00  0.00    -0.197 F 
BRANCH  11  14
ATOM     14  C   UNL     1       7.143  -5.259  24.033  0.00  0.00    +0.111 A 
ATOM     15  C   UNL     1       6.484  -5.020  25.240  0.00  0.00    +0.029 A 
ATOM     16  C   UNL     1       7.236  -4.823  26.396  0.00  0.00    +0.003 A 
ATOM     17  C   UNL     1       8.623  -4.864  26.327  0.00  0.00    +0.020 A 
ATOM     18  C   UNL     1       9.207  -5.087  25.094  0.00  0.00    +0.111 A 
ATOM     19  N   UNL     1       8.505  -5.279  23.954  0.00  0.00    -0.254 NA
ENDBRANCH  11  14
ENDBRANCH  10  11
ENDBRANCH   8  10
ENDBRANCH   4   8
BRANCH   7  20
ATOM     20  C   UNL     1      10.402   0.024  24.431  0.00  0.00    +0.100 C 
ATOM     21  N   UNL     1      11.268   0.633  24.906  0.00  0.00    -0.191 NA
ENDBRANCH   7  20
BRANCH   1  22
ATOM     22  C   UNL     1       7.757  -0.015  25.829  0.00  0.00    +0.135 C 
BRANCH  22  25
ATOM     23  N   UNL     1       8.118   2.396  25.827  0.00  0.00    -0.313 N 
ATOM     24  H   UNL     1       8.965   2.208  26.361  0.00  0.00    +0.149 HD
ATOM     25  C   UNL     1       7.216   1.387  25.600  0.00  0.00    +0.218 C 
ATOM     26  O   UNL     1       6.061   1.594  25.239  0.00  0.00    -0.275 OA
BRANCH  23  27
ATOM     27  C   UNL     1       7.782   3.799  25.636  0.00  0.00    +0.136 C 
BRANCH  27  28
ATOM     28  C   UNL     1       8.257   4.374  24.290  0.00  0.00    +0.228 C 
BRANCH  28  29
ATOM     29  O   UNL     1       7.471   3.969  23.153  0.00  0.00    -0.217 OA
BRANCH  29  34
ATOM     30  N   UNL     1       6.814   1.690  22.183  0.00  0.00    -0.287 N 
ATOM     31  H   UNL     1       6.571   2.098  23.086  0.00  0.00    +0.255 HD
ATOM     32  H   UNL     1       6.733   0.682  22.220  0.00  0.00    +0.255 HD
ATOM     33  C   UNL     1       8.016   2.156  21.775  0.00  0.00    +0.404 C 
ATOM     34  N   UNL     1       8.339   3.403  22.219  0.00  0.00    -0.139 N 
ATOM     35  H   UNL     1       9.332   3.592  22.323  0.00  0.00    +0.299 HD
ATOM     36  N   UNL     1       8.788   1.483  20.999  0.00  0.00    -0.128 NA
ATOM     37  H   UNL     1       8.313   0.617  20.735  0.00  0.00    +0.306 HD
ENDBRANCH  29  34
ENDBRANCH  28  29
ENDBRANCH  27  28
ENDBRANCH  23  27
ENDBRANCH  22  25
ENDBRANCH   1  22
TORSDOF 11
ENDMDL
MODEL 8
REMARK VINA RESULT:      -6.6      3.561      8.943
REMARK  Name = 
REMARK  11 active torsions:
REMARK  status: ('A' for Active; 'I' for Inactive)
REMARK    1  A    between atoms: N_4  and  O_5
REMARK    2  A    between atoms: O_5  and  C_6
REMARK    3  A    between atoms: C_6  and  C_7
REMARK    4  A    between atoms: C_7  and  N_8
REMARK    5  A    between atoms: C_9  and  C_11
REMARK    6  A    between atoms: C_11  and  C_12
REMARK    7  A    between atoms: C_13  and  C_30
REMARK    8  A    between atoms: C_16  and  N_17
REMARK    9  A    between atoms: N_17  and  C_18
REMARK   10  A    between atoms: C_18  and  C_19
REMARK   11  A    between atoms: C_19  and  C_22
REMARK                            x       y       z     vdW  Elec       q    Type
REMARK                         _______ _______ _______ _____ _____    ______ ____
ROOT
ATOM      1  C   UNL     1       8.232  -3.803  24.510  0.00  0.00    +0.016 A 
ATOM      2  C   UNL     1       8.501  -2.535  25.053  0.00  0.00    +0.149 A 
ATOM      3  F   UNL     1       8.962  -2.459  26.313  0.00  0.00    -0.203 F 
ATOM      4  C   UNL     1       8.276  -1.334  24.350  0.00  0.00    +0.063 A 
ATOM      5  C   UNL     1       7.857  -1.445  23.021  0.00  0.00    +0.027 A 
ATOM      6  C   UNL     1       7.567  -2.691  22.459  0.00  0.00    +0.021 A 
ATOM      7  C   UNL     1       7.737  -3.868  23.199  0.00  0.00    +0.058 A 
ENDROOT
BRANCH   4   8
ATOM      8  N   UNL     1       8.585  -0.102  24.951  0.00  0.00    -0.336 N 
ATOM      9  H   UNL     1       7.859   0.597  24.783  0.00  0.00    +0.146 HD
BRANCH   8  10
ATOM     10  C   UNL     1       9.967   0.425  24.818  0.00  0.00    +0.183 C 
BRANCH  10  11
ATOM     11  C   UNL     1      10.174   1.427  23.656  0.00  0.00    +0.305 C 
ATOM     12  F   UNL     1      10.545   0.733  22.535  0.00  0.00    -0.197 F 
ATOM     13  F   UNL     1      11.259   2.209  23.960  0.00  0.00    -0.197 F 
BRANCH  11  14
ATOM     14  C   UNL     1       8.919   2.262  23.407  0.00  0.00    +0.111 A 
ATOM     15  C   UNL     1       8.343   2.254  22.136  0.00  0.00    +0.029 A 
ATOM     16  C   UNL     1       7.162   2.962  21.921  0.00  0.00    +0.003 A 
ATOM     17  C   UNL     1       6.585   3.665  22.971  0.00  0.00    +0.020 A 
ATOM     18  C   UNL     1       7.221   3.643  24.198  0.00  0.00    +0.111 A 
ATOM     19  N   UNL     1       8.368   2.967  24.437  0.00  0.00    -0.254 NA
ENDBRANCH  11  14
ENDBRANCH  10  11
ENDBRANCH   8  10
ENDBRANCH   4   8
BRANCH   7  20
ATOM     20  C   UNL     1       7.340  -5.102  22.583  0.00  0.00    +0.100 C 
ATOM     21  N   UNL     1       6.972  -6.066  22.052  0.00  0.00    -0.191 NA
ENDBRANCH   7  20
BRANCH   1  22
ATOM     22  C   UNL     1       8.491  -5.037  25.344  0.00  0.00    +0.135 C 
BRANCH  22  25
ATOM     23  N   UNL     1       6.321  -6.022  25.857  0.00  0.00    -0.313 N 
ATOM     24  H   UNL     1       6.182  -6.090  24.851  0.00  0.00    +0.149 HD
ATOM     25  C   UNL     1       7.389  -5.317  26.353  0.00  0.00    +0.218 C 
ATOM     26  O   UNL     1       7.456  -4.940  27.520  0.00  0.00    -0.275 OA
BRANCH  23  27
ATOM     27  C   UNL     1       5.186  -6.399  26.685  0.00  0.00    +0.136 C 
BRANCH  27  28
ATOM     28  C   UNL     1       4.090  -7.167  25.925  0.00  0.00    +0.228 C 
BRANCH  28  29
ATOM     29  O   UNL     1       4.376  -7.402  24.532  0.00  0.00    -0.217 OA
BRANCH  29  34
ATOM     30  N   UNL     1       3.941  -5.313  23.113  0.00  0.00    -0.287 N 
ATOM     31  H   UNL     1       4.521  -5.414  23.947  0.00  0.00    +0.255 HD
ATOM     32  H   UNL     1       3.671  -4.346  22.988  0.00  0.00    +0.255 HD
ATOM     33  C   UNL     1       2.917  -6.196  23.154  0.00  0.00    +0.404 C 
ATOM     34  N   UNL     1       3.168  -7.347  23.837  0.00  0.00    -0.139 N 
ATOM     35  H   UNL     1       2.359  -7.795  24.261  0.00  0.00    +0.299 HD
ATOM     36  N   UNL     1       1.797  -5.978  22.564  0.00  0.00    -0.128 NA
ATOM     37  H   UNL     1       1.861  -5.094  22.055  0.00  0.00    +0.306 HD
ENDBRANCH  29  34
ENDBRANCH  28  29
ENDBRANCH  27  28
ENDBRANCH  23  27
ENDBRANCH  22  25
ENDBRANCH   1  22
TORSDOF 11
ENDMDL
MODEL 9
REMARK VINA RESULT:      -6.6      3.657      8.391
REMARK  Name = 
REMARK  11 active torsions:
REMARK  status: ('A' for Active; 'I' for Inactive)
REMARK    1  A    between atoms: N_4  and  O_5
REMARK    2  A    between atoms: O_5  and  C_6
REMARK    3  A    between atoms: C_6  and  C_7
REMARK    4  A    between atoms: C_7  and  N_8
REMARK    5  A    between atoms: C_9  and  C_11
REMARK    6  A    between atoms: C_11  and  C_12
REMARK    7  A    between atoms: C_13  and  C_30
REMARK    8  A    between atoms: C_16  and  N_17
REMARK    9  A    between atoms: N_17  and  C_18
REMARK   10  A    between atoms: C_18  and  C_19
REMARK   11  A    between atoms: C_19  and  C_22
REMARK                            x       y       z     vdW  Elec       q    Type
REMARK                         _______ _______ _______ _____ _____    ______ ____
ROOT
ATOM      1  C   UNL     1       4.894  -4.224  24.022  0.00  0.00    +0.016 A 
ATOM      2  C   UNL     1       6.186  -3.671  23.985  0.00  0.00    +0.149 A 
ATOM      3  F   UNL     1       6.453  -2.607  24.761  0.00  0.00    -0.203 F 
ATOM      4  C   UNL     1       7.207  -4.159  23.145  0.00  0.00    +0.063 A 
ATOM      5  C   UNL     1       6.921  -5.305  22.396  0.00  0.00    +0.027 A 
ATOM      6  C   UNL     1       5.642  -5.866  22.401  0.00  0.00    +0.021 A 
ATOM      7  C   UNL     1       4.624  -5.324  23.196  0.00  0.00    +0.058 A 
ENDROOT
BRANCH   4   8
ATOM      8  N   UNL     1       8.482  -3.567  23.174  0.00  0.00    -0.336 N 
ATOM      9  H   UNL     1       8.918  -3.648  24.094  0.00  0.00    +0.146 HD
BRANCH   8  10
ATOM     10  C   UNL     1       8.661  -2.238  22.539  0.00  0.00    +0.183 C 
BRANCH  10  11
ATOM     11  C   UNL     1       9.892  -1.440  23.031  0.00  0.00    +0.305 C 
ATOM     12  F   UNL     1      10.984  -1.810  22.292  0.00  0.00    -0.197 F 
ATOM     13  F   UNL     1      10.177  -1.849  24.309  0.00  0.00    -0.197 F 
BRANCH  11  14
ATOM     14  C   UNL     1       9.650   0.067  22.955  0.00  0.00    +0.111 A 
ATOM     15  C   UNL     1       8.935   0.582  21.872  0.00  0.00    +0.029 A 
ATOM     16  C   UNL     1       8.656   1.946  21.831  0.00  0.00    +0.003 A 
ATOM     17  C   UNL     1       9.096   2.767  22.861  0.00  0.00    +0.020 A 
ATOM     18  C   UNL     1       9.816   2.191  23.892  0.00  0.00    +0.111 A 
ATOM     19  N   UNL     1      10.105   0.871  23.959  0.00  0.00    -0.254 NA
ENDBRANCH  11  14
ENDBRANCH  10  11
ENDBRANCH   8  10
ENDBRANCH   4   8
BRANCH   7  20
ATOM     20  C   UNL     1       3.315  -5.904  23.085  0.00  0.00    +0.100 C 
ATOM     21  N   UNL     1       2.259  -6.359  22.930  0.00  0.00    -0.191 NA
ENDBRANCH   7  20
BRANCH   1  22
ATOM     22  C   UNL     1       3.858  -3.625  24.945  0.00  0.00    +0.135 C 
BRANCH  22  25
ATOM     23  N   UNL     1       4.273  -5.132  26.816  0.00  0.00    -0.313 N 
ATOM     24  H   UNL     1       3.878  -5.867  26.232  0.00  0.00    +0.149 HD
ATOM     25  C   UNL     1       4.186  -3.822  26.416  0.00  0.00    +0.218 C 
ATOM     26  O   UNL     1       4.360  -2.878  27.182  0.00  0.00    -0.275 OA
BRANCH  23  27
ATOM     27  C   UNL     1       4.601  -5.509  28.182  0.00  0.00    +0.136 C 
BRANCH  27  28
ATOM     28  C   UNL     1       6.027  -6.062  28.349  0.00  0.00    +0.228 C 
BRANCH  28  29
ATOM     29  O   UNL     1       7.073  -5.164  27.931  0.00  0.00    -0.217 OA
BRANCH  29  34
ATOM     30  N   UNL     1       8.829  -3.815  26.640  0.00  0.00    -0.287 N 
ATOM     31  H   UNL     1       7.914  -3.519  26.981  0.00  0.00    +0.255 HD
ATOM     32  H   UNL     1       9.131  -3.219  25.881  0.00  0.00    +0.255 HD
ATOM     33  C   UNL     1       8.809  -5.139  26.360  0.00  0.00    +0.404 C 
ATOM     34  N   UNL     1       7.937  -5.878  27.099  0.00  0.00    -0.139 N 
ATOM     35  H   UNL     1       7.574  -6.715  26.650  0.00  0.00    +0.299 HD
ATOM     36  N   UNL     1       9.581  -5.667  25.478  0.00  0.00    -0.128 NA
ATOM     37  H   UNL     1      10.198  -4.942  25.106  0.00  0.00    +0.306 HD
ENDBRANCH  29  34
ENDBRANCH  28  29
ENDBRANCH  27  28
ENDBRANCH  23  27
ENDBRANCH  22  25
ENDBRANCH   1  22
TORSDOF 11
ENDMDL
