MODEL 1
REMARK VINA RESULT:      -4.6      0.000      0.000
REMARK  Name = 
REMARK  6 active torsions:
REMARK  status: ('A' for Active; 'I' for Inactive)
REMARK    1  A    between atoms: N_1  and  C_2
REMARK    2  A    between atoms: C_2  and  C_3
REMARK    3  A    between atoms: C_3  and  C_4
REMARK    4  A    between atoms: C_4  and  N_5
REMARK    5  A    between atoms: N_5  and  C_6
REMARK    6  A    between atoms: C_11  and  N_12
REMARK                            x       y       z     vdW  Elec       q    Type
REMARK                         _______ _______ _______ _____ _____    ______ ____
ROOT
ATOM      1  C   UNL     1       7.532  -0.515  23.296  0.00  0.00    +0.105 A 
ATOM      2  C   UNL     1       8.209  -1.508  22.557  0.00  0.00    +0.294 A 
ATOM      3  C   UNL     1       7.728  -2.827  22.440  0.00  0.00    +0.086 A 
ATOM      4  C   UNL     1       6.566  -3.198  23.106  0.00  0.00    +0.007 A 
ATOM      5  C   UNL     1       5.910  -2.267  23.900  0.00  0.00    +0.002 A 
ATOM      6  C   UNL     1       6.395  -0.957  24.004  0.00  0.00    +0.030 A 
ENDROOT
BRANCH   2   7
ATOM      7  N   UNL     1       9.451  -1.201  21.865  0.00  0.00    +0.082 N 
ATOM      8  O   UNL     1       9.412  -0.336  20.978  0.00  0.00    +0.042 OA
ATOM      9  O   UNL     1      10.474  -1.803  22.229  0.00  0.00    -0.576 OA
ENDBRANCH   2   7
BRANCH   1  10
ATOM     10  N   UNL     1       8.036   0.792  23.457  0.00  0.00    -0.339 N 
ATOM     11  H   UNL     1       7.291   1.493  23.387  0.00  0.00    +0.146 HD
BRANCH  10  12
ATOM     12  C   UNL     1       8.924   1.049  24.599  0.00  0.00    +0.103 C 
BRANCH  12  13
ATOM     13  C   UNL     1      10.341   1.386  24.137  0.00  0.00    +0.033 C 
BRANCH  13  14
ATOM     14  C   UNL     1      10.361   2.631  23.244  0.00  0.00    +0.079 C 
BRANCH  14  15
ATOM     15  N   UNL     1      10.247   2.298  21.828  0.00  0.00    -0.330 NA
ATOM     16  H   UNL     1      11.088   1.808  21.519  0.00  0.00    +0.118 HD
ATOM     17  H   UNL     1       9.474   1.648  21.689  0.00  0.00    +0.118 HD
ENDBRANCH  14  15
ENDBRANCH  13  14
ENDBRANCH  12  13
ENDBRANCH  10  12
ENDBRANCH   1  10
TORSDOF 6
ENDMDL
MODEL 2
REMARK VINA RESULT:      -4.6      2.701      3.390
REMARK  Name = 
REMARK  6 active torsions:
REMARK  status: ('A' for Active; 'I' for Inactive)
REMARK    1  A    between atoms: N_1  and  C_2
REMARK    2  A    between atoms: C_2  and  C_3
REMARK    3  A    between atoms: C_3  and  C_4
REMARK    4  A    between atoms: C_4  and  N_5
REMARK    5  A    between atoms: N_5  and  C_6
REMARK    6  A    between atoms: C_11  and  N_12
REMARK                            x       y       z     vdW  Elec       q    Type
REMARK                         _______ _______ _______ _____ _____    ______ ____
ROOT
ATOM      1  C   UNL     1       8.283  -3.070  23.259  0.00  0.00    +0.105 A 
ATOM      2  C   UNL     1       8.102  -4.365  23.789  0.00  0.00    +0.294 A 
ATOM      3  C   UNL     1       7.109  -5.247  23.319  0.00  0.00    +0.086 A 
ATOM      4  C   UNL     1       6.233  -4.830  22.324  0.00  0.00    +0.007 A 
ATOM      5  C   UNL     1       6.334  -3.537  21.828  0.00  0.00    +0.002 A 
ATOM      6  C   UNL     1       7.329  -2.671  22.299  0.00  0.00    +0.030 A 
ENDROOT
BRANCH   2   7
ATOM      7  N   UNL     1       8.959  -4.856  24.859  0.00  0.00    +0.082 N 
ATOM      8  O   UNL     1       8.407  -5.383  25.836  0.00  0.00    +0.042 OA
ATOM      9  O   UNL     1      10.185  -4.742  24.708  0.00  0.00    -0.576 OA
ENDBRANCH   2   7
BRANCH   1  10
ATOM     10  N   UNL     1       9.242  -2.167  23.762  0.00  0.00    -0.339 N 
ATOM     11  H   UNL     1       9.695  -2.532  24.606  0.00  0.00    +0.146 HD
BRANCH  10  12
ATOM     12  C   UNL     1      10.216  -1.605  22.817  0.00  0.00    +0.103 C 
BRANCH  12  13
ATOM     13  C   UNL     1      10.260  -0.079  22.904  0.00  0.00    +0.033 C 
BRANCH  13  14
ATOM     14  C   UNL     1       9.536   0.573  21.722  0.00  0.00    +0.079 C 
BRANCH  14  15
ATOM     15  N   UNL     1       9.873   1.986  21.578  0.00  0.00    -0.330 NA
ATOM     16  H   UNL     1      10.845   2.081  21.282  0.00  0.00    +0.118 HD
ATOM     17  H   UNL     1       9.309   2.400  20.835  0.00  0.00    +0.118 HD
ENDBRANCH  14  15
ENDBRANCH  13  14
ENDBRANCH  12  13
ENDBRANCH  10  12
ENDBRANCH   1  10
TORSDOF 6
ENDMDL
MODEL 3
REMARK VINA RESULT:      -4.5      2.987      3.597
REMARK  Name = 
REMARK  6 active torsions:
REMARK  status: ('A' for Active; 'I' for Inactive)
REMARK    1  A    between atoms: N_1  and  C_2
REMARK    2  A    between atoms: C_2  and  C_3
REMARK    3  A    between atoms: C_3  and  C_4
REMARK    4  A    between atoms: C_4  and  N_5
REMARK    5  A    between atoms: N_5  and  C_6
REMARK    6  A    between atoms: C_11  and  N_12
REMARK                            x       y       z     vdW  Elec       q    Type
REMARK                         _______ _______ _______ _____ _____    ______ ____
ROOT
ATOM      1  C   UNL     1       8.628  -3.523  24.728  0.00  0.00    +0.105 A 
ATOM      2  C   UNL     1       7.643  -4.238  24.014  0.00  0.00    +0.294 A 
ATOM      3  C   UNL     1       6.773  -5.157  24.634  0.00  0.00    +0.086 A 
ATOM      4  C   UNL     1       6.902  -5.418  25.992  0.00  0.00    +0.007 A 
ATOM      5  C   UNL     1       7.907  -4.787  26.714  0.00  0.00    +0.002 A 
ATOM      6  C   UNL     1       8.761  -3.872  26.089  0.00  0.00    +0.030 A 
ENDROOT
BRANCH   2   7
ATOM      7  N   UNL     1       7.476  -4.044  22.582  0.00  0.00    +0.082 N 
ATOM      8  O   UNL     1       7.351  -5.057  21.878  0.00  0.00    +0.042 OA
ATOM      9  O   UNL     1       7.437  -2.876  22.163  0.00  0.00    -0.576 OA
ENDBRANCH   2   7
BRANCH   1  10
ATOM     10  N   UNL     1       9.533  -2.641  24.103  0.00  0.00    -0.339 N 
ATOM     11  H   UNL     1       9.528  -2.758  23.084  0.00  0.00    +0.146 HD
BRANCH  10  12
ATOM     12  C   UNL     1       9.490  -1.225  24.492  0.00  0.00    +0.103 C 
BRANCH  12  13
ATOM     13  C   UNL     1      10.399  -0.376  23.603  0.00  0.00    +0.033 C 
BRANCH  13  14
ATOM     14  C   UNL     1       9.837  -0.248  22.183  0.00  0.00    +0.079 C 
BRANCH  14  15
ATOM     15  N   UNL     1       9.992  -1.478  21.414  0.00  0.00    -0.330 NA
ATOM     16  H   UNL     1       9.212  -1.580  20.763  0.00  0.00    +0.118 HD
ATOM     17  H   UNL     1      10.833  -1.420  20.839  0.00  0.00    +0.118 HD
ENDBRANCH  14  15
ENDBRANCH  13  14
ENDBRANCH  12  13
ENDBRANCH  10  12
ENDBRANCH   1  10
TORSDOF 6
ENDMDL
MODEL 4
REMARK VINA RESULT:      -4.4      2.533      5.062
REMARK  Name = 
REMARK  6 active torsions:
REMARK  status: ('A' for Active; 'I' for Inactive)
REMARK    1  A    between atoms: N_1  and  C_2
REMARK    2  A    between atoms: C_2  and  C_3
REMARK    3  A    between atoms: C_3  and  C_4
REMARK    4  A    between atoms: C_4  and  N_5
REMARK    5  A    between atoms: N_5  and  C_6
REMARK    6  A    between atoms: C_11  and  N_12
REMARK                            x       y       z     vdW  Elec       q    Type
REMARK                         _______ _______ _______ _____ _____    ______ ____
ROOT
ATOM      1  C   UNL     1       8.877  -1.249  22.411  0.00  0.00    +0.105 A 
ATOM      2  C   UNL     1       9.546  -1.229  23.653  0.00  0.00    +0.294 A 
ATOM      3  C   UNL     1      10.316  -0.130  24.083  0.00  0.00    +0.086 A 
ATOM      4  C   UNL     1      10.474   0.969  23.248  0.00  0.00    +0.007 A 
ATOM      5  C   UNL     1       9.890   0.955  21.988  0.00  0.00    +0.002 A 
ATOM      6  C   UNL     1       9.121  -0.139  21.574  0.00  0.00    +0.030 A 
ENDROOT
BRANCH   2   7
ATOM      7  N   UNL     1       9.456  -2.361  24.563  0.00  0.00    +0.082 N 
ATOM      8  O   UNL     1       8.827  -2.197  25.619  0.00  0.00    +0.042 OA
ATOM      9  O   UNL     1       9.988  -3.424  24.208  0.00  0.00    -0.576 OA
ENDBRANCH   2   7
BRANCH   1  10
ATOM     10  N   UNL     1       8.147  -2.366  21.956  0.00  0.00    -0.339 N 
ATOM     11  H   UNL     1       8.673  -3.237  22.087  0.00  0.00    +0.146 HD
BRANCH  10  12
ATOM     12  C   UNL     1       6.751  -2.498  22.394  0.00  0.00    +0.103 C 
BRANCH  12  13
ATOM     13  C   UNL     1       6.130  -3.800  21.886  0.00  0.00    +0.033 C 
BRANCH  13  14
ATOM     14  C   UNL     1       7.106  -4.975  22.008  0.00  0.00    +0.079 C 
BRANCH  14  15
ATOM     15  N   UNL     1       7.619  -5.129  23.365  0.00  0.00    -0.330 NA
ATOM     16  H   UNL     1       6.862  -4.997  24.038  0.00  0.00    +0.118 HD
ATOM     17  H   UNL     1       7.953  -6.083  23.500  0.00  0.00    +0.118 HD
ENDBRANCH  14  15
ENDBRANCH  13  14
ENDBRANCH  12  13
ENDBRANCH  10  12
ENDBRANCH   1  10
TORSDOF 6
ENDMDL
MODEL 5
REMARK VINA RESULT:      -4.4      1.800      1.994
REMARK  Name = 
REMARK  6 active torsions:
REMARK  status: ('A' for Active; 'I' for Inactive)
REMARK    1  A    between atoms: N_1  and  C_2
REMARK    2  A    between atoms: C_2  and  C_3
REMARK    3  A    between atoms: C_3  and  C_4
REMARK    4  A    between atoms: C_4  and  N_5
REMARK    5  A    between atoms: N_5  and  C_6
REMARK    6  A    between atoms: C_11  and  N_12
REMARK                            x       y       z     vdW  Elec       q    Type
REMARK                         _______ _______ _______ _____ _____    ______ ____
ROOT
ATOM      1  C   UNL     1       9.225  -0.524  24.924  0.00  0.00    +0.105 A 
ATOM      2  C   UNL     1       9.231  -1.537  23.942  0.00  0.00    +0.294 A 
ATOM      3  C   UNL     1       8.764  -2.842  24.194  0.00  0.00    +0.086 A 
ATOM      4  C   UNL     1       8.317  -3.179  25.466  0.00  0.00    +0.007 A 
ATOM      5  C   UNL     1       8.362  -2.229  26.477  0.00  0.00    +0.002 A 
ATOM      6  C   UNL     1       8.823  -0.933  26.213  0.00  0.00    +0.030 A 
ENDROOT
BRANCH   2   7
ATOM      7  N   UNL     1       9.721  -1.266  22.599  0.00  0.00    +0.082 N 
ATOM      8  O   UNL     1       9.056  -0.492  21.894  0.00  0.00    +0.042 OA
ATOM      9  O   UNL     1      10.787  -1.801  22.259  0.00  0.00    -0.576 OA
ENDBRANCH   2   7
BRANCH   1  10
ATOM     10  N   UNL     1       9.739   0.769  24.691  0.00  0.00    -0.339 N 
ATOM     11  H   UNL     1      10.323   0.793  23.849  0.00  0.00    +0.146 HD
BRANCH  10  12
ATOM     12  C   UNL     1       8.801   1.898  24.739  0.00  0.00    +0.103 C 
BRANCH  12  13
ATOM     13  C   UNL     1       9.350   3.110  23.986  0.00  0.00    +0.033 C 
BRANCH  13  14
ATOM     14  C   UNL     1      10.549   2.732  23.110  0.00  0.00    +0.079 C 
BRANCH  14  15
ATOM     15  N   UNL     1      10.141   2.225  21.803  0.00  0.00    -0.330 NA
ATOM     16  H   UNL     1       9.133   2.064  21.794  0.00  0.00    +0.118 HD
ATOM     17  H   UNL     1      10.320   2.931  21.089  0.00  0.00    +0.118 HD
ENDBRANCH  14  15
ENDBRANCH  13  14
ENDBRANCH  12  13
ENDBRANCH  10  12
ENDBRANCH   1  10
TORSDOF 6
ENDMDL
MODEL 6
REMARK VINA RESULT:      -4.4      2.225      4.304
REMARK  Name = 
REMARK  6 active torsions:
REMARK  status: ('A' for Active; 'I' for Inactive)
REMARK    1  A    between atoms: N_1  and  C_2
REMARK    2  A    between atoms: C_2  and  C_3
REMARK    3  A    between atoms: C_3  and  C_4
REMARK    4  A    between atoms: C_4  and  N_5
REMARK    5  A    between atoms: N_5  and  C_6
REMARK    6  A    between atoms: C_11  and  N_12
REMARK                            x       y       z     vdW  Elec       q    Type
REMARK                         _______ _______ _______ _____ _____    ______ ____
ROOT
ATOM      1  C   UNL     1       9.884   0.210  24.188  0.00  0.00    +0.105 A 
ATOM      2  C   UNL     1       9.824  -0.122  22.818  0.00  0.00    +0.294 A 
ATOM      3  C   UNL     1       9.798   0.853  21.801  0.00  0.00    +0.086 A 
ATOM      4  C   UNL     1       9.784   2.200  22.139  0.00  0.00    +0.007 A 
ATOM      5  C   UNL     1       9.769   2.566  23.479  0.00  0.00    +0.002 A 
ATOM      6  C   UNL     1       9.802   1.588  24.481  0.00  0.00    +0.030 A 
ENDROOT
BRANCH   2   7
ATOM      7  N   UNL     1       9.797  -1.513  22.391  0.00  0.00    +0.082 N 
ATOM      8  O   UNL     1       8.736  -1.945  21.918  0.00  0.00    +0.042 OA
ATOM      9  O   UNL     1      10.847  -2.165  22.501  0.00  0.00    -0.576 OA
ENDBRANCH   2   7
BRANCH   1  10
ATOM     10  N   UNL     1       9.859  -0.761  25.210  0.00  0.00    -0.339 N 
ATOM     11  H   UNL     1      10.636  -0.634  25.867  0.00  0.00    +0.146 HD
BRANCH  10  12
ATOM     12  C   UNL     1       8.586  -0.993  25.905  0.00  0.00    +0.103 C 
BRANCH  12  13
ATOM     13  C   UNL     1       7.881  -2.240  25.372  0.00  0.00    +0.033 C 
BRANCH  13  14
ATOM     14  C   UNL     1       8.701  -3.507  25.636  0.00  0.00    +0.079 C 
BRANCH  14  15
ATOM     15  N   UNL     1       9.489  -3.907  24.475  0.00  0.00    -0.330 NA
ATOM     16  H   UNL     1      10.346  -4.370  24.781  0.00  0.00    +0.118 HD
ATOM     17  H   UNL     1       8.974  -4.600  23.931  0.00  0.00    +0.118 HD
ENDBRANCH  14  15
ENDBRANCH  13  14
ENDBRANCH  12  13
ENDBRANCH  10  12
ENDBRANCH   1  10
TORSDOF 6
ENDMDL
MODEL 7
REMARK VINA RESULT:      -4.4      3.191      3.939
REMARK  Name = 
REMARK  6 active torsions:
REMARK  status: ('A' for Active; 'I' for Inactive)
REMARK    1  A    between atoms: N_1  and  C_2
REMARK    2  A    between atoms: C_2  and  C_3
REMARK    3  A    between atoms: C_3  and  C_4
REMARK    4  A    between atoms: C_4  and  N_5
REMARK    5  A    between atoms: N_5  and  C_6
REMARK    6  A    between atoms: C_11  and  N_12
REMARK                            x       y       z     vdW  Elec       q    Type
REMARK                         _______ _______ _______ _____ _____    ______ ____
ROOT
ATOM      1  C   UNL     1       9.354   1.026  22.086  0.00  0.00    +0.105 A 
ATOM      2  C   UNL     1       9.728   0.945  23.444  0.00  0.00    +0.294 A 
ATOM      3  C   UNL     1      10.219  -0.240  24.027  0.00  0.00    +0.086 A 
ATOM      4  C   UNL     1      10.302  -1.399  23.265  0.00  0.00    +0.007 A 
ATOM      5  C   UNL     1       9.876  -1.377  21.943  0.00  0.00    +0.002 A 
ATOM      6  C   UNL     1       9.396  -0.191  21.373  0.00  0.00    +0.030 A 
ENDROOT
BRANCH   2   7
ATOM      7  N   UNL     1       9.632   2.109  24.312  0.00  0.00    +0.082 N 
ATOM      8  O   UNL     1      10.366   3.074  24.056  0.00  0.00    +0.042 OA
ATOM      9  O   UNL     1       8.798   2.070  25.231  0.00  0.00    -0.576 OA
ENDBRANCH   2   7
BRANCH   1  10
ATOM     10  N   UNL     1       8.816   2.196  21.512  0.00  0.00    -0.339 N 
ATOM     11  H   UNL     1       9.236   2.393  20.598  0.00  0.00    +0.146 HD
BRANCH  10  12
ATOM     12  C   UNL     1       7.353   2.336  21.483  0.00  0.00    +0.103 C 
BRANCH  12  13
ATOM     13  C   UNL     1       6.869   3.335  22.533  0.00  0.00    +0.033 C 
BRANCH  13  14
ATOM     14  C   UNL     1       7.300   4.765  22.190  0.00  0.00    +0.079 C 
BRANCH  14  15
ATOM     15  N   UNL     1       8.552   5.137  22.841  0.00  0.00    -0.330 NA
ATOM     16  H   UNL     1       8.385   5.894  23.505  0.00  0.00    +0.118 HD
ATOM     17  H   UNL     1       8.901   4.352  23.390  0.00  0.00    +0.118 HD
ENDBRANCH  14  15
ENDBRANCH  13  14
ENDBRANCH  12  13
ENDBRANCH  10  12
ENDBRANCH   1  10
TORSDOF 6
ENDMDL
MODEL 8
REMARK VINA RESULT:      -4.4      3.078      3.966
REMARK  Name = 
REMARK  6 active torsions:
REMARK  status: ('A' for Active; 'I' for Inactive)
REMARK    1  A    between atoms: N_1  and  C_2
REMARK    2  A    between atoms: C_2  and  C_3
REMARK    3  A    between atoms: C_3  and  C_4
REMARK    4  A    between atoms: C_4  and  N_5
REMARK    5  A    between atoms: N_5  and  C_6
REMARK    6  A    between atoms: C_11  and  N_12
REMARK                            x       y       z     vdW  Elec       q    Type
REMARK                         _______ _______ _______ _____ _____    ______ ____
ROOT
ATOM      1  C   UNL     1       7.099  -3.544  23.155  0.00  0.00    +0.105 A 
ATOM      2  C   UNL     1       7.553  -4.858  23.398  0.00  0.00    +0.294 A 
ATOM      3  C   UNL     1       7.330  -5.918  22.497  0.00  0.00    +0.086 A 
ATOM      4  C   UNL     1       6.597  -5.693  21.338  0.00  0.00    +0.007 A 
ATOM      5  C   UNL     1       6.073  -4.430  21.099  0.00  0.00    +0.002 A 
ATOM      6  C   UNL     1       6.306  -3.383  21.999  0.00  0.00    +0.030 A 
ENDROOT
BRANCH   2   7
ATOM      7  N   UNL     1       8.295  -5.175  24.610  0.00  0.00    +0.082 N 
ATOM      8  O   UNL     1       9.501  -5.435  24.489  0.00  0.00    +0.042 OA
ATOM      9  O   UNL     1       7.679  -5.133  25.686  0.00  0.00    -0.576 OA
ENDBRANCH   2   7
BRANCH   1  10
ATOM     10  N   UNL     1       7.277  -2.493  24.078  0.00  0.00    -0.339 N 
ATOM     11  H   UNL     1       7.452  -2.849  25.023  0.00  0.00    +0.146 HD
BRANCH  10  12
ATOM     12  C   UNL     1       8.207  -1.414  23.717  0.00  0.00    +0.103 C 
BRANCH  12  13
ATOM     13  C   UNL     1       9.661  -1.844  23.915  0.00  0.00    +0.033 C 
BRANCH  13  14
ATOM     14  C   UNL     1      10.509  -1.547  22.674  0.00  0.00    +0.079 C 
BRANCH  14  15
ATOM     15  N   UNL     1       9.715  -1.543  21.450  0.00  0.00    -0.330 NA
ATOM     16  H   UNL     1       9.627  -2.495  21.092  0.00  0.00    +0.118 HD
ATOM     17  H   UNL     1       8.766  -1.230  21.656  0.00  0.00    +0.118 HD
ENDBRANCH  14  15
ENDBRANCH  13  14
ENDBRANCH  12  13
ENDBRANCH  10  12
ENDBRANCH   1  10
TORSDOF 6
ENDMDL
MODEL 9
REMARK VINA RESULT:      -4.4      2.792      3.564
REMARK  Name = 
REMARK  6 active torsions:
REMARK  status: ('A' for Active; 'I' for Inactive)
REMARK    1  A    between atoms: N_1  and  C_2
REMARK    2  A    between atoms: C_2  and  C_3
REMARK    3  A    between atoms: C_3  and  C_4
REMARK    4  A    between atoms: C_4  and  N_5
REMARK    5  A    between atoms: N_5  and  C_6
REMARK    6  A    between atoms: C_11  and  N_12
REMARK                            x       y       z     vdW  Elec       q    Type
REMARK                         _______ _______ _______ _____ _____    ______ ____
ROOT
ATOM      1  C   UNL     1       8.294  -3.092  23.346  0.00  0.00    +0.105 A 
ATOM      2  C   UNL     1       8.106  -4.403  23.835  0.00  0.00    +0.294 A 
ATOM      3  C   UNL     1       7.118  -5.269  23.327  0.00  0.00    +0.086 A 
ATOM      4  C   UNL     1       6.254  -4.820  22.335  0.00  0.00    +0.007 A 
ATOM      5  C   UNL     1       6.362  -3.513  21.878  0.00  0.00    +0.002 A 
ATOM      6  C   UNL     1       7.351  -2.663  22.387  0.00  0.00    +0.030 A 
ENDROOT
BRANCH   2   7
ATOM      7  N   UNL     1       8.949  -4.926  24.899  0.00  0.00    +0.082 N 
ATOM      8  O   UNL     1       8.386  -5.492  25.848  0.00  0.00    +0.042 OA
ATOM      9  O   UNL     1      10.177  -4.799  24.771  0.00  0.00    -0.576 OA
ENDBRANCH   2   7
BRANCH   1  10
ATOM     10  N   UNL     1       9.248  -2.206  23.887  0.00  0.00    -0.339 N 
ATOM     11  H   UNL     1       9.659  -2.578  24.749  0.00  0.00    +0.146 HD
BRANCH  10  12
ATOM     12  C   UNL     1      10.270  -1.663  22.982  0.00  0.00    +0.103 C 
BRANCH  12  13
ATOM     13  C   UNL     1      10.137  -0.147  22.838  0.00  0.00    +0.033 C 
BRANCH  13  14
ATOM     14  C   UNL     1       9.550   0.490  24.102  0.00  0.00    +0.079 C 
BRANCH  14  15
ATOM     15  N   UNL     1      10.474   0.429  25.231  0.00  0.00    -0.330 NA
ATOM     16  H   UNL     1      11.208  -0.255  25.041  0.00  0.00    +0.118 HD
ATOM     17  H   UNL     1      10.946   1.327  25.337  0.00  0.00    +0.118 HD
ENDBRANCH  14  15
ENDBRANCH  13  14
ENDBRANCH  12  13
ENDBRANCH  10  12
ENDBRANCH   1  10
TORSDOF 6
ENDMDL
