MODEL 1
REMARK VINA RESULT:      -4.8      0.000      0.000
REMARK  Name = 
REMARK  9 active torsions:
REMARK  status: ('A' for Active; 'I' for Inactive)
REMARK    1  A    between atoms: O_1  and  C_2
REMARK    2  A    between atoms: C_2  and  C_4
REMARK    3  A    between atoms: C_4  and  C_5
REMARK    4  A    between atoms: C_5  and  C_7
REMARK    5  A    between atoms: C_5  and  C_14
REMARK    6  A    between atoms: C_7  and  O_9
REMARK    7  A    between atoms: C_7  and  C_11
REMARK    8  A    between atoms: C_11  and  O_12
REMARK    9  A    between atoms: C_14  and  O_15
REMARK                            x       y       z     vdW  Elec       q    Type
REMARK                         _______ _______ _______ _____ _____    ______ ____
ROOT
ATOM      1  C   UNL     1       7.998  -3.412  23.960  0.00  0.00    +0.000 C 
ENDROOT
BRANCH   1   2
ATOM      2  C   UNL     1       9.227  -2.538  24.143  0.00  0.00    +0.000 C 
ATOM      3  O   UNL     1       9.247  -1.688  25.018  0.00  0.00    +0.000 OA
BRANCH   2   4
ATOM      4  O   UNL     1      10.303  -2.682  23.341  0.00  0.00    +0.000 OA
ATOM      5  H   UNL     1      10.909  -1.951  23.159  0.00  0.00    +0.000 HD
ENDBRANCH   2   4
ENDBRANCH   1   2
BRANCH   1   6
ATOM      6  C   UNL     1       7.570  -3.429  22.471  0.00  0.00    +0.000 C 
BRANCH   6   7
ATOM      7  C   UNL     1       6.069  -3.452  22.303  0.00  0.00    +0.000 C 
ATOM      8  O   UNL     1       5.588  -3.578  21.189  0.00  0.00    +0.000 OA
BRANCH   7   9
ATOM      9  O   UNL     1       5.247  -3.349  23.370  0.00  0.00    +0.000 OA
ATOM     10  H   UNL     1       4.350  -2.992  23.293  0.00  0.00    +0.000 HD
ENDBRANCH   7   9
ENDBRANCH   6   7
ENDBRANCH   1   6
BRANCH   1  11
ATOM     11  C   UNL     1       8.305  -4.841  24.483  0.00  0.00    +0.000 C 
BRANCH  11  12
ATOM     12  C   UNL     1       7.532  -5.197  25.730  0.00  0.00    +0.000 C 
ATOM     13  O   UNL     1       6.373  -4.835  25.858  0.00  0.00    +0.000 OA
BRANCH  12  14
ATOM     14  O   UNL     1       8.110  -5.907  26.722  0.00  0.00    +0.000 OA
ATOM     15  H   UNL     1       7.652  -6.094  27.554  0.00  0.00    +0.000 HD
ENDBRANCH  12  14
ENDBRANCH  11  12
BRANCH  11  16
ATOM     16  O   UNL     1       9.677  -4.985  24.732  0.00  0.00    +0.000 OA
ATOM     17 CA   UNL     1      10.049  -7.059  25.636  0.00  0.00    +0.000 Ca
ENDBRANCH  11  16
ENDBRANCH   1  11
TORSDOF 9
ENDMDL
MODEL 2
REMARK VINA RESULT:      -4.8      4.378      5.992
REMARK  Name = 
REMARK  9 active torsions:
REMARK  status: ('A' for Active; 'I' for Inactive)
REMARK    1  A    between atoms: O_1  and  C_2
REMARK    2  A    between atoms: C_2  and  C_4
REMARK    3  A    between atoms: C_4  and  C_5
REMARK    4  A    between atoms: C_5  and  C_7
REMARK    5  A    between atoms: C_5  and  C_14
REMARK    6  A    between atoms: C_7  and  O_9
REMARK    7  A    between atoms: C_7  and  C_11
REMARK    8  A    between atoms: C_11  and  O_12
REMARK    9  A    between atoms: C_14  and  O_15
REMARK                            x       y       z     vdW  Elec       q    Type
REMARK                         _______ _______ _______ _____ _____    ______ ____
ROOT
ATOM      1  C   UNL     1      10.186   0.474  23.299  0.00  0.00    +0.000 C 
ENDROOT
BRANCH   1   2
ATOM      2  C   UNL     1      10.147   1.944  22.919  0.00  0.00    +0.000 C 
ATOM      3  O   UNL     1      10.024   2.796  23.783  0.00  0.00    +0.000 OA
BRANCH   2   4
ATOM      4  O   UNL     1      10.241   2.325  21.627  0.00  0.00    +0.000 OA
ATOM      5  H   UNL     1      10.615   1.748  20.948  0.00  0.00    +0.000 HD
ENDBRANCH   2   4
ENDBRANCH   1   2
BRANCH   1   6
ATOM      6  C   UNL     1      10.514   0.320  24.805  0.00  0.00    +0.000 C 
BRANCH   6   7
ATOM      7  C   UNL     1       9.277   0.117  25.648  0.00  0.00    +0.000 C 
ATOM      8  O   UNL     1       9.029  -0.988  26.101  0.00  0.00    +0.000 OA
BRANCH   7   9
ATOM      9  O   UNL     1       8.445   1.145  25.923  0.00  0.00    +0.000 OA
ATOM     10  H   UNL     1       7.490   1.021  26.013  0.00  0.00    +0.000 HD
ENDBRANCH   7   9
ENDBRANCH   6   7
ENDBRANCH   1   6
BRANCH   1  11
ATOM     11  C   UNL     1       8.827  -0.184  22.940  0.00  0.00    +0.000 C 
BRANCH  11  12
ATOM     12  C   UNL     1       8.973  -1.423  22.089  0.00  0.00    +0.000 C 
ATOM     13  O   UNL     1       8.076  -2.252  22.053  0.00  0.00    +0.000 OA
BRANCH  12  14
ATOM     14  O   UNL     1      10.093  -1.638  21.366  0.00  0.00    +0.000 OA
ATOM     15  H   UNL     1      10.969  -1.666  21.775  0.00  0.00    +0.000 HD
ENDBRANCH  12  14
ENDBRANCH  11  12
BRANCH  11  16
ATOM     16  O   UNL     1       8.000   0.734  22.280  0.00  0.00    +0.000 OA
ATOM     17 CA   UNL     1       8.795   1.050  20.153  0.00  0.00    +0.000 Ca
ENDBRANCH  11  16
ENDBRANCH   1  11
TORSDOF 9
ENDMDL
MODEL 3
REMARK VINA RESULT:      -4.7      2.017      3.541
REMARK  Name = 
REMARK  9 active torsions:
REMARK  status: ('A' for Active; 'I' for Inactive)
REMARK    1  A    between atoms: O_1  and  C_2
REMARK    2  A    between atoms: C_2  and  C_4
REMARK    3  A    between atoms: C_4  and  C_5
REMARK    4  A    between atoms: C_5  and  C_7
REMARK    5  A    between atoms: C_5  and  C_14
REMARK    6  A    between atoms: C_7  and  O_9
REMARK    7  A    between atoms: C_7  and  C_11
REMARK    8  A    between atoms: C_11  and  O_12
REMARK    9  A    between atoms: C_14  and  O_15
REMARK                            x       y       z     vdW  Elec       q    Type
REMARK                         _______ _______ _______ _____ _____    ______ ____
ROOT
ATOM      1  C   UNL     1       6.894  -5.330  24.689  0.00  0.00    +0.000 C 
ENDROOT
BRANCH   1   2
ATOM      2  C   UNL     1       5.751  -5.671  25.629  0.00  0.00    +0.000 C 
ATOM      3  O   UNL     1       4.646  -5.187  25.450  0.00  0.00    +0.000 OA
BRANCH   2   4
ATOM      4  O   UNL     1       5.942  -6.506  26.673  0.00  0.00    +0.000 OA
ATOM      5  H   UNL     1       6.803  -6.600  27.104  0.00  0.00    +0.000 HD
ENDBRANCH   2   4
ENDBRANCH   1   2
BRANCH   1   6
ATOM      6  C   UNL     1       6.346  -4.677  23.396  0.00  0.00    +0.000 C 
BRANCH   6   7
ATOM      7  C   UNL     1       5.928  -5.700  22.365  0.00  0.00    +0.000 C 
ATOM      8  O   UNL     1       6.719  -6.050  21.506  0.00  0.00    +0.000 OA
BRANCH   7   9
ATOM      9  O   UNL     1       4.693  -6.246  22.388  0.00  0.00    +0.000 OA
ATOM     10  H   UNL     1       4.363  -6.734  23.156  0.00  0.00    +0.000 HD
ENDBRANCH   7   9
ENDBRANCH   6   7
ENDBRANCH   1   6
BRANCH   1  11
ATOM     11  C   UNL     1       7.897  -4.398  25.420  0.00  0.00    +0.000 C 
BRANCH  11  12
ATOM     12  C   UNL     1       9.341  -4.759  25.164  0.00  0.00    +0.000 C 
ATOM     13  O   UNL     1      10.036  -4.046  24.458  0.00  0.00    +0.000 OA
BRANCH  12  14
ATOM     14  O   UNL     1       9.879  -5.875  25.702  0.00  0.00    +0.000 OA
ATOM     15  H   UNL     1       9.841  -6.057  26.651  0.00  0.00    +0.000 HD
ENDBRANCH  12  14
ENDBRANCH  11  12
BRANCH  11  16
ATOM     16  O   UNL     1       7.655  -4.409  26.800  0.00  0.00    +0.000 OA
ATOM     17 CA   UNL     1       8.256  -6.456  27.639  0.00  0.00    +0.000 Ca
ENDBRANCH  11  16
ENDBRANCH   1  11
TORSDOF 9
ENDMDL
MODEL 4
REMARK VINA RESULT:      -4.7      1.710      2.077
REMARK  Name = 
REMARK  9 active torsions:
REMARK  status: ('A' for Active; 'I' for Inactive)
REMARK    1  A    between atoms: O_1  and  C_2
REMARK    2  A    between atoms: C_2  and  C_4
REMARK    3  A    between atoms: C_4  and  C_5
REMARK    4  A    between atoms: C_5  and  C_7
REMARK    5  A    between atoms: C_5  and  C_14
REMARK    6  A    between atoms: C_7  and  O_9
REMARK    7  A    between atoms: C_7  and  C_11
REMARK    8  A    between atoms: C_11  and  O_12
REMARK    9  A    between atoms: C_14  and  O_15
REMARK                            x       y       z     vdW  Elec       q    Type
REMARK                         _______ _______ _______ _____ _____    ______ ____
ROOT
ATOM      1  C   UNL     1       7.710  -3.480  24.578  0.00  0.00    +0.000 C 
ENDROOT
BRANCH   1   2
ATOM      2  C   UNL     1       8.850  -3.037  23.678  0.00  0.00    +0.000 C 
ATOM      3  O   UNL     1       8.613  -2.557  22.581  0.00  0.00    +0.000 OA
BRANCH   2   4
ATOM      4  O   UNL     1      10.134  -3.173  24.072  0.00  0.00    +0.000 OA
ATOM      5  H   UNL     1      10.851  -2.664  23.668  0.00  0.00    +0.000 HD
ENDBRANCH   2   4
ENDBRANCH   1   2
BRANCH   1   6
ATOM      6  C   UNL     1       6.353  -3.286  23.858  0.00  0.00    +0.000 C 
BRANCH   6   7
ATOM      7  C   UNL     1       5.744  -1.930  24.130  0.00  0.00    +0.000 C 
ATOM      8  O   UNL     1       4.889  -1.813  24.991  0.00  0.00    +0.000 OA
BRANCH   7   9
ATOM      9  O   UNL     1       6.143  -0.837  23.442  0.00  0.00    +0.000 OA
ATOM     10  H   UNL     1       7.070  -0.561  23.413  0.00  0.00    +0.000 HD
ENDBRANCH   7   9
ENDBRANCH   6   7
ENDBRANCH   1   6
BRANCH   1  11
ATOM     11  C   UNL     1       7.932  -4.959  24.993  0.00  0.00    +0.000 C 
BRANCH  11  12
ATOM     12  C   UNL     1       8.368  -5.115  26.431  0.00  0.00    +0.000 C 
ATOM     13  O   UNL     1       9.288  -4.442  26.869  0.00  0.00    +0.000 OA
BRANCH  12  14
ATOM     14  O   UNL     1       7.757  -6.002  27.245  0.00  0.00    +0.000 OA
ATOM     15  H   UNL     1       8.254  -6.557  27.863  0.00  0.00    +0.000 HD
ENDBRANCH  12  14
ENDBRANCH  11  12
BRANCH  11  16
ATOM     16  O   UNL     1       8.877  -5.565  24.155  0.00  0.00    +0.000 OA
ATOM     17 CA   UNL     1      10.953  -5.343  25.104  0.00  0.00    +0.000 Ca
ENDBRANCH  11  16
ENDBRANCH   1  11
TORSDOF 9
ENDMDL
MODEL 5
REMARK VINA RESULT:      -4.7      2.214      2.435
REMARK  Name = 
REMARK  9 active torsions:
REMARK  status: ('A' for Active; 'I' for Inactive)
REMARK    1  A    between atoms: O_1  and  C_2
REMARK    2  A    between atoms: C_2  and  C_4
REMARK    3  A    between atoms: C_4  and  C_5
REMARK    4  A    between atoms: C_5  and  C_7
REMARK    5  A    between atoms: C_5  and  C_14
REMARK    6  A    between atoms: C_7  and  O_9
REMARK    7  A    between atoms: C_7  and  C_11
REMARK    8  A    between atoms: C_11  and  O_12
REMARK    9  A    between atoms: C_14  and  O_15
REMARK                            x       y       z     vdW  Elec       q    Type
REMARK                         _______ _______ _______ _____ _____    ______ ____
ROOT
ATOM      1  C   UNL     1       7.518  -4.718  23.770  0.00  0.00    +0.000 C 
ENDROOT
BRANCH   1   2
ATOM      2  C   UNL     1       7.644  -3.272  23.322  0.00  0.00    +0.000 C 
ATOM      3  O   UNL     1       7.889  -3.012  22.155  0.00  0.00    +0.000 OA
BRANCH   2   4
ATOM      4  O   UNL     1       7.493  -2.260  24.203  0.00  0.00    +0.000 OA
ATOM      5  H   UNL     1       8.148  -2.076  24.890  0.00  0.00    +0.000 HD
ENDBRANCH   2   4
ENDBRANCH   1   2
BRANCH   1   6
ATOM      6  C   UNL     1       7.533  -5.661  22.543  0.00  0.00    +0.000 C 
BRANCH   6   7
ATOM      7  C   UNL     1       6.147  -5.932  22.006  0.00  0.00    +0.000 C 
ATOM      8  O   UNL     1       5.854  -5.572  20.878  0.00  0.00    +0.000 OA
BRANCH   7   9
ATOM      9  O   UNL     1       5.226  -6.582  22.751  0.00  0.00    +0.000 OA
ATOM     10  H   UNL     1       4.950  -7.487  22.549  0.00  0.00    +0.000 HD
ENDBRANCH   7   9
ENDBRANCH   6   7
ENDBRANCH   1   6
BRANCH   1  11
ATOM     11  C   UNL     1       8.667  -5.048  24.760  0.00  0.00    +0.000 C 
BRANCH  11  12
ATOM     12  C   UNL     1       8.258  -4.927  26.209  0.00  0.00    +0.000 C 
ATOM     13  O   UNL     1       8.091  -3.825  26.709  0.00  0.00    +0.000 OA
BRANCH  12  14
ATOM     14  O   UNL     1       8.082  -6.027  26.971  0.00  0.00    +0.000 OA
ATOM     15  H   UNL     1       8.795  -6.661  27.129  0.00  0.00    +0.000 HD
ENDBRANCH  12  14
ENDBRANCH  11  12
BRANCH  11  16
ATOM     16  O   UNL     1       9.770  -4.218  24.520  0.00  0.00    +0.000 OA
ATOM     17 CA   UNL     1       9.417  -2.202  25.555  0.00  0.00    +0.000 Ca
ENDBRANCH  11  16
ENDBRANCH   1  11
TORSDOF 9
ENDMDL
MODEL 6
REMARK VINA RESULT:      -4.7      2.661      4.410
REMARK  Name = 
REMARK  9 active torsions:
REMARK  status: ('A' for Active; 'I' for Inactive)
REMARK    1  A    between atoms: O_1  and  C_2
REMARK    2  A    between atoms: C_2  and  C_4
REMARK    3  A    between atoms: C_4  and  C_5
REMARK    4  A    between atoms: C_5  and  C_7
REMARK    5  A    between atoms: C_5  and  C_14
REMARK    6  A    between atoms: C_7  and  O_9
REMARK    7  A    between atoms: C_7  and  C_11
REMARK    8  A    between atoms: C_11  and  O_12
REMARK    9  A    between atoms: C_14  and  O_15
REMARK                            x       y       z     vdW  Elec       q    Type
REMARK                         _______ _______ _______ _____ _____    ______ ____
ROOT
ATOM      1  C   UNL     1       6.810  -5.198  23.638  0.00  0.00    +0.000 C 
ENDROOT
BRANCH   1   2
ATOM      2  C   UNL     1       6.739  -4.664  22.219  0.00  0.00    +0.000 C 
ATOM      3  O   UNL     1       7.093  -3.521  21.977  0.00  0.00    +0.000 OA
BRANCH   2   4
ATOM      4  O   UNL     1       6.281  -5.437  21.212  0.00  0.00    +0.000 OA
ATOM      5  H   UNL     1       6.467  -6.385  21.167  0.00  0.00    +0.000 HD
ENDBRANCH   2   4
ENDBRANCH   1   2
BRANCH   1   6
ATOM      6  C   UNL     1       7.775  -4.335  24.488  0.00  0.00    +0.000 C 
BRANCH   6   7
ATOM      7  C   UNL     1       8.723  -5.171  25.314  0.00  0.00    +0.000 C 
ATOM      8  O   UNL     1       9.906  -5.210  25.022  0.00  0.00    +0.000 OA
BRANCH   7   9
ATOM      9  O   UNL     1       8.284  -5.868  26.385  0.00  0.00    +0.000 OA
ATOM     10  H   UNL     1       7.347  -6.070  26.516  0.00  0.00    +0.000 HD
ENDBRANCH   7   9
ENDBRANCH   6   7
ENDBRANCH   1   6
BRANCH   1  11
ATOM     11  C   UNL     1       5.382  -5.227  24.246  0.00  0.00    +0.000 C 
BRANCH  11  12
ATOM     12  C   UNL     1       5.035  -6.549  24.889  0.00  0.00    +0.000 C 
ATOM     13  O   UNL     1       5.361  -6.774  26.044  0.00  0.00    +0.000 OA
BRANCH  12  14
ATOM     14  O   UNL     1       4.373  -7.501  24.197  0.00  0.00    +0.000 OA
ATOM     15  H   UNL     1       4.585  -7.707  23.276  0.00  0.00    +0.000 HD
ENDBRANCH  12  14
ENDBRANCH  11  12
BRANCH  11  16
ATOM     16  O   UNL     1       4.428  -4.927  23.265  0.00  0.00    +0.000 OA
ATOM     17 CA   UNL     1       4.279  -6.696  21.813  0.00  0.00    +0.000 Ca
ENDBRANCH  11  16
ENDBRANCH   1  11
TORSDOF 9
ENDMDL
MODEL 7
REMARK VINA RESULT:      -4.6      2.247      4.204
REMARK  Name = 
REMARK  9 active torsions:
REMARK  status: ('A' for Active; 'I' for Inactive)
REMARK    1  A    between atoms: O_1  and  C_2
REMARK    2  A    between atoms: C_2  and  C_4
REMARK    3  A    between atoms: C_4  and  C_5
REMARK    4  A    between atoms: C_5  and  C_7
REMARK    5  A    between atoms: C_5  and  C_14
REMARK    6  A    between atoms: C_7  and  O_9
REMARK    7  A    between atoms: C_7  and  C_11
REMARK    8  A    between atoms: C_11  and  O_12
REMARK    9  A    between atoms: C_14  and  O_15
REMARK                            x       y       z     vdW  Elec       q    Type
REMARK                         _______ _______ _______ _____ _____    ______ ____
ROOT
ATOM      1  C   UNL     1       8.198  -3.500  23.901  0.00  0.00    +0.000 C 
ENDROOT
BRANCH   1   2
ATOM      2  C   UNL     1       8.326  -4.843  24.599  0.00  0.00    +0.000 C 
ATOM      3  O   UNL     1       7.467  -5.208  25.386  0.00  0.00    +0.000 OA
BRANCH   2   4
ATOM      4  O   UNL     1       9.387  -5.644  24.366  0.00  0.00    +0.000 OA
ATOM      5  H   UNL     1       9.335  -6.605  24.460  0.00  0.00    +0.000 HD
ENDBRANCH   2   4
ENDBRANCH   1   2
BRANCH   1   6
ATOM      6  C   UNL     1       9.581  -2.809  23.814  0.00  0.00    +0.000 C 
BRANCH   6   7
ATOM      7  C   UNL     1       9.580  -1.633  22.865  0.00  0.00    +0.000 C 
ATOM      8  O   UNL     1       8.899  -0.653  23.117  0.00  0.00    +0.000 OA
BRANCH   7   9
ATOM      9  O   UNL     1      10.335  -1.642  21.745  0.00  0.00    +0.000 OA
ATOM     10  H   UNL     1      10.037  -2.069  20.930  0.00  0.00    +0.000 HD
ENDBRANCH   7   9
ENDBRANCH   6   7
ENDBRANCH   1   6
BRANCH   1  11
ATOM     11  C   UNL     1       7.575  -3.712  22.496  0.00  0.00    +0.000 C 
BRANCH  11  12
ATOM     12  C   UNL     1       6.247  -3.013  22.322  0.00  0.00    +0.000 C 
ATOM     13  O   UNL     1       5.324  -3.581  21.759  0.00  0.00    +0.000 OA
BRANCH  12  14
ATOM     14  O   UNL     1       6.064  -1.755  22.776  0.00  0.00    +0.000 OA
ATOM     15  H   UNL     1       6.202  -1.520  23.704  0.00  0.00    +0.000 HD
ENDBRANCH  12  14
ENDBRANCH  11  12
BRANCH  11  16
ATOM     16  O   UNL     1       7.415  -5.079  22.234  0.00  0.00    +0.000 OA
ATOM     17 CA   UNL     1       6.256  -5.324  20.271  0.00  0.00    +0.000 Ca
ENDBRANCH  11  16
ENDBRANCH   1  11
TORSDOF 9
ENDMDL
MODEL 8
REMARK VINA RESULT:      -4.6      4.492      6.145
REMARK  Name = 
REMARK  9 active torsions:
REMARK  status: ('A' for Active; 'I' for Inactive)
REMARK    1  A    between atoms: O_1  and  C_2
REMARK    2  A    between atoms: C_2  and  C_4
REMARK    3  A    between atoms: C_4  and  C_5
REMARK    4  A    between atoms: C_5  and  C_7
REMARK    5  A    between atoms: C_5  and  C_14
REMARK    6  A    between atoms: C_7  and  O_9
REMARK    7  A    between atoms: C_7  and  C_11
REMARK    8  A    between atoms: C_11  and  O_12
REMARK    9  A    between atoms: C_14  and  O_15
REMARK                            x       y       z     vdW  Elec       q    Type
REMARK                         _______ _______ _______ _____ _____    ______ ____
ROOT
ATOM      1  C   UNL     1       9.428   0.172  23.509  0.00  0.00    +0.000 C 
ENDROOT
BRANCH   1   2
ATOM      2  C   UNL     1       9.920   0.097  24.944  0.00  0.00    +0.000 C 
ATOM      3  O   UNL     1       9.243  -0.460  25.794  0.00  0.00    +0.000 OA
BRANCH   2   4
ATOM      4  O   UNL     1      11.101   0.645  25.299  0.00  0.00    +0.000 OA
ATOM      5  H   UNL     1      11.354   1.538  25.027  0.00  0.00    +0.000 HD
ENDBRANCH   2   4
ENDBRANCH   1   2
BRANCH   1   6
ATOM      6  C   UNL     1       8.289  -0.852  23.279  0.00  0.00    +0.000 C 
BRANCH   6   7
ATOM      7  C   UNL     1       8.653  -1.899  22.253  0.00  0.00    +0.000 C 
ATOM      8  O   UNL     1       8.022  -2.942  22.203  0.00  0.00    +0.000 OA
BRANCH   7   9
ATOM      9  O   UNL     1       9.661  -1.695  21.376  0.00  0.00    +0.000 OA
ATOM     10  H   UNL     1      10.497  -2.179  21.435  0.00  0.00    +0.000 HD
ENDBRANCH   7   9
ENDBRANCH   6   7
ENDBRANCH   1   6
BRANCH   1  11
ATOM     11  C   UNL     1       8.965   1.621  23.203  0.00  0.00    +0.000 C 
BRANCH  11  12
ATOM     12  C   UNL     1       8.233   1.747  21.887  0.00  0.00    +0.000 C 
ATOM     13  O   UNL     1       7.118   2.245  21.851  0.00  0.00    +0.000 OA
BRANCH  12  14
ATOM     14  O   UNL     1       8.792   1.304  20.741  0.00  0.00    +0.000 OA
ATOM     15  H   UNL     1       9.437   1.831  20.248  0.00  0.00    +0.000 HD
ENDBRANCH  12  14
ENDBRANCH  11  12
BRANCH  11  16
ATOM     16  O   UNL     1      10.060   2.495  23.207  0.00  0.00    +0.000 OA
ATOM     17 CA   UNL     1      10.852   2.696  21.064  0.00  0.00    +0.000 Ca
ENDBRANCH  11  16
ENDBRANCH   1  11
TORSDOF 9
ENDMDL
MODEL 9
REMARK VINA RESULT:      -4.6      1.704      3.529
REMARK  Name = 
REMARK  9 active torsions:
REMARK  status: ('A' for Active; 'I' for Inactive)
REMARK    1  A    between atoms: O_1  and  C_2
REMARK    2  A    between atoms: C_2  and  C_4
REMARK    3  A    between atoms: C_4  and  C_5
REMARK    4  A    between atoms: C_5  and  C_7
REMARK    5  A    between atoms: C_5  and  C_14
REMARK    6  A    between atoms: C_7  and  O_9
REMARK    7  A    between atoms: C_7  and  C_11
REMARK    8  A    between atoms: C_11  and  O_12
REMARK    9  A    between atoms: C_14  and  O_15
REMARK                            x       y       z     vdW  Elec       q    Type
REMARK                         _______ _______ _______ _____ _____    ______ ____
ROOT
ATOM      1  C   UNL     1       7.587  -4.368  23.000  0.00  0.00    +0.000 C 
ENDROOT
BRANCH   1   2
ATOM      2  C   UNL     1       6.557  -4.982  22.068  0.00  0.00    +0.000 C 
ATOM      3  O   UNL     1       5.715  -4.277  21.537  0.00  0.00    +0.000 OA
BRANCH   2   4
ATOM      4  O   UNL     1       6.554  -6.309  21.821  0.00  0.00    +0.000 OA
ATOM      5  H   UNL     1       7.365  -6.793  21.608  0.00  0.00    +0.000 HD
ENDBRANCH   2   4
ENDBRANCH   1   2
BRANCH   1   6
ATOM      6  C   UNL     1       7.631  -2.831  22.810  0.00  0.00    +0.000 C 
BRANCH   6   7
ATOM      7  C   UNL     1       9.041  -2.307  22.671  0.00  0.00    +0.000 C 
ATOM      8  O   UNL     1       9.299  -1.488  21.805  0.00  0.00    +0.000 OA
BRANCH   7   9
ATOM      9  O   UNL     1      10.023  -2.720  23.502  0.00  0.00    +0.000 OA
ATOM     10  H   UNL     1      10.233  -3.657  23.621  0.00  0.00    +0.000 HD
ENDBRANCH   7   9
ENDBRANCH   6   7
ENDBRANCH   1   6
BRANCH   1  11
ATOM     11  C   UNL     1       7.247  -4.753  24.464  0.00  0.00    +0.000 C 
BRANCH  11  12
ATOM     12  C   UNL     1       8.420  -5.341  25.212  0.00  0.00    +0.000 C 
ATOM     13  O   UNL     1       9.516  -5.411  24.678  0.00  0.00    +0.000 OA
BRANCH  12  14
ATOM     14  O   UNL     1       8.275  -5.803  26.473  0.00  0.00    +0.000 OA
ATOM     15  H   UNL     1       8.650  -6.649  26.755  0.00  0.00    +0.000 HD
ENDBRANCH  12  14
ENDBRANCH  11  12
BRANCH  11  16
ATOM     16  O   UNL     1       6.180  -5.660  24.494  0.00  0.00    +0.000 OA
ATOM     17 CA   UNL     1       6.270  -6.842  26.457  0.00  0.00    +0.000 Ca
ENDBRANCH  11  16
ENDBRANCH   1  11
TORSDOF 9
ENDMDL
