MODEL 1
REMARK VINA RESULT:      -7.3      0.000      0.000
REMARK  Name = 
REMARK  4 active torsions:
REMARK  status: ('A' for Active; 'I' for Inactive)
REMARK    1  A    between atoms: C_1  and  C_2
REMARK    2  A    between atoms: C_4  and  C_16
REMARK    3  A    between atoms: N_6  and  C_7
REMARK    4  A    between atoms: C_7  and  C_8
REMARK                            x       y       z     vdW  Elec       q    Type
REMARK                         _______ _______ _______ _____ _____    ______ ____
ROOT
ATOM      1  C   UNL     1       5.329  -3.411  22.320  0.00  0.00    +0.086 C 
ATOM      2  C   UNL     1       6.702  -2.959  22.657  0.00  0.00    +0.108 A 
ATOM      3  N   UNL     1       7.730  -3.797  23.038  0.00  0.00    -0.329 N 
ATOM      4  C   UNL     1       8.835  -3.009  23.243  0.00  0.00    +0.117 A 
ATOM      5  C   UNL     1       8.406  -1.712  23.097  0.00  0.00    +0.107 A 
ATOM      6  N   UNL     1       7.090  -1.697  22.696  0.00  0.00    -0.231 NA
ENDROOT
BRANCH   5   7
ATOM      7  C   UNL     1       9.191  -0.536  23.446  0.00  0.00    +0.096 A 
ATOM      8  C   UNL     1       9.865  -0.487  24.645  0.00  0.00    +0.050 A 
ATOM      9  C   UNL     1      10.671   0.608  24.823  0.00  0.00    +0.116 A 
ATOM     10  N   UNL     1      10.804   1.588  23.910  0.00  0.00    -0.223 NA
ATOM     11  C   UNL     1      10.112   1.445  22.777  0.00  0.00    +0.213 A 
ATOM     12  N   UNL     1      10.231   2.442  21.831  0.00  0.00    -0.327 N 
ATOM     13  H   UNL     1      10.525   3.298  22.280  0.00  0.00    +0.145 HD
ATOM     14  H   UNL     1       9.391   2.476  21.270  0.00  0.00    +0.145 HD
ATOM     15  N   UNL     1       9.296   0.431  22.502  0.00  0.00    -0.213 NA
ENDBRANCH   5   7
BRANCH   3  16
ATOM     16  C   UNL     1       7.624  -5.176  23.516  0.00  0.00    +0.161 C 
BRANCH  16  17
ATOM     17  C   UNL     1       7.041  -5.343  24.899  0.00  0.00    +0.009 A 
ATOM     18  C   UNL     1       7.832  -5.152  26.053  0.00  0.00    +0.047 A 
ATOM     19 CL   UNL     1       9.514  -4.750  25.974  0.00  0.00    -0.083 Cl
ATOM     20  C   UNL     1       7.305  -5.328  27.340  0.00  0.00    +0.020 A 
ATOM     21  C   UNL     1       5.976  -5.697  27.514  0.00  0.00    +0.003 A 
ATOM     22  C   UNL     1       5.189  -5.935  26.395  0.00  0.00    +0.020 A 
ATOM     23  C   UNL     1       5.718  -5.785  25.105  0.00  0.00    +0.047 A 
ATOM     24 CL   UNL     1       4.682  -6.273  23.813  0.00  0.00    -0.083 Cl
ENDBRANCH  16  17
ENDBRANCH   3  16
TORSDOF 3
ENDMDL
MODEL 2
REMARK VINA RESULT:      -7.2      2.705      4.484
REMARK  Name = 
REMARK  4 active torsions:
REMARK  status: ('A' for Active; 'I' for Inactive)
REMARK    1  A    between atoms: C_1  and  C_2
REMARK    2  A    between atoms: C_4  and  C_16
REMARK    3  A    between atoms: N_6  and  C_7
REMARK    4  A    between atoms: C_7  and  C_8
REMARK                            x       y       z     vdW  Elec       q    Type
REMARK                         _______ _______ _______ _____ _____    ______ ____
ROOT
ATOM      1  C   UNL     1       9.435  -0.950  21.500  0.00  0.00    +0.086 C 
ATOM      2  C   UNL     1       9.495   0.178  22.462  0.00  0.00    +0.108 A 
ATOM      3  N   UNL     1       8.776   0.243  23.638  0.00  0.00    -0.329 N 
ATOM      4  C   UNL     1       9.116   1.422  24.253  0.00  0.00    +0.117 A 
ATOM      5  C   UNL     1       9.935   2.085  23.370  0.00  0.00    +0.107 A 
ATOM      6  N   UNL     1      10.192   1.285  22.281  0.00  0.00    -0.231 NA
ENDROOT
BRANCH   5   7
ATOM      7  C   UNL     1      10.352   3.473  23.511  0.00  0.00    +0.096 A 
ATOM      8  C   UNL     1       9.476   4.410  24.011  0.00  0.00    +0.050 A 
ATOM      9  C   UNL     1      10.005   5.658  24.218  0.00  0.00    +0.116 A 
ATOM     10  N   UNL     1      11.284   5.976  23.950  0.00  0.00    -0.223 NA
ATOM     11  C   UNL     1      12.055   4.996  23.472  0.00  0.00    +0.213 A 
ATOM     12  N   UNL     1      13.369   5.304  23.185  0.00  0.00    -0.327 N 
ATOM     13  H   UNL     1      13.454   6.298  23.028  0.00  0.00    +0.145 HD
ATOM     14  H   UNL     1      13.708   4.688  22.459  0.00  0.00    +0.145 HD
ATOM     15  N   UNL     1      11.647   3.754  23.225  0.00  0.00    -0.213 NA
ENDBRANCH   5   7
BRANCH   3  16
ATOM     16  C   UNL     1       7.604  -0.551  24.010  0.00  0.00    +0.161 C 
BRANCH  16  17
ATOM     17  C   UNL     1       7.897  -1.942  24.523  0.00  0.00    +0.009 A 
ATOM     18  C   UNL     1       7.521  -3.086  23.785  0.00  0.00    +0.047 A 
ATOM     19 CL   UNL     1       6.680  -2.986  22.275  0.00  0.00    -0.083 Cl
ATOM     20  C   UNL     1       7.767  -4.380  24.264  0.00  0.00    +0.020 A 
ATOM     21  C   UNL     1       8.395  -4.571  25.489  0.00  0.00    +0.003 A 
ATOM     22  C   UNL     1       8.734  -3.464  26.255  0.00  0.00    +0.020 A 
ATOM     23  C   UNL     1       8.468  -2.167  25.792  0.00  0.00    +0.047 A 
ATOM     24 CL   UNL     1       8.788  -0.895  26.914  0.00  0.00    -0.083 Cl
ENDBRANCH  16  17
ENDBRANCH   3  16
TORSDOF 3
ENDMDL
MODEL 3
REMARK VINA RESULT:      -6.8      2.670      4.115
REMARK  Name = 
REMARK  4 active torsions:
REMARK  status: ('A' for Active; 'I' for Inactive)
REMARK    1  A    between atoms: C_1  and  C_2
REMARK    2  A    between atoms: C_4  and  C_16
REMARK    3  A    between atoms: N_6  and  C_7
REMARK    4  A    between atoms: C_7  and  C_8
REMARK                            x       y       z     vdW  Elec       q    Type
REMARK                         _______ _______ _______ _____ _____    ______ ____
ROOT
ATOM      1  C   UNL     1      10.265  -1.449  22.577  0.00  0.00    +0.086 C 
ATOM      2  C   UNL     1       9.936  -0.136  23.187  0.00  0.00    +0.108 A 
ATOM      3  N   UNL     1       8.823   0.108  23.965  0.00  0.00    -0.329 N 
ATOM      4  C   UNL     1       8.884   1.424  24.352  0.00  0.00    +0.117 A 
ATOM      5  C   UNL     1       9.965   1.960  23.695  0.00  0.00    +0.107 A 
ATOM      6  N   UNL     1      10.631   0.973  23.005  0.00  0.00    -0.231 NA
ENDROOT
BRANCH   5   7
ATOM      7  C   UNL     1      10.274   3.382  23.632  0.00  0.00    +0.096 A 
ATOM      8  C   UNL     1       9.298   4.313  23.906  0.00  0.00    +0.050 A 
ATOM      9  C   UNL     1       9.721   5.617  23.940  0.00  0.00    +0.116 A 
ATOM     10  N   UNL     1      10.994   5.990  23.715  0.00  0.00    -0.223 NA
ATOM     11  C   UNL     1      11.867   5.011  23.462  0.00  0.00    +0.213 A 
ATOM     12  N   UNL     1      13.176   5.374  23.223  0.00  0.00    -0.327 N 
ATOM     13  H   UNL     1      13.207   6.334  22.910  0.00  0.00    +0.145 HD
ATOM     14  H   UNL     1      13.616   4.679  22.636  0.00  0.00    +0.145 HD
ATOM     15  N   UNL     1      11.566   3.717  23.397  0.00  0.00    -0.213 NA
ENDBRANCH   5   7
BRANCH   3  16
ATOM     16  C   UNL     1       7.612  -0.706  24.068  0.00  0.00    +0.161 C 
BRANCH  16  17
ATOM     17  C   UNL     1       7.808  -2.096  24.627  0.00  0.00    +0.009 A 
ATOM     18  C   UNL     1       8.333  -2.294  25.922  0.00  0.00    +0.047 A 
ATOM     19 CL   UNL     1       8.815  -0.982  26.944  0.00  0.00    -0.083 Cl
ATOM     20  C   UNL     1       8.541  -3.580  26.440  0.00  0.00    +0.020 A 
ATOM     21  C   UNL     1       8.231  -4.703  25.683  0.00  0.00    +0.003 A 
ATOM     22  C   UNL     1       7.756  -4.537  24.389  0.00  0.00    +0.020 A 
ATOM     23  C   UNL     1       7.570  -3.253  23.857  0.00  0.00    +0.047 A 
ATOM     24 CL   UNL     1       7.134  -3.194  22.187  0.00  0.00    -0.083 Cl
ENDBRANCH  16  17
ENDBRANCH   3  16
TORSDOF 3
ENDMDL
MODEL 4
REMARK VINA RESULT:      -6.8      0.441      1.967
REMARK  Name = 
REMARK  4 active torsions:
REMARK  status: ('A' for Active; 'I' for Inactive)
REMARK    1  A    between atoms: C_1  and  C_2
REMARK    2  A    between atoms: C_4  and  C_16
REMARK    3  A    between atoms: N_6  and  C_7
REMARK    4  A    between atoms: C_7  and  C_8
REMARK                            x       y       z     vdW  Elec       q    Type
REMARK                         _______ _______ _______ _____ _____    ______ ____
ROOT
ATOM      1  C   UNL     1       5.118  -3.477  22.772  0.00  0.00    +0.086 C 
ATOM      2  C   UNL     1       6.507  -2.998  22.987  0.00  0.00    +0.108 A 
ATOM      3  N   UNL     1       7.575  -3.813  23.301  0.00  0.00    -0.329 N 
ATOM      4  C   UNL     1       8.681  -3.005  23.399  0.00  0.00    +0.117 A 
ATOM      5  C   UNL     1       8.220  -1.717  23.262  0.00  0.00    +0.107 A 
ATOM      6  N   UNL     1       6.876  -1.730  22.969  0.00  0.00    -0.231 NA
ENDROOT
BRANCH   5   7
ATOM      7  C   UNL     1       9.012  -0.523  23.522  0.00  0.00    +0.096 A 
ATOM      8  C   UNL     1       9.656  -0.371  24.730  0.00  0.00    +0.050 A 
ATOM      9  C   UNL     1      10.472   0.726  24.828  0.00  0.00    +0.116 A 
ATOM     10  N   UNL     1      10.642   1.616  23.833  0.00  0.00    -0.223 NA
ATOM     11  C   UNL     1       9.977   1.378  22.699  0.00  0.00    +0.213 A 
ATOM     12  N   UNL     1      10.134   2.281  21.669  0.00  0.00    -0.327 N 
ATOM     13  H   UNL     1      10.427   3.172  22.045  0.00  0.00    +0.145 HD
ATOM     14  H   UNL     1       9.309   2.273  21.085  0.00  0.00    +0.145 HD
ATOM     15  N   UNL     1       9.155   0.352  22.497  0.00  0.00    -0.213 NA
ENDBRANCH   5   7
BRANCH   3  16
ATOM     16  C   UNL     1       7.530  -5.183  23.812  0.00  0.00    +0.161 C 
BRANCH  16  17
ATOM     17  C   UNL     1       6.822  -5.360  25.135  0.00  0.00    +0.009 A 
ATOM     18  C   UNL     1       5.553  -5.976  25.206  0.00  0.00    +0.047 A 
ATOM     19 CL   UNL     1       4.710  -6.540  23.803  0.00  0.00    -0.083 Cl
ATOM     20  C   UNL     1       4.877  -6.124  26.426  0.00  0.00    +0.020 A 
ATOM     21  C   UNL     1       5.446  -5.662  27.607  0.00  0.00    +0.003 A 
ATOM     22  C   UNL     1       6.672  -5.011  27.558  0.00  0.00    +0.020 A 
ATOM     23  C   UNL     1       7.341  -4.840  26.337  0.00  0.00    +0.047 A 
ATOM     24 CL   UNL     1       8.769  -3.871  26.400  0.00  0.00    -0.083 Cl
ENDBRANCH  16  17
ENDBRANCH   3  16
TORSDOF 3
ENDMDL
MODEL 5
REMARK VINA RESULT:      -6.8      3.483      7.404
REMARK  Name = 
REMARK  4 active torsions:
REMARK  status: ('A' for Active; 'I' for Inactive)
REMARK    1  A    between atoms: C_1  and  C_2
REMARK    2  A    between atoms: C_4  and  C_16
REMARK    3  A    between atoms: N_6  and  C_7
REMARK    4  A    between atoms: C_7  and  C_8
REMARK                            x       y       z     vdW  Elec       q    Type
REMARK                         _______ _______ _______ _____ _____    ______ ____
ROOT
ATOM      1  C   UNL     1       9.396   1.200  21.491  0.00  0.00    +0.086 C 
ATOM      2  C   UNL     1       9.140   0.184  22.542  0.00  0.00    +0.108 A 
ATOM      3  N   UNL     1       9.246   0.417  23.898  0.00  0.00    -0.329 N 
ATOM      4  C   UNL     1       8.914  -0.754  24.534  0.00  0.00    +0.117 A 
ATOM      5  C   UNL     1       8.738  -1.686  23.539  0.00  0.00    +0.107 A 
ATOM      6  N   UNL     1       8.844  -1.082  22.308  0.00  0.00    -0.231 NA
ENDROOT
BRANCH   5   7
ATOM      7  C   UNL     1       8.597  -3.119  23.763  0.00  0.00    +0.096 A 
ATOM      8  C   UNL     1       7.681  -3.844  23.035  0.00  0.00    +0.050 A 
ATOM      9  C   UNL     1       7.714  -5.200  23.234  0.00  0.00    +0.116 A 
ATOM     10  N   UNL     1       8.562  -5.806  24.085  0.00  0.00    -0.223 NA
ATOM     11  C   UNL     1       9.413  -5.014  24.742  0.00  0.00    +0.213 A 
ATOM     12  N   UNL     1      10.288  -5.616  25.624  0.00  0.00    -0.327 N 
ATOM     13  H   UNL     1       9.910  -6.506  25.916  0.00  0.00    +0.145 HD
ATOM     14  H   UNL     1      10.541  -4.958  26.348  0.00  0.00    +0.145 HD
ATOM     15  N   UNL     1       9.466  -3.690  24.633  0.00  0.00    -0.213 NA
ENDBRANCH   5   7
BRANCH   3  16
ATOM     16  C   UNL     1       9.932   1.527  24.560  0.00  0.00    +0.161 C 
BRANCH  16  17
ATOM     17  C   UNL     1       9.240   2.866  24.469  0.00  0.00    +0.009 A 
ATOM     18  C   UNL     1       9.865   3.971  23.851  0.00  0.00    +0.047 A 
ATOM     19 CL   UNL     1      11.462   3.887  23.186  0.00  0.00    -0.083 Cl
ATOM     20  C   UNL     1       9.240   5.224  23.783  0.00  0.00    +0.020 A 
ATOM     21  C   UNL     1       7.976   5.411  24.328  0.00  0.00    +0.003 A 
ATOM     22  C   UNL     1       7.357   4.353  24.983  0.00  0.00    +0.020 A 
ATOM     23  C   UNL     1       7.989   3.105  25.074  0.00  0.00    +0.047 A 
ATOM     24 CL   UNL     1       7.184   1.933  26.055  0.00  0.00    -0.083 Cl
ENDBRANCH  16  17
ENDBRANCH   3  16
TORSDOF 3
ENDMDL
MODEL 6
REMARK VINA RESULT:      -6.7      2.828      4.791
REMARK  Name = 
REMARK  4 active torsions:
REMARK  status: ('A' for Active; 'I' for Inactive)
REMARK    1  A    between atoms: C_1  and  C_2
REMARK    2  A    between atoms: C_4  and  C_16
REMARK    3  A    between atoms: N_6  and  C_7
REMARK    4  A    between atoms: C_7  and  C_8
REMARK                            x       y       z     vdW  Elec       q    Type
REMARK                         _______ _______ _______ _____ _____    ______ ____
ROOT
ATOM      1  C   UNL     1       7.466   0.315  25.904  0.00  0.00    +0.086 C 
ATOM      2  C   UNL     1       8.472   0.977  25.036  0.00  0.00    +0.108 A 
ATOM      3  N   UNL     1       9.434   0.310  24.305  0.00  0.00    -0.329 N 
ATOM      4  C   UNL     1      10.151   1.262  23.624  0.00  0.00    +0.117 A 
ATOM      5  C   UNL     1       9.678   2.476  24.061  0.00  0.00    +0.107 A 
ATOM      6  N   UNL     1       8.611   2.284  24.907  0.00  0.00    -0.231 NA
ENDROOT
BRANCH   5   7
ATOM      7  C   UNL     1      10.303   3.760  23.773  0.00  0.00    +0.096 A 
ATOM      8  C   UNL     1       9.570   4.921  23.871  0.00  0.00    +0.050 A 
ATOM      9  C   UNL     1      10.281   6.081  23.700  0.00  0.00    +0.116 A 
ATOM     10  N   UNL     1      11.601   6.111  23.442  0.00  0.00    -0.223 NA
ATOM     11  C   UNL     1      12.222   4.931  23.370  0.00  0.00    +0.213 A 
ATOM     12  N   UNL     1      13.575   4.941  23.101  0.00  0.00    -0.327 N 
ATOM     13  H   UNL     1      13.818   5.804  22.635  0.00  0.00    +0.145 HD
ATOM     14  H   UNL     1      13.834   4.077  22.644  0.00  0.00    +0.145 HD
ATOM     15  N   UNL     1      11.632   3.747  23.511  0.00  0.00    -0.213 NA
ENDBRANCH   5   7
BRANCH   3  16
ATOM     16  C   UNL     1       9.888  -1.070  24.480  0.00  0.00    +0.161 C 
BRANCH  16  17
ATOM     17  C   UNL     1       8.941  -2.135  23.978  0.00  0.00    +0.009 A 
ATOM     18  C   UNL     1       8.566  -2.194  22.618  0.00  0.00    +0.047 A 
ATOM     19 CL   UNL     1       9.128  -1.052  21.444  0.00  0.00    -0.083 Cl
ATOM     20  C   UNL     1       7.670  -3.164  22.147  0.00  0.00    +0.020 A 
ATOM     21  C   UNL     1       7.123  -4.101  23.017  0.00  0.00    +0.003 A 
ATOM     22  C   UNL     1       7.440  -4.035  24.367  0.00  0.00    +0.020 A 
ATOM     23  C   UNL     1       8.317  -3.052  24.847  0.00  0.00    +0.047 A 
ATOM     24 CL   UNL     1       8.491  -2.983  26.564  0.00  0.00    -0.083 Cl
ENDBRANCH  16  17
ENDBRANCH   3  16
TORSDOF 3
ENDMDL
MODEL 7
REMARK VINA RESULT:      -6.7      3.471      7.645
REMARK  Name = 
REMARK  4 active torsions:
REMARK  status: ('A' for Active; 'I' for Inactive)
REMARK    1  A    between atoms: C_1  and  C_2
REMARK    2  A    between atoms: C_4  and  C_16
REMARK    3  A    between atoms: N_6  and  C_7
REMARK    4  A    between atoms: C_7  and  C_8
REMARK                            x       y       z     vdW  Elec       q    Type
REMARK                         _______ _______ _______ _____ _____    ______ ____
ROOT
ATOM      1  C   UNL     1      10.950   0.473  24.774  0.00  0.00    +0.086 C 
ATOM      2  C   UNL     1      10.034  -0.193  23.814  0.00  0.00    +0.108 A 
ATOM      3  N   UNL     1       9.713   0.302  22.567  0.00  0.00    -0.329 N 
ATOM      4  C   UNL     1       8.862  -0.602  21.983  0.00  0.00    +0.117 A 
ATOM      5  C   UNL     1       8.603  -1.551  22.943  0.00  0.00    +0.107 A 
ATOM      6  N   UNL     1       9.366  -1.305  24.061  0.00  0.00    -0.231 NA
ENDROOT
BRANCH   5   7
ATOM      7  C   UNL     1       7.575  -2.577  22.836  0.00  0.00    +0.096 A 
ATOM      8  C   UNL     1       6.244  -2.225  22.851  0.00  0.00    +0.050 A 
ATOM      9  C   UNL     1       5.362  -3.250  22.621  0.00  0.00    +0.116 A 
ATOM     10  N   UNL     1       5.743  -4.522  22.404  0.00  0.00    -0.223 NA
ATOM     11  C   UNL     1       7.057  -4.760  22.405  0.00  0.00    +0.213 A 
ATOM     12  N   UNL     1       7.467  -6.060  22.190  0.00  0.00    -0.327 N 
ATOM     13  H   UNL     1       6.718  -6.692  22.432  0.00  0.00    +0.145 HD
ATOM     14  H   UNL     1       8.363  -6.208  22.635  0.00  0.00    +0.145 HD
ATOM     15  N   UNL     1       7.999  -3.847  22.624  0.00  0.00    -0.213 NA
ENDBRANCH   5   7
BRANCH   3  16
ATOM     16  C   UNL     1       9.896   1.669  22.077  0.00  0.00    +0.161 C 
BRANCH  16  17
ATOM     17  C   UNL     1       9.256   2.751  22.916  0.00  0.00    +0.009 A 
ATOM     18  C   UNL     1       7.852   2.866  23.010  0.00  0.00    +0.047 A 
ATOM     19 CL   UNL     1       6.770   1.813  22.161  0.00  0.00    -0.083 Cl
ATOM     20  C   UNL     1       7.248   3.881  23.766  0.00  0.00    +0.020 A 
ATOM     21  C   UNL     1       8.027   4.809  24.449  0.00  0.00    +0.003 A 
ATOM     22  C   UNL     1       9.410   4.746  24.336  0.00  0.00    +0.020 A 
ATOM     23  C   UNL     1      10.017   3.747  23.561  0.00  0.00    +0.047 A 
ATOM     24 CL   UNL     1      11.728   3.887  23.374  0.00  0.00    -0.083 Cl
ENDBRANCH  16  17
ENDBRANCH   3  16
TORSDOF 3
ENDMDL
MODEL 8
REMARK VINA RESULT:      -6.6      3.654      6.870
REMARK  Name = 
REMARK  4 active torsions:
REMARK  status: ('A' for Active; 'I' for Inactive)
REMARK    1  A    between atoms: C_1  and  C_2
REMARK    2  A    between atoms: C_4  and  C_16
REMARK    3  A    between atoms: N_6  and  C_7
REMARK    4  A    between atoms: C_7  and  C_8
REMARK                            x       y       z     vdW  Elec       q    Type
REMARK                         _______ _______ _______ _____ _____    ______ ____
ROOT
ATOM      1  C   UNL     1       5.241   1.254  26.720  0.00  0.00    +0.086 C 
ATOM      2  C   UNL     1       6.285   0.201  26.655  0.00  0.00    +0.108 A 
ATOM      3  N   UNL     1       7.595   0.421  26.280  0.00  0.00    -0.329 N 
ATOM      4  C   UNL     1       8.245  -0.785  26.364  0.00  0.00    +0.117 A 
ATOM      5  C   UNL     1       7.278  -1.714  26.668  0.00  0.00    +0.107 A 
ATOM      6  N   UNL     1       6.075  -1.083  26.883  0.00  0.00    -0.231 NA
ENDROOT
BRANCH   5   7
ATOM      7  C   UNL     1       7.476  -3.156  26.633  0.00  0.00    +0.096 A 
ATOM      8  C   UNL     1       6.412  -4.004  26.840  0.00  0.00    +0.050 A 
ATOM      9  C   UNL     1       6.679  -5.338  26.664  0.00  0.00    +0.116 A 
ATOM     10  N   UNL     1       7.891  -5.813  26.325  0.00  0.00    -0.223 NA
ATOM     11  C   UNL     1       8.857  -4.909  26.143  0.00  0.00    +0.213 A 
ATOM     12  N   UNL     1      10.109  -5.377  25.800  0.00  0.00    -0.327 N 
ATOM     13  H   UNL     1      10.201  -6.337  26.098  0.00  0.00    +0.145 HD
ATOM     14  H   UNL     1      10.811  -4.723  26.116  0.00  0.00    +0.145 HD
ATOM     15  N   UNL     1       8.712  -3.595  26.293  0.00  0.00    -0.213 NA
ENDBRANCH   5   7
BRANCH   3  16
ATOM     16  C   UNL     1       8.135   1.579  25.567  0.00  0.00    +0.161 C 
BRANCH  16  17
ATOM     17  C   UNL     1       8.423   1.363  24.099  0.00  0.00    +0.009 A 
ATOM     18  C   UNL     1       9.701   0.956  23.659  0.00  0.00    +0.047 A 
ATOM     19 CL   UNL     1      11.026   0.707  24.745  0.00  0.00    -0.083 Cl
ATOM     20  C   UNL     1       9.984   0.775  22.298  0.00  0.00    +0.020 A 
ATOM     21  C   UNL     1       9.002   0.995  21.338  0.00  0.00    +0.003 A 
ATOM     22  C   UNL     1       7.750   1.440  21.741  0.00  0.00    +0.020 A 
ATOM     23  C   UNL     1       7.470   1.645  23.100  0.00  0.00    +0.047 A 
ATOM     24 CL   UNL     1       5.934   2.356  23.444  0.00  0.00    -0.083 Cl
ENDBRANCH  16  17
ENDBRANCH   3  16
TORSDOF 3
ENDMDL
MODEL 9
REMARK VINA RESULT:      -6.6      2.033      2.972
REMARK  Name = 
REMARK  4 active torsions:
REMARK  status: ('A' for Active; 'I' for Inactive)
REMARK    1  A    between atoms: C_1  and  C_2
REMARK    2  A    between atoms: C_4  and  C_16
REMARK    3  A    between atoms: N_6  and  C_7
REMARK    4  A    between atoms: C_7  and  C_8
REMARK                            x       y       z     vdW  Elec       q    Type
REMARK                         _______ _______ _______ _____ _____    ______ ____
ROOT
ATOM      1  C   UNL     1      10.002  -4.812  25.456  0.00  0.00    +0.086 C 
ATOM      2  C   UNL     1       9.201  -3.825  24.690  0.00  0.00    +0.108 A 
ATOM      3  N   UNL     1       8.029  -4.118  24.023  0.00  0.00    -0.329 N 
ATOM      4  C   UNL     1       7.585  -2.948  23.458  0.00  0.00    +0.117 A 
ATOM      5  C   UNL     1       8.567  -2.016  23.700  0.00  0.00    +0.107 A 
ATOM      6  N   UNL     1       9.545  -2.564  24.498  0.00  0.00    -0.231 NA
ENDROOT
BRANCH   5   7
ATOM      7  C   UNL     1       8.622  -0.695  23.090  0.00  0.00    +0.096 A 
ATOM      8  C   UNL     1       9.790  -0.250  22.512  0.00  0.00    +0.050 A 
ATOM      9  C   UNL     1       9.702   0.952  21.859  0.00  0.00    +0.116 A 
ATOM     10  N   UNL     1       8.569   1.674  21.783  0.00  0.00    -0.223 NA
ATOM     11  C   UNL     1       7.489   1.155  22.373  0.00  0.00    +0.213 A 
ATOM     12  N   UNL     1       6.319   1.882  22.310  0.00  0.00    -0.327 N 
ATOM     13  H   UNL     1       6.538   2.856  22.155  0.00  0.00    +0.145 HD
ATOM     14  H   UNL     1       5.740   1.658  23.107  0.00  0.00    +0.145 HD
ATOM     15  N   UNL     1       7.462   0.003  23.038  0.00  0.00    -0.213 NA
ENDBRANCH   5   7
BRANCH   3  16
ATOM     16  C   UNL     1       7.528  -5.438  23.640  0.00  0.00    +0.161 C 
BRANCH  16  17
ATOM     17  C   UNL     1       6.038  -5.638  23.790  0.00  0.00    +0.009 A 
ATOM     18  C   UNL     1       5.443  -5.758  25.065  0.00  0.00    +0.047 A 
ATOM     19 CL   UNL     1       6.363  -5.718  26.531  0.00  0.00    -0.083 Cl
ATOM     20  C   UNL     1       4.065  -5.967  25.214  0.00  0.00    +0.020 A 
ATOM     21  C   UNL     1       3.242  -6.061  24.098  0.00  0.00    +0.003 A 
ATOM     22  C   UNL     1       3.808  -5.993  22.831  0.00  0.00    +0.020 A 
ATOM     23  C   UNL     1       5.190  -5.808  22.678  0.00  0.00    +0.047 A 
ATOM     24 CL   UNL     1       5.779  -5.908  21.057  0.00  0.00    -0.083 Cl
ENDBRANCH  16  17
ENDBRANCH   3  16
TORSDOF 3
ENDMDL
