MODEL 1
REMARK VINA RESULT:      -5.2      0.000      0.000
REMARK  Name = 
REMARK  4 active torsions:
REMARK  status: ('A' for Active; 'I' for Inactive)
REMARK    1  A    between atoms: C_1  and  C_2
REMARK    2  A    between atoms: C_2  and  O_4
REMARK    3  A    between atoms: C_2  and  C_5
REMARK    4  A    between atoms: C_5  and  N_6
REMARK                            x       y       z     vdW  Elec       q    Type
REMARK                         _______ _______ _______ _____ _____    ______ ____
ROOT
ATOM      1  N   UNL     1       9.349  -2.051  23.356  0.00  0.00    -0.312 N 
ATOM      2  C   UNL     1       9.797  -0.802  23.683  0.00  0.00    +0.165 A 
ATOM      3  N   UNL     1      10.280  -0.380  24.863  0.00  0.00    -0.216 NA
ATOM      4  C   UNL     1      10.619   0.923  24.803  0.00  0.00    +0.225 A 
ATOM      5  N   UNL     1      10.528   1.768  23.752  0.00  0.00    -0.219 NA
ATOM      6  C   UNL     1      10.054   1.287  22.581  0.00  0.00    +0.147 A 
ATOM      7  N   UNL     1       9.984   2.149  21.495  0.00  0.00    -0.341 N 
ATOM      8  H   UNL     1       9.333   1.849  20.778  0.00  0.00    +0.144 HD
ATOM      9  H   UNL     1       9.971   3.121  21.774  0.00  0.00    +0.144 HD
ATOM     10  C   UNL     1       9.642  -0.056  22.525  0.00  0.00    +0.147 A 
ATOM     11  N   UNL     1       9.084  -0.821  21.520  0.00  0.00    -0.231 NA
ATOM     12  C   UNL     1       8.929  -2.015  22.053  0.00  0.00    +0.201 A 
ENDROOT
BRANCH   1  13
ATOM     13  C   UNL     1       9.367  -3.217  24.207  0.00  0.00    +0.155 C 
BRANCH  13  15
ATOM     14  C   UNL     1       7.836  -4.758  25.540  0.00  0.00    +0.039 C 
ATOM     15  C   UNL     1       8.196  -3.319  25.191  0.00  0.00    +0.131 C 
BRANCH  15  16
ATOM     16  O   UNL     1       8.574  -2.647  26.397  0.00  0.00    -0.390 OA
ATOM     17  H   UNL     1       9.242  -1.980  26.161  0.00  0.00    +0.210 HD
ENDBRANCH  15  16
ENDBRANCH  13  15
ENDBRANCH   1  13
TORSDOF 3
ENDMDL
MODEL 2
REMARK VINA RESULT:      -5.2      2.608      4.880
REMARK  Name = 
REMARK  4 active torsions:
REMARK  status: ('A' for Active; 'I' for Inactive)
REMARK    1  A    between atoms: C_1  and  C_2
REMARK    2  A    between atoms: C_2  and  O_4
REMARK    3  A    between atoms: C_2  and  C_5
REMARK    4  A    between atoms: C_5  and  N_6
REMARK                            x       y       z     vdW  Elec       q    Type
REMARK                         _______ _______ _______ _____ _____    ______ ____
ROOT
ATOM      1  N   UNL     1       9.762  -0.582  23.509  0.00  0.00    -0.312 N 
ATOM      2  C   UNL     1       9.255  -1.292  24.562  0.00  0.00    +0.165 A 
ATOM      3  N   UNL     1       8.635  -0.820  25.655  0.00  0.00    -0.216 NA
ATOM      4  C   UNL     1       8.279  -1.828  26.476  0.00  0.00    +0.225 A 
ATOM      5  N   UNL     1       8.469  -3.155  26.309  0.00  0.00    -0.219 NA
ATOM      6  C   UNL     1       9.081  -3.579  25.180  0.00  0.00    +0.147 A 
ATOM      7  N   UNL     1       9.253  -4.945  24.999  0.00  0.00    -0.341 N 
ATOM      8  H   UNL     1       9.986  -5.177  24.338  0.00  0.00    +0.144 HD
ATOM      9  H   UNL     1       9.215  -5.458  25.868  0.00  0.00    +0.144 HD
ATOM     10  C   UNL     1       9.523  -2.618  24.256  0.00  0.00    +0.147 A 
ATOM     11  N   UNL     1      10.205  -2.717  23.059  0.00  0.00    -0.231 NA
ATOM     12  C   UNL     1      10.324  -1.475  22.637  0.00  0.00    +0.201 A 
ENDROOT
BRANCH   1  13
ATOM     13  C   UNL     1       9.674   0.846  23.318  0.00  0.00    +0.155 C 
BRANCH  13  15
ATOM     14  C   UNL     1       8.087   1.772  21.552  0.00  0.00    +0.039 C 
ATOM     15  C   UNL     1       9.501   1.296  21.864  0.00  0.00    +0.131 C 
BRANCH  15  16
ATOM     16  O   UNL     1      10.401   2.384  21.629  0.00  0.00    -0.390 OA
ATOM     17  H   UNL     1      10.502   2.475  20.665  0.00  0.00    +0.210 HD
ENDBRANCH  15  16
ENDBRANCH  13  15
ENDBRANCH   1  13
TORSDOF 3
ENDMDL
MODEL 3
REMARK VINA RESULT:      -5.1      3.094      5.536
REMARK  Name = 
REMARK  4 active torsions:
REMARK  status: ('A' for Active; 'I' for Inactive)
REMARK    1  A    between atoms: C_1  and  C_2
REMARK    2  A    between atoms: C_2  and  O_4
REMARK    3  A    between atoms: C_2  and  C_5
REMARK    4  A    between atoms: C_5  and  N_6
REMARK                            x       y       z     vdW  Elec       q    Type
REMARK                         _______ _______ _______ _____ _____    ______ ____
ROOT
ATOM      1  N   UNL     1       8.570  -3.062  24.050  0.00  0.00    -0.312 N 
ATOM      2  C   UNL     1       7.501  -3.313  23.235  0.00  0.00    +0.165 A 
ATOM      3  N   UNL     1       6.684  -2.423  22.647  0.00  0.00    -0.216 NA
ATOM      4  C   UNL     1       5.739  -3.051  21.919  0.00  0.00    +0.225 A 
ATOM      5  N   UNL     1       5.559  -4.378  21.740  0.00  0.00    -0.219 NA
ATOM      6  C   UNL     1       6.422  -5.230  22.338  0.00  0.00    +0.147 A 
ATOM      7  N   UNL     1       6.251  -6.592  22.133  0.00  0.00    -0.341 N 
ATOM      8  H   UNL     1       6.688  -7.168  22.844  0.00  0.00    +0.144 HD
ATOM      9  H   UNL     1       5.311  -6.824  21.843  0.00  0.00    +0.144 HD
ATOM     10  C   UNL     1       7.439  -4.695  23.148  0.00  0.00    +0.147 A 
ATOM     11  N   UNL     1       8.428  -5.280  23.915  0.00  0.00    -0.231 NA
ATOM     12  C   UNL     1       9.091  -4.268  24.435  0.00  0.00    +0.201 A 
ENDROOT
BRANCH   1  13
ATOM     13  C   UNL     1       9.095  -1.763  24.398  0.00  0.00    +0.155 C 
BRANCH  13  15
ATOM     14  C   UNL     1      10.571   0.198  23.712  0.00  0.00    +0.039 C 
ATOM     15  C   UNL     1       9.751  -0.998  23.244  0.00  0.00    +0.131 C 
BRANCH  15  16
ATOM     16  O   UNL     1      10.626  -1.900  22.558  0.00  0.00    -0.390 OA
ATOM     17  H   UNL     1      11.537  -1.672  22.813  0.00  0.00    +0.210 HD
ENDBRANCH  15  16
ENDBRANCH  13  15
ENDBRANCH   1  13
TORSDOF 3
ENDMDL
MODEL 4
REMARK VINA RESULT:      -5.0      1.742      2.287
REMARK  Name = 
REMARK  4 active torsions:
REMARK  status: ('A' for Active; 'I' for Inactive)
REMARK    1  A    between atoms: C_1  and  C_2
REMARK    2  A    between atoms: C_2  and  O_4
REMARK    3  A    between atoms: C_2  and  C_5
REMARK    4  A    between atoms: C_5  and  N_6
REMARK                            x       y       z     vdW  Elec       q    Type
REMARK                         _______ _______ _______ _____ _____    ______ ____
ROOT
ATOM      1  N   UNL     1       7.883  -3.279  24.489  0.00  0.00    -0.312 N 
ATOM      2  C   UNL     1       8.651  -2.167  24.280  0.00  0.00    +0.165 A 
ATOM      3  N   UNL     1       9.254  -1.395  25.198  0.00  0.00    -0.216 NA
ATOM      4  C   UNL     1       9.922  -0.383  24.608  0.00  0.00    +0.225 A 
ATOM      5  N   UNL     1      10.032  -0.104  23.290  0.00  0.00    -0.219 NA
ATOM      6  C   UNL     1       9.421  -0.926  22.406  0.00  0.00    +0.147 A 
ATOM      7  N   UNL     1       9.556  -0.652  21.052  0.00  0.00    -0.341 N 
ATOM      8  H   UNL     1       8.833  -1.072  20.479  0.00  0.00    +0.144 HD
ATOM      9  H   UNL     1       9.805   0.312  20.875  0.00  0.00    +0.144 HD
ATOM     10  C   UNL     1       8.670  -2.005  22.903  0.00  0.00    +0.147 A 
ATOM     11  N   UNL     1       7.908  -2.976  22.284  0.00  0.00    -0.231 NA
ATOM     12  C   UNL     1       7.458  -3.727  23.267  0.00  0.00    +0.201 A 
ENDROOT
BRANCH   1  13
ATOM     13  C   UNL     1       7.614  -3.906  25.761  0.00  0.00    +0.155 C 
BRANCH  13  15
ATOM     14  C   UNL     1       9.794  -5.224  25.747  0.00  0.00    +0.039 C 
ATOM     15  C   UNL     1       8.287  -5.266  25.969  0.00  0.00    +0.131 C 
BRANCH  15  16
ATOM     16  O   UNL     1       8.044  -5.677  27.319  0.00  0.00    -0.390 OA
ATOM     17  H   UNL     1       7.880  -6.636  27.306  0.00  0.00    +0.210 HD
ENDBRANCH  15  16
ENDBRANCH  13  15
ENDBRANCH   1  13
TORSDOF 3
ENDMDL
MODEL 5
REMARK VINA RESULT:      -5.0      3.083      5.718
REMARK  Name = 
REMARK  4 active torsions:
REMARK  status: ('A' for Active; 'I' for Inactive)
REMARK    1  A    between atoms: C_1  and  C_2
REMARK    2  A    between atoms: C_2  and  O_4
REMARK    3  A    between atoms: C_2  and  C_5
REMARK    4  A    between atoms: C_5  and  N_6
REMARK                            x       y       z     vdW  Elec       q    Type
REMARK                         _______ _______ _______ _____ _____    ______ ____
ROOT
ATOM      1  N   UNL     1       8.681  -3.313  23.788  0.00  0.00    -0.312 N 
ATOM      2  C   UNL     1       8.277  -4.096  24.833  0.00  0.00    +0.165 A 
ATOM      3  N   UNL     1       8.906  -4.301  26.002  0.00  0.00    -0.216 NA
ATOM      4  C   UNL     1       8.198  -5.143  26.784  0.00  0.00    +0.225 A 
ATOM      5  N   UNL     1       7.015  -5.740  26.520  0.00  0.00    -0.219 NA
ATOM      6  C   UNL     1       6.416  -5.483  25.336  0.00  0.00    +0.147 A 
ATOM      7  N   UNL     1       5.188  -6.079  25.077  0.00  0.00    -0.341 N 
ATOM      8  H   UNL     1       4.960  -6.127  24.091  0.00  0.00    +0.144 HD
ATOM      9  H   UNL     1       5.031  -6.901  25.644  0.00  0.00    +0.144 HD
ATOM     10  C   UNL     1       7.069  -4.639  24.422  0.00  0.00    +0.147 A 
ATOM     11  N   UNL     1       6.754  -4.223  23.143  0.00  0.00    -0.231 NA
ATOM     12  C   UNL     1       7.742  -3.423  22.798  0.00  0.00    +0.201 A 
ENDROOT
BRANCH   1  13
ATOM     13  C   UNL     1       9.856  -2.475  23.750  0.00  0.00    +0.155 C 
BRANCH  13  15
ATOM     14  C   UNL     1      10.421  -0.014  23.403  0.00  0.00    +0.039 C 
ATOM     15  C   UNL     1       9.753  -1.256  22.826  0.00  0.00    +0.131 C 
BRANCH  15  16
ATOM     16  O   UNL     1      10.402  -1.582  21.592  0.00  0.00    -0.390 OA
ATOM     17  H   UNL     1      11.270  -1.963  21.812  0.00  0.00    +0.210 HD
ENDBRANCH  15  16
ENDBRANCH  13  15
ENDBRANCH   1  13
TORSDOF 3
ENDMDL
MODEL 6
REMARK VINA RESULT:      -5.0      2.895      5.285
REMARK  Name = 
REMARK  4 active torsions:
REMARK  status: ('A' for Active; 'I' for Inactive)
REMARK    1  A    between atoms: C_1  and  C_2
REMARK    2  A    between atoms: C_2  and  O_4
REMARK    3  A    between atoms: C_2  and  C_5
REMARK    4  A    between atoms: C_5  and  N_6
REMARK                            x       y       z     vdW  Elec       q    Type
REMARK                         _______ _______ _______ _____ _____    ______ ____
ROOT
ATOM      1  N   UNL     1       8.079  -2.124  23.479  0.00  0.00    -0.312 N 
ATOM      2  C   UNL     1       7.830  -3.193  24.295  0.00  0.00    +0.165 A 
ATOM      3  N   UNL     1       6.646  -3.613  24.768  0.00  0.00    -0.216 NA
ATOM      4  C   UNL     1       6.801  -4.703  25.546  0.00  0.00    +0.225 A 
ATOM      5  N   UNL     1       7.942  -5.356  25.861  0.00  0.00    -0.219 NA
ATOM      6  C   UNL     1       9.105  -4.903  25.342  0.00  0.00    +0.147 A 
ATOM      7  N   UNL     1      10.273  -5.589  25.646  0.00  0.00    -0.341 N 
ATOM      8  H   UNL     1      11.113  -5.036  25.522  0.00  0.00    +0.144 HD
ATOM      9  H   UNL     1      10.188  -6.143  26.487  0.00  0.00    +0.144 HD
ATOM     10  C   UNL     1       9.076  -3.754  24.532  0.00  0.00    +0.147 A 
ATOM     11  N   UNL     1      10.068  -3.029  23.903  0.00  0.00    -0.231 NA
ATOM     12  C   UNL     1       9.431  -2.063  23.274  0.00  0.00    +0.201 A 
ENDROOT
BRANCH   1  13
ATOM     13  C   UNL     1       7.093  -1.249  22.890  0.00  0.00    +0.155 C 
BRANCH  13  15
ATOM     14  C   UNL     1       6.822   1.282  22.762  0.00  0.00    +0.039 C 
ATOM     15  C   UNL     1       6.838   0.051  23.661  0.00  0.00    +0.131 C 
BRANCH  15  16
ATOM     16  O   UNL     1       5.559  -0.057  24.295  0.00  0.00    -0.390 OA
ATOM     17  H   UNL     1       5.657   0.275  25.205  0.00  0.00    +0.210 HD
ENDBRANCH  15  16
ENDBRANCH  13  15
ENDBRANCH   1  13
TORSDOF 3
ENDMDL
MODEL 7
REMARK VINA RESULT:      -4.9      1.882      2.242
REMARK  Name = 
REMARK  4 active torsions:
REMARK  status: ('A' for Active; 'I' for Inactive)
REMARK    1  A    between atoms: C_1  and  C_2
REMARK    2  A    between atoms: C_2  and  O_4
REMARK    3  A    between atoms: C_2  and  C_5
REMARK    4  A    between atoms: C_5  and  N_6
REMARK                            x       y       z     vdW  Elec       q    Type
REMARK                         _______ _______ _______ _____ _____    ______ ____
ROOT
ATOM      1  N   UNL     1       8.971  -2.254  23.472  0.00  0.00    -0.312 N 
ATOM      2  C   UNL     1       8.325  -1.092  23.155  0.00  0.00    +0.165 A 
ATOM      3  N   UNL     1       7.034  -0.784  23.355  0.00  0.00    -0.216 NA
ATOM      4  C   UNL     1       6.764   0.459  22.906  0.00  0.00    +0.225 A 
ATOM      5  N   UNL     1       7.605   1.346  22.330  0.00  0.00    -0.219 NA
ATOM      6  C   UNL     1       8.900   0.992  22.171  0.00  0.00    +0.147 A 
ATOM      7  N   UNL     1       9.769   1.914  21.601  0.00  0.00    -0.341 N 
ATOM      8  H   UNL     1      10.604   1.496  21.209  0.00  0.00    +0.144 HD
ATOM      9  H   UNL     1       9.285   2.614  21.056  0.00  0.00    +0.144 HD
ATOM     10  C   UNL     1       9.300  -0.292  22.577  0.00  0.00    +0.147 A 
ATOM     11  N   UNL     1      10.507  -0.960  22.513  0.00  0.00    -0.231 NA
ATOM     12  C   UNL     1      10.273  -2.132  23.066  0.00  0.00    +0.201 A 
ENDROOT
BRANCH   1  13
ATOM     13  C   UNL     1       8.403  -3.389  24.162  0.00  0.00    +0.155 C 
BRANCH  13  15
ATOM     14  C   UNL     1       8.828  -4.327  26.493  0.00  0.00    +0.039 C 
ATOM     15  C   UNL     1       9.372  -4.139  25.082  0.00  0.00    +0.131 C 
BRANCH  15  16
ATOM     16  O   UNL     1       9.605  -5.433  24.516  0.00  0.00    -0.390 OA
ATOM     17  H   UNL     1      10.374  -5.358  23.925  0.00  0.00    +0.210 HD
ENDBRANCH  15  16
ENDBRANCH  13  15
ENDBRANCH   1  13
TORSDOF 3
ENDMDL
MODEL 8
REMARK VINA RESULT:      -4.9      2.138      2.554
REMARK  Name = 
REMARK  4 active torsions:
REMARK  status: ('A' for Active; 'I' for Inactive)
REMARK    1  A    between atoms: C_1  and  C_2
REMARK    2  A    between atoms: C_2  and  O_4
REMARK    3  A    between atoms: C_2  and  C_5
REMARK    4  A    between atoms: C_5  and  N_6
REMARK                            x       y       z     vdW  Elec       q    Type
REMARK                         _______ _______ _______ _____ _____    ______ ____
ROOT
ATOM      1  N   UNL     1       7.916  -3.340  23.765  0.00  0.00    -0.312 N 
ATOM      2  C   UNL     1       8.724  -2.384  23.215  0.00  0.00    +0.165 A 
ATOM      3  N   UNL     1      10.031  -2.477  22.920  0.00  0.00    -0.216 NA
ATOM      4  C   UNL     1      10.485  -1.322  22.390  0.00  0.00    +0.225 A 
ATOM      5  N   UNL     1       9.800  -0.183  22.147  0.00  0.00    -0.219 NA
ATOM      6  C   UNL     1       8.482  -0.150  22.444  0.00  0.00    +0.147 A 
ATOM      7  N   UNL     1       7.775   1.014  22.171  0.00  0.00    -0.341 N 
ATOM      8  H   UNL     1       6.916   1.102  22.703  0.00  0.00    +0.144 HD
ATOM      9  H   UNL     1       8.375   1.823  22.097  0.00  0.00    +0.144 HD
ATOM     10  C   UNL     1       7.897  -1.287  23.027  0.00  0.00    +0.147 A 
ATOM     11  N   UNL     1       6.619  -1.553  23.479  0.00  0.00    -0.231 NA
ATOM     12  C   UNL     1       6.667  -2.797  23.909  0.00  0.00    +0.201 A 
ENDROOT
BRANCH   1  13
ATOM     13  C   UNL     1       8.292  -4.696  24.086  0.00  0.00    +0.155 C 
BRANCH  13  15
ATOM     14  C   UNL     1       8.124  -5.223  26.574  0.00  0.00    +0.039 C 
ATOM     15  C   UNL     1       9.042  -4.864  25.412  0.00  0.00    +0.131 C 
BRANCH  15  16
ATOM     16  O   UNL     1       9.993  -5.922  25.249  0.00  0.00    -0.390 OA
ATOM     17  H   UNL     1      10.873  -5.553  25.438  0.00  0.00    +0.210 HD
ENDBRANCH  15  16
ENDBRANCH  13  15
ENDBRANCH   1  13
TORSDOF 3
ENDMDL
MODEL 9
REMARK VINA RESULT:      -4.9      2.331      2.729
REMARK  Name = 
REMARK  4 active torsions:
REMARK  status: ('A' for Active; 'I' for Inactive)
REMARK    1  A    between atoms: C_1  and  C_2
REMARK    2  A    between atoms: C_2  and  O_4
REMARK    3  A    between atoms: C_2  and  C_5
REMARK    4  A    between atoms: C_5  and  N_6
REMARK                            x       y       z     vdW  Elec       q    Type
REMARK                         _______ _______ _______ _____ _____    ______ ____
ROOT
ATOM      1  N   UNL     1       8.516  -1.735  22.994  0.00  0.00    -0.312 N 
ATOM      2  C   UNL     1       8.120  -0.453  22.730  0.00  0.00    +0.165 A 
ATOM      3  N   UNL     1       6.880   0.058  22.796  0.00  0.00    -0.216 NA
ATOM      4  C   UNL     1       6.883   1.364  22.459  0.00  0.00    +0.225 A 
ATOM      5  N   UNL     1       7.931   2.136  22.096  0.00  0.00    -0.219 NA
ATOM      6  C   UNL     1       9.161   1.576  22.065  0.00  0.00    +0.147 A 
ATOM      7  N   UNL     1      10.240   2.376  21.716  0.00  0.00    -0.341 N 
ATOM      8  H   UNL     1      11.045   1.854  21.389  0.00  0.00    +0.144 HD
ATOM      9  H   UNL     1       9.961   3.197  21.196  0.00  0.00    +0.144 HD
ATOM     10  C   UNL     1       9.284   0.210  22.373  0.00  0.00    +0.147 A 
ATOM     11  N   UNL     1      10.364  -0.651  22.388  0.00  0.00    -0.231 NA
ATOM     12  C   UNL     1       9.865  -1.808  22.773  0.00  0.00    +0.201 A 
ENDROOT
BRANCH   1  13
ATOM     13  C   UNL     1       7.678  -2.808  23.475  0.00  0.00    +0.155 C 
BRANCH  13  15
ATOM     14  C   UNL     1       6.606  -5.015  22.785  0.00  0.00    +0.039 C 
ATOM     15  C   UNL     1       6.924  -3.579  22.386  0.00  0.00    +0.131 C 
BRANCH  15  16
ATOM     16  O   UNL     1       5.689  -2.899  22.139  0.00  0.00    -0.390 OA
ATOM     17  H   UNL     1       5.897  -1.959  22.002  0.00  0.00    +0.210 HD
ENDBRANCH  15  16
ENDBRANCH  13  15
ENDBRANCH   1  13
TORSDOF 3
ENDMDL
