MODEL 1
REMARK VINA RESULT:      -8.4      0.000      0.000
REMARK  Name = 
REMARK  11 active torsions:
REMARK  status: ('A' for Active; 'I' for Inactive)
REMARK    1  A    between atoms: C_1  and  C_9
REMARK    2  A    between atoms: C_2  and  C_3
REMARK    3  A    between atoms: C_9  and  C_10
REMARK    4  A    between atoms: C_10  and  C_11
REMARK    5  A    between atoms: C_10  and  C_25
REMARK    6  A    between atoms: C_10  and  N_34
REMARK    7  A    between atoms: C_11  and  C_12
REMARK    8  A    between atoms: C_15  and  C_18
REMARK    9  A    between atoms: C_18  and  P_21
REMARK   10  A    between atoms: P_21  and  O_22
REMARK   11  A    between atoms: P_21  and  O_23
REMARK                            x       y       z     vdW  Elec       q    Type
REMARK                         _______ _______ _______ _____ _____    ______ ____
ROOT
ATOM      1  C   UNL     1       8.722  -1.782  23.778  0.00  0.00    +0.121 C 
ENDROOT
BRANCH   1   2
ATOM      2  N   UNL     1       8.855  -3.039  24.593  0.00  0.00    -0.231 N 
ATOM      3  C   UNL     1       7.986  -3.613  25.516  0.00  0.00    +0.090 A 
ATOM      4  C   UNL     1       6.741  -3.288  26.073  0.00  0.00    +0.029 A 
ATOM      5  C   UNL     1       6.241  -4.137  27.079  0.00  0.00    +0.002 A 
ATOM      6  C   UNL     1       6.921  -5.281  27.485  0.00  0.00    +0.002 A 
ATOM      7  C   UNL     1       8.111  -5.641  26.858  0.00  0.00    +0.032 A 
ATOM      8  C   UNL     1       8.648  -4.787  25.887  0.00  0.00    +0.113 A 
ATOM      9  N   UNL     1       9.820  -4.895  25.212  0.00  0.00    -0.129 NA
ATOM     10  N   UNL     1       9.924  -3.851  24.420  0.00  0.00    -0.064 NA
ENDBRANCH   1   2
BRANCH   1  11
ATOM     11  C   UNL     1       7.829  -0.717  24.532  0.00  0.00    +0.108 A 
ATOM     12  S   UNL     1       8.275  -0.024  26.060  0.00  0.00    -0.070 S 
ATOM     13  C   UNL     1       7.155   1.276  25.824  0.00  0.00    +0.039 A 
ATOM     14  C   UNL     1       6.938   2.438  26.581  0.00  0.00    +0.017 A 
ATOM     15  C   UNL     1       6.057   3.408  26.075  0.00  0.00    +0.001 A 
ATOM     16  C   UNL     1       5.379   3.213  24.877  0.00  0.00    +0.002 A 
ATOM     17  C   UNL     1       5.541   2.021  24.174  0.00  0.00    +0.029 A 
ATOM     18  C   UNL     1       6.442   1.045  24.654  0.00  0.00    +0.079 A 
ATOM     19  N   UNL     1       6.773  -0.117  24.004  0.00  0.00    -0.242 NA
ENDBRANCH   1  11
BRANCH   1  20
ATOM     20  C   UNL     1      10.156  -1.207  23.493  0.00  0.00    +0.064 C 
BRANCH  20  21
ATOM     21  C   UNL     1      10.304   0.283  23.649  0.00  0.00    -0.023 C 
ATOM     22  C   UNL     1      10.041   1.183  22.690  0.00  0.00    +0.004 C 
BRANCH  22  23
ATOM     23  C   UNL     1      10.084   2.604  23.030  0.00  0.00    -0.025 A 
ATOM     24  C   UNL     1       8.874   3.265  23.264  0.00  0.00    +0.008 A 
ATOM     25  C   UNL     1       8.871   4.596  23.677  0.00  0.00    +0.001 A 
ATOM     26  C   UNL     1      10.077   5.272  23.866  0.00  0.00    +0.000 A 
ATOM     27  C   UNL     1      11.288   4.614  23.631  0.00  0.00    +0.001 A 
ATOM     28  C   UNL     1      11.294   3.281  23.215  0.00  0.00    +0.008 A 
ENDBRANCH  22  23
ENDBRANCH  20  21
ENDBRANCH   1  20
BRANCH   1  29
ATOM     29  C   UNL     1       8.053  -2.103  22.348  0.00  0.00    +0.072 C 
BRANCH  29  30
ATOM     30  C   UNL     1       6.989  -3.194  22.269  0.00  0.00    -0.045 A 
ATOM     31  C   UNL     1       7.314  -4.549  22.195  0.00  0.00    +0.004 A 
ATOM     32  C   UNL     1       6.359  -5.510  22.545  0.00  0.00    +0.010 A 
ATOM     33  C   UNL     1       5.118  -5.096  23.063  0.00  0.00    +0.033 A 
ATOM     34  C   UNL     1       4.727  -3.779  22.876  0.00  0.00    +0.010 A 
ATOM     35  C   UNL     1       5.639  -2.871  22.369  0.00  0.00    +0.004 A 
BRANCH  33  36
ATOM     36  C   UNL     1       4.466  -5.868  24.186  0.00  0.00    +0.371 C 
ATOM     37  F   UNL     1       4.101  -5.154  25.286  0.00  0.00    -0.187 F 
ATOM     38  F   UNL     1       5.129  -6.975  24.624  0.00  0.00    -0.187 F 
BRANCH  36  39
ATOM     39  P   UNL     1       2.927  -6.584  23.502  0.00  0.00    +0.401 P 
ATOM     40  O   UNL     1       1.625  -7.189  22.923  0.00  0.00    -0.252 OA
BRANCH  39  41
ATOM     41  O   UNL     1       2.152  -6.090  24.904  0.00  0.00    -0.320 OA
ATOM     42  H   UNL     1       2.533  -5.238  25.195  0.00  0.00    +0.220 HD
ENDBRANCH  39  41
BRANCH  39  43
ATOM     43  O   UNL     1       3.394  -8.059  24.141  0.00  0.00    -0.320 OA
ATOM     44  H   UNL     1       4.114  -7.974  24.801  0.00  0.00    +0.220 HD
ENDBRANCH  39  43
ENDBRANCH  36  39
ENDBRANCH  33  36
ENDBRANCH  29  30
ENDBRANCH   1  29
TORSDOF 11
ENDMDL
MODEL 2
REMARK VINA RESULT:      -8.0      5.221      7.930
REMARK  Name = 
REMARK  11 active torsions:
REMARK  status: ('A' for Active; 'I' for Inactive)
REMARK    1  A    between atoms: C_1  and  C_9
REMARK    2  A    between atoms: C_2  and  C_3
REMARK    3  A    between atoms: C_9  and  C_10
REMARK    4  A    between atoms: C_10  and  C_11
REMARK    5  A    between atoms: C_10  and  C_25
REMARK    6  A    between atoms: C_10  and  N_34
REMARK    7  A    between atoms: C_11  and  C_12
REMARK    8  A    between atoms: C_15  and  C_18
REMARK    9  A    between atoms: C_18  and  P_21
REMARK   10  A    between atoms: P_21  and  O_22
REMARK   11  A    between atoms: P_21  and  O_23
REMARK                            x       y       z     vdW  Elec       q    Type
REMARK                         _______ _______ _______ _____ _____    ______ ____
ROOT
ATOM      1  C   UNL     1       8.151  -2.187  23.976  0.00  0.00    +0.121 C 
ENDROOT
BRANCH   1   2
ATOM      2  N   UNL     1       7.411  -3.386  23.450  0.00  0.00    -0.231 N 
ATOM      3  C   UNL     1       6.064  -3.726  23.537  0.00  0.00    +0.090 A 
ATOM      4  C   UNL     1       4.918  -3.178  24.130  0.00  0.00    +0.029 A 
ATOM      5  C   UNL     1       3.726  -3.924  24.045  0.00  0.00    +0.002 A 
ATOM      6  C   UNL     1       3.662  -5.136  23.366  0.00  0.00    +0.002 A 
ATOM      7  C   UNL     1       4.786  -5.624  22.704  0.00  0.00    +0.032 A 
ATOM      8  C   UNL     1       5.991  -4.919  22.814  0.00  0.00    +0.113 A 
ATOM      9  N   UNL     1       7.215  -5.245  22.325  0.00  0.00    -0.129 NA
ATOM     10  N   UNL     1       8.056  -4.305  22.694  0.00  0.00    -0.064 NA
ENDBRANCH   1   2
BRANCH   1  11
ATOM     11  C   UNL     1       7.233  -0.900  23.936  0.00  0.00    +0.108 A 
ATOM     12  S   UNL     1       6.754  -0.038  25.365  0.00  0.00    -0.070 S 
ATOM     13  C   UNL     1       6.339   1.350  24.416  0.00  0.00    +0.039 A 
ATOM     14  C   UNL     1       5.946   2.638  24.812  0.00  0.00    +0.017 A 
ATOM     15  C   UNL     1       5.809   3.627  23.824  0.00  0.00    +0.001 A 
ATOM     16  C   UNL     1       6.012   3.338  22.480  0.00  0.00    +0.002 A 
ATOM     17  C   UNL     1       6.323   2.036  22.090  0.00  0.00    +0.029 A 
ATOM     18  C   UNL     1       6.490   1.035  23.071  0.00  0.00    +0.079 A 
ATOM     19  N   UNL     1       6.901  -0.252  22.830  0.00  0.00    -0.242 NA
ENDBRANCH   1  11
BRANCH   1  20
ATOM     20  C   UNL     1       8.628  -2.488  25.443  0.00  0.00    +0.064 C 
BRANCH  20  21
ATOM     21  C   UNL     1       7.912  -3.613  26.142  0.00  0.00    -0.023 C 
ATOM     22  C   UNL     1       6.819  -3.468  26.904  0.00  0.00    +0.004 C 
BRANCH  22  23
ATOM     23  C   UNL     1       6.143  -4.667  27.397  0.00  0.00    -0.025 A 
ATOM     24  C   UNL     1       5.704  -4.682  28.724  0.00  0.00    +0.008 A 
ATOM     25  C   UNL     1       4.977  -5.766  29.211  0.00  0.00    +0.001 A 
ATOM     26  C   UNL     1       4.678  -6.840  28.372  0.00  0.00    +0.000 A 
ATOM     27  C   UNL     1       5.118  -6.829  27.044  0.00  0.00    +0.001 A 
ATOM     28  C   UNL     1       5.848  -5.744  26.555  0.00  0.00    +0.008 A 
ENDBRANCH  22  23
ENDBRANCH  20  21
ENDBRANCH   1  20
BRANCH   1  29
ATOM     29  C   UNL     1       9.475  -1.910  23.100  0.00  0.00    +0.072 C 
BRANCH  29  30
ATOM     30  C   UNL     1      10.056  -0.500  23.082  0.00  0.00    -0.045 A 
ATOM     31  C   UNL     1       9.944   0.339  21.971  0.00  0.00    +0.004 A 
ATOM     32  C   UNL     1      10.099   1.720  22.129  0.00  0.00    +0.010 A 
ATOM     33  C   UNL     1      10.265   2.256  23.418  0.00  0.00    +0.033 A 
ATOM     34  C   UNL     1      10.635   1.405  24.449  0.00  0.00    +0.010 A 
ATOM     35  C   UNL     1      10.637   0.039  24.226  0.00  0.00    +0.004 A 
BRANCH  33  36
ATOM     36  C   UNL     1       9.601   3.560  23.793  0.00  0.00    +0.371 C 
ATOM     37  F   UNL     1       8.921   3.583  24.972  0.00  0.00    -0.187 F 
ATOM     38  F   UNL     1       8.792   4.120  22.849  0.00  0.00    -0.187 F 
BRANCH  36  39
ATOM     39  P   UNL     1      10.936   4.802  23.944  0.00  0.00    +0.401 P 
ATOM     40  O   UNL     1      12.066   5.852  24.073  0.00  0.00    -0.252 OA
BRANCH  39  41
ATOM     41  O   UNL     1       9.949   5.869  23.110  0.00  0.00    -0.320 OA
ATOM     42  H   UNL     1       9.774   6.648  23.674  0.00  0.00    +0.220 HD
ENDBRANCH  39  41
BRANCH  39  43
ATOM     43  O   UNL     1      11.615   4.160  22.556  0.00  0.00    -0.320 OA
ATOM     44  H   UNL     1      12.351   3.542  22.745  0.00  0.00    +0.220 HD
ENDBRANCH  39  43
ENDBRANCH  36  39
ENDBRANCH  33  36
ENDBRANCH  29  30
ENDBRANCH   1  29
TORSDOF 11
ENDMDL
MODEL 3
REMARK VINA RESULT:      -8.0      2.321      5.680
REMARK  Name = 
REMARK  11 active torsions:
REMARK  status: ('A' for Active; 'I' for Inactive)
REMARK    1  A    between atoms: C_1  and  C_9
REMARK    2  A    between atoms: C_2  and  C_3
REMARK    3  A    between atoms: C_9  and  C_10
REMARK    4  A    between atoms: C_10  and  C_11
REMARK    5  A    between atoms: C_10  and  C_25
REMARK    6  A    between atoms: C_10  and  N_34
REMARK    7  A    between atoms: C_11  and  C_12
REMARK    8  A    between atoms: C_15  and  C_18
REMARK    9  A    between atoms: C_18  and  P_21
REMARK   10  A    between atoms: P_21  and  O_22
REMARK   11  A    between atoms: P_21  and  O_23
REMARK                            x       y       z     vdW  Elec       q    Type
REMARK                         _______ _______ _______ _____ _____    ______ ____
ROOT
ATOM      1  C   UNL     1       7.719   0.174  24.111  0.00  0.00    +0.121 C 
ENDROOT
BRANCH   1   2
ATOM      2  N   UNL     1       7.330   1.356  23.265  0.00  0.00    -0.231 N 
ATOM      3  C   UNL     1       6.856   2.612  23.632  0.00  0.00    +0.090 A 
ATOM      4  C   UNL     1       6.523   3.258  24.831  0.00  0.00    +0.029 A 
ATOM      5  C   UNL     1       5.973   4.551  24.737  0.00  0.00    +0.002 A 
ATOM      6  C   UNL     1       5.803   5.194  23.515  0.00  0.00    +0.002 A 
ATOM      7  C   UNL     1       6.223   4.576  22.340  0.00  0.00    +0.032 A 
ATOM      8  C   UNL     1       6.730   3.273  22.407  0.00  0.00    +0.113 A 
ATOM      9  N   UNL     1       7.121   2.458  21.395  0.00  0.00    -0.129 NA
ATOM     10  N   UNL     1       7.501   1.316  21.923  0.00  0.00    -0.064 NA
ENDBRANCH   1   2
BRANCH   1  11
ATOM     11  C   UNL     1       7.356  -1.181  23.382  0.00  0.00    +0.108 A 
ATOM     12  S   UNL     1       8.553  -2.343  22.901  0.00  0.00    -0.070 S 
ATOM     13  C   UNL     1       7.339  -3.570  22.759  0.00  0.00    +0.039 A 
ATOM     14  C   UNL     1       7.461  -4.946  22.510  0.00  0.00    +0.017 A 
ATOM     15  C   UNL     1       6.307  -5.743  22.594  0.00  0.00    +0.001 A 
ATOM     16  C   UNL     1       5.064  -5.188  22.872  0.00  0.00    +0.002 A 
ATOM     17  C   UNL     1       4.942  -3.809  23.038  0.00  0.00    +0.029 A 
ATOM     18  C   UNL     1       6.093  -2.995  22.983  0.00  0.00    +0.079 A 
ATOM     19  N   UNL     1       6.125  -1.647  23.237  0.00  0.00    -0.242 NA
ENDBRANCH   1  11
BRANCH   1  20
ATOM     20  C   UNL     1       9.259   0.252  24.415  0.00  0.00    +0.064 C 
BRANCH  20  21
ATOM     21  C   UNL     1       9.844   1.638  24.462  0.00  0.00    -0.023 C 
ATOM     22  C   UNL     1      10.456   2.247  23.436  0.00  0.00    +0.004 C 
BRANCH  22  23
ATOM     23  C   UNL     1      10.840   3.649  23.580  0.00  0.00    -0.025 A 
ATOM     24  C   UNL     1       9.895   4.547  24.087  0.00  0.00    +0.008 A 
ATOM     25  C   UNL     1      10.244   5.874  24.324  0.00  0.00    +0.001 A 
ATOM     26  C   UNL     1      11.544   6.312  24.062  0.00  0.00    +0.000 A 
ATOM     27  C   UNL     1      12.490   5.418  23.554  0.00  0.00    +0.001 A 
ATOM     28  C   UNL     1      12.142   4.087  23.313  0.00  0.00    +0.008 A 
ENDBRANCH  22  23
ENDBRANCH  20  21
ENDBRANCH   1  20
BRANCH   1  29
ATOM     29  C   UNL     1       6.959   0.221  25.532  0.00  0.00    +0.072 C 
BRANCH  29  30
ATOM     30  C   UNL     1       6.887  -1.056  26.362  0.00  0.00    -0.045 A 
ATOM     31  C   UNL     1       5.746  -1.415  27.083  0.00  0.00    +0.004 A 
ATOM     32  C   UNL     1       5.562  -2.746  27.470  0.00  0.00    +0.010 A 
ATOM     33  C   UNL     1       6.477  -3.725  27.042  0.00  0.00    +0.033 A 
ATOM     34  C   UNL     1       7.715  -3.315  26.570  0.00  0.00    +0.010 A 
ATOM     35  C   UNL     1       7.938  -1.968  26.348  0.00  0.00    +0.004 A 
BRANCH  33  36
ATOM     36  C   UNL     1       5.991  -5.096  26.634  0.00  0.00    +0.371 C 
ATOM     37  F   UNL     1       6.847  -5.852  25.893  0.00  0.00    -0.187 F 
ATOM     38  F   UNL     1       4.773  -5.150  26.025  0.00  0.00    -0.187 F 
BRANCH  36  39
ATOM     39  P   UNL     1       5.690  -6.025  28.182  0.00  0.00    +0.401 P 
ATOM     40  O   UNL     1       5.436  -6.810  29.491  0.00  0.00    -0.252 OA
BRANCH  39  41
ATOM     41  O   UNL     1       7.319  -6.421  28.183  0.00  0.00    -0.320 OA
ATOM     42  H   UNL     1       7.837  -5.637  27.915  0.00  0.00    +0.220 HD
ENDBRANCH  39  41
BRANCH  39  43
ATOM     43  O   UNL     1       5.251  -7.339  27.243  0.00  0.00    -0.320 OA
ATOM     44  H   UNL     1       5.972  -7.997  27.151  0.00  0.00    +0.220 HD
ENDBRANCH  39  43
ENDBRANCH  36  39
ENDBRANCH  33  36
ENDBRANCH  29  30
ENDBRANCH   1  29
TORSDOF 11
ENDMDL
MODEL 4
REMARK VINA RESULT:      -7.9      2.497      5.450
REMARK  Name = 
REMARK  11 active torsions:
REMARK  status: ('A' for Active; 'I' for Inactive)
REMARK    1  A    between atoms: C_1  and  C_9
REMARK    2  A    between atoms: C_2  and  C_3
REMARK    3  A    between atoms: C_9  and  C_10
REMARK    4  A    between atoms: C_10  and  C_11
REMARK    5  A    between atoms: C_10  and  C_25
REMARK    6  A    between atoms: C_10  and  N_34
REMARK    7  A    between atoms: C_11  and  C_12
REMARK    8  A    between atoms: C_15  and  C_18
REMARK    9  A    between atoms: C_18  and  P_21
REMARK   10  A    between atoms: P_21  and  O_22
REMARK   11  A    between atoms: P_21  and  O_23
REMARK                            x       y       z     vdW  Elec       q    Type
REMARK                         _______ _______ _______ _____ _____    ______ ____
ROOT
ATOM      1  C   UNL     1       8.106  -0.640  24.992  0.00  0.00    +0.121 C 
ENDROOT
BRANCH   1   2
ATOM      2  N   UNL     1       7.253   0.599  25.014  0.00  0.00    -0.231 N 
ATOM      3  C   UNL     1       6.848   1.435  23.977  0.00  0.00    +0.090 A 
ATOM      4  C   UNL     1       7.065   1.512  22.595  0.00  0.00    +0.029 A 
ATOM      5  C   UNL     1       6.515   2.615  21.914  0.00  0.00    +0.002 A 
ATOM      6  C   UNL     1       5.747   3.575  22.564  0.00  0.00    +0.002 A 
ATOM      7  C   UNL     1       5.462   3.437  23.921  0.00  0.00    +0.032 A 
ATOM      8  C   UNL     1       6.037   2.371  24.625  0.00  0.00    +0.113 A 
ATOM      9  N   UNL     1       5.964   2.090  25.950  0.00  0.00    -0.129 NA
ATOM     10  N   UNL     1       6.680   1.009  26.170  0.00  0.00    -0.064 NA
ENDBRANCH   1   2
BRANCH   1  11
ATOM     11  C   UNL     1       7.574  -1.666  23.913  0.00  0.00    +0.108 A 
ATOM     12  S   UNL     1       8.626  -2.683  22.979  0.00  0.00    -0.070 S 
ATOM     13  C   UNL     1       7.303  -3.726  22.579  0.00  0.00    +0.039 A 
ATOM     14  C   UNL     1       7.286  -4.954  21.901  0.00  0.00    +0.017 A 
ATOM     15  C   UNL     1       6.076  -5.667  21.842  0.00  0.00    +0.001 A 
ATOM     16  C   UNL     1       4.910  -5.157  22.399  0.00  0.00    +0.002 A 
ATOM     17  C   UNL     1       4.921  -3.898  22.999  0.00  0.00    +0.029 A 
ATOM     18  C   UNL     1       6.132  -3.179  23.091  0.00  0.00    +0.079 A 
ATOM     19  N   UNL     1       6.300  -1.988  23.750  0.00  0.00    -0.242 NA
ENDBRANCH   1  11
BRANCH   1  20
ATOM     20  C   UNL     1       9.591  -0.228  24.688  0.00  0.00    +0.064 C 
BRANCH  20  21
ATOM     21  C   UNL     1       9.858   1.253  24.632  0.00  0.00    -0.023 C 
ATOM     22  C   UNL     1      10.510   1.876  23.639  0.00  0.00    +0.004 C 
BRANCH  22  23
ATOM     23  C   UNL     1      10.563   3.336  23.643  0.00  0.00    -0.025 A 
ATOM     24  C   UNL     1       9.428   4.040  24.059  0.00  0.00    +0.008 A 
ATOM     25  C   UNL     1       9.461   5.428  24.163  0.00  0.00    +0.001 A 
ATOM     26  C   UNL     1      10.633   6.123  23.859  0.00  0.00    +0.000 A 
ATOM     27  C   UNL     1      11.769   5.423  23.440  0.00  0.00    +0.001 A 
ATOM     28  C   UNL     1      11.736   4.032  23.334  0.00  0.00    +0.008 A 
ENDBRANCH  22  23
ENDBRANCH  20  21
ENDBRANCH   1  20
BRANCH   1  29
ATOM     29  C   UNL     1       8.103  -1.354  26.436  0.00  0.00    +0.072 C 
BRANCH  29  30
ATOM     30  C   UNL     1       7.271  -2.618  26.623  0.00  0.00    -0.045 A 
ATOM     31  C   UNL     1       7.815  -3.897  26.492  0.00  0.00    +0.004 A 
ATOM     32  C   UNL     1       7.161  -4.990  27.069  0.00  0.00    +0.010 A 
ATOM     33  C   UNL     1       6.017  -4.776  27.859  0.00  0.00    +0.033 A 
ATOM     34  C   UNL     1       5.356  -3.561  27.753  0.00  0.00    +0.010 A 
ATOM     35  C   UNL     1       5.944  -2.535  27.035  0.00  0.00    +0.004 A 
BRANCH  33  36
ATOM     36  C   UNL     1       5.794  -5.587  29.113  0.00  0.00    +0.371 C 
ATOM     37  F   UNL     1       5.609  -4.889  30.267  0.00  0.00    -0.187 F 
ATOM     38  F   UNL     1       6.708  -6.564  29.373  0.00  0.00    -0.187 F 
BRANCH  36  39
ATOM     39  P   UNL     1       4.263  -6.553  28.844  0.00  0.00    +0.401 P 
ATOM     40  O   UNL     1       2.967  -7.369  28.616  0.00  0.00    -0.252 OA
BRANCH  39  41
ATOM     41  O   UNL     1       4.348  -7.013  30.454  0.00  0.00    -0.320 OA
ATOM     42  H   UNL     1       3.480  -6.858  30.875  0.00  0.00    +0.220 HD
ENDBRANCH  39  41
BRANCH  39  43
ATOM     43  O   UNL     1       5.220  -7.818  28.311  0.00  0.00    -0.320 OA
ATOM     44  H   UNL     1       5.053  -8.651  28.799  0.00  0.00    +0.220 HD
ENDBRANCH  39  43
ENDBRANCH  36  39
ENDBRANCH  33  36
ENDBRANCH  29  30
ENDBRANCH   1  29
TORSDOF 11
ENDMDL
MODEL 5
REMARK VINA RESULT:      -7.9      1.374      1.747
REMARK  Name = 
REMARK  11 active torsions:
REMARK  status: ('A' for Active; 'I' for Inactive)
REMARK    1  A    between atoms: C_1  and  C_9
REMARK    2  A    between atoms: C_2  and  C_3
REMARK    3  A    between atoms: C_9  and  C_10
REMARK    4  A    between atoms: C_10  and  C_11
REMARK    5  A    between atoms: C_10  and  C_25
REMARK    6  A    between atoms: C_10  and  N_34
REMARK    7  A    between atoms: C_11  and  C_12
REMARK    8  A    between atoms: C_15  and  C_18
REMARK    9  A    between atoms: C_18  and  P_21
REMARK   10  A    between atoms: P_21  and  O_22
REMARK   11  A    between atoms: P_21  and  O_23
REMARK                            x       y       z     vdW  Elec       q    Type
REMARK                         _______ _______ _______ _____ _____    ______ ____
ROOT
ATOM      1  C   UNL     1       8.116  -0.812  24.403  0.00  0.00    +0.121 C 
ENDROOT
BRANCH   1   2
ATOM      2  N   UNL     1       7.689  -1.869  25.385  0.00  0.00    -0.231 N 
ATOM      3  C   UNL     1       6.420  -2.223  25.833  0.00  0.00    +0.090 A 
ATOM      4  C   UNL     1       5.109  -1.773  25.623  0.00  0.00    +0.029 A 
ATOM      5  C   UNL     1       4.087  -2.383  26.377  0.00  0.00    +0.002 A 
ATOM      6  C   UNL     1       4.345  -3.422  27.266  0.00  0.00    +0.002 A 
ATOM      7  C   UNL     1       5.639  -3.920  27.396  0.00  0.00    +0.032 A 
ATOM      8  C   UNL     1       6.676  -3.298  26.689  0.00  0.00    +0.113 A 
ATOM      9  N   UNL     1       8.007  -3.560  26.724  0.00  0.00    -0.129 NA
ATOM     10  N   UNL     1       8.604  -2.710  25.919  0.00  0.00    -0.064 NA
ENDBRANCH   1   2
BRANCH   1  11
ATOM     11  C   UNL     1       7.106   0.403  24.412  0.00  0.00    +0.108 A 
ATOM     12  S   UNL     1       6.794   1.360  25.827  0.00  0.00    -0.070 S 
ATOM     13  C   UNL     1       6.125   2.626  24.853  0.00  0.00    +0.039 A 
ATOM     14  C   UNL     1       5.701   3.917  25.204  0.00  0.00    +0.017 A 
ATOM     15  C   UNL     1       5.331   4.800  24.177  0.00  0.00    +0.001 A 
ATOM     16  C   UNL     1       5.340   4.403  22.845  0.00  0.00    +0.002 A 
ATOM     17  C   UNL     1       5.686   3.094  22.514  0.00  0.00    +0.029 A 
ATOM     18  C   UNL     1       6.085   2.199  23.531  0.00  0.00    +0.079 A 
ATOM     19  N   UNL     1       6.552   0.926  23.329  0.00  0.00    -0.242 NA
ENDBRANCH   1  11
BRANCH   1  20
ATOM     20  C   UNL     1       9.568  -0.336  24.769  0.00  0.00    +0.064 C 
BRANCH  20  21
ATOM     21  C   UNL     1       9.816   1.145  24.656  0.00  0.00    -0.023 C 
ATOM     22  C   UNL     1      10.422   1.743  23.620  0.00  0.00    +0.004 C 
BRANCH  22  23
ATOM     23  C   UNL     1      10.458   3.203  23.577  0.00  0.00    -0.025 A 
ATOM     24  C   UNL     1       9.275   3.903  23.834  0.00  0.00    +0.008 A 
ATOM     25  C   UNL     1       9.282   5.295  23.890  0.00  0.00    +0.001 A 
ATOM     26  C   UNL     1      10.473   5.996  23.696  0.00  0.00    +0.000 A 
ATOM     27  C   UNL     1      11.657   5.299  23.436  0.00  0.00    +0.001 A 
ATOM     28  C   UNL     1      11.652   3.904  23.377  0.00  0.00    +0.008 A 
ENDBRANCH  22  23
ENDBRANCH  20  21
ENDBRANCH   1  20
BRANCH   1  29
ATOM     29  C   UNL     1       8.185  -1.421  22.912  0.00  0.00    +0.072 C 
BRANCH  29  30
ATOM     30  C   UNL     1       7.433  -2.715  22.617  0.00  0.00    -0.045 A 
ATOM     31  C   UNL     1       8.030  -3.970  22.745  0.00  0.00    +0.004 A 
ATOM     32  C   UNL     1       7.227  -5.108  22.880  0.00  0.00    +0.010 A 
ATOM     33  C   UNL     1       5.832  -4.962  22.988  0.00  0.00    +0.033 A 
ATOM     34  C   UNL     1       5.258  -3.762  22.596  0.00  0.00    +0.010 A 
ATOM     35  C   UNL     1       6.077  -2.687  22.303  0.00  0.00    +0.004 A 
BRANCH  33  36
ATOM     36  C   UNL     1       5.045  -5.838  23.935  0.00  0.00    +0.371 C 
ATOM     37  F   UNL     1       5.378  -5.767  25.253  0.00  0.00    -0.187 F 
ATOM     38  F   UNL     1       4.963  -7.159  23.609  0.00  0.00    -0.187 F 
BRANCH  36  39
ATOM     39  P   UNL     1       3.300  -5.301  23.815  0.00  0.00    +0.401 P 
ATOM     40  O   UNL     1       1.824  -4.845  23.713  0.00  0.00    -0.252 OA
BRANCH  39  41
ATOM     41  O   UNL     1       3.027  -6.085  25.271  0.00  0.00    -0.320 OA
ATOM     42  H   UNL     1       2.170  -6.554  25.224  0.00  0.00    +0.220 HD
ENDBRANCH  39  41
BRANCH  39  43
ATOM     43  O   UNL     1       3.002  -6.663  22.890  0.00  0.00    -0.320 OA
ATOM     44  H   UNL     1       3.393  -6.605  21.993  0.00  0.00    +0.220 HD
ENDBRANCH  39  43
ENDBRANCH  36  39
ENDBRANCH  33  36
ENDBRANCH  29  30
ENDBRANCH   1  29
TORSDOF 11
ENDMDL
MODEL 6
REMARK VINA RESULT:      -7.8      4.357      8.524
REMARK  Name = 
REMARK  11 active torsions:
REMARK  status: ('A' for Active; 'I' for Inactive)
REMARK    1  A    between atoms: C_1  and  C_9
REMARK    2  A    between atoms: C_2  and  C_3
REMARK    3  A    between atoms: C_9  and  C_10
REMARK    4  A    between atoms: C_10  and  C_11
REMARK    5  A    between atoms: C_10  and  C_25
REMARK    6  A    between atoms: C_10  and  N_34
REMARK    7  A    between atoms: C_11  and  C_12
REMARK    8  A    between atoms: C_15  and  C_18
REMARK    9  A    between atoms: C_18  and  P_21
REMARK   10  A    between atoms: P_21  and  O_22
REMARK   11  A    between atoms: P_21  and  O_23
REMARK                            x       y       z     vdW  Elec       q    Type
REMARK                         _______ _______ _______ _____ _____    ______ ____
ROOT
ATOM      1  C   UNL     1       6.870  -2.344  25.738  0.00  0.00    +0.121 C 
ENDROOT
BRANCH   1   2
ATOM      2  N   UNL     1       6.343  -0.935  25.699  0.00  0.00    -0.231 N 
ATOM      3  C   UNL     1       6.490   0.109  26.608  0.00  0.00    +0.090 A 
ATOM      4  C   UNL     1       7.098   0.285  27.859  0.00  0.00    +0.029 A 
ATOM      5  C   UNL     1       6.921   1.530  28.494  0.00  0.00    +0.002 A 
ATOM      6  C   UNL     1       6.213   2.569  27.898  0.00  0.00    +0.002 A 
ATOM      7  C   UNL     1       5.692   2.410  26.616  0.00  0.00    +0.032 A 
ATOM      8  C   UNL     1       5.819   1.166  25.986  0.00  0.00    +0.113 A 
ATOM      9  N   UNL     1       5.326   0.765  24.787  0.00  0.00    -0.129 NA
ATOM     10  N   UNL     1       5.667  -0.492  24.614  0.00  0.00    -0.064 NA
ENDBRANCH   1   2
BRANCH   1  11
ATOM     11  C   UNL     1       6.171  -3.171  26.890  0.00  0.00    +0.108 A 
ATOM     12  S   UNL     1       4.530  -2.898  27.385  0.00  0.00    -0.070 S 
ATOM     13  C   UNL     1       4.480  -4.449  28.157  0.00  0.00    +0.039 A 
ATOM     14  C   UNL     1       3.410  -5.134  28.753  0.00  0.00    +0.017 A 
ATOM     15  C   UNL     1       3.619  -6.456  29.178  0.00  0.00    +0.001 A 
ATOM     16  C   UNL     1       4.862  -7.065  29.057  0.00  0.00    +0.002 A 
ATOM     17  C   UNL     1       5.939  -6.348  28.537  0.00  0.00    +0.029 A 
ATOM     18  C   UNL     1       5.741  -5.027  28.080  0.00  0.00    +0.079 A 
ATOM     19  N   UNL     1       6.685  -4.255  27.451  0.00  0.00    -0.242 NA
ENDBRANCH   1  11
BRANCH   1  20
ATOM     20  C   UNL     1       6.626  -3.016  24.339  0.00  0.00    +0.064 C 
BRANCH  20  21
ATOM     21  C   UNL     1       5.453  -3.957  24.265  0.00  0.00    -0.023 C 
ATOM     22  C   UNL     1       5.547  -5.291  24.172  0.00  0.00    +0.004 C 
BRANCH  22  23
ATOM     23  C   UNL     1       4.325  -6.088  24.261  0.00  0.00    -0.025 A 
ATOM     24  C   UNL     1       3.398  -5.998  23.218  0.00  0.00    +0.008 A 
ATOM     25  C   UNL     1       2.262  -6.804  23.216  0.00  0.00    +0.001 A 
ATOM     26  C   UNL     1       2.048  -7.712  24.255  0.00  0.00    +0.000 A 
ATOM     27  C   UNL     1       2.972  -7.803  25.301  0.00  0.00    +0.001 A 
ATOM     28  C   UNL     1       4.110  -6.994  25.305  0.00  0.00    +0.008 A 
ENDBRANCH  22  23
ENDBRANCH  20  21
ENDBRANCH   1  20
BRANCH   1  29
ATOM     29  C   UNL     1       8.462  -2.345  25.988  0.00  0.00    +0.072 C 
BRANCH  29  30
ATOM     30  C   UNL     1       9.348  -1.530  25.052  0.00  0.00    -0.045 A 
ATOM     31  C   UNL     1       9.676  -1.966  23.767  0.00  0.00    +0.004 A 
ATOM     32  C   UNL     1      10.114  -1.041  22.813  0.00  0.00    +0.010 A 
ATOM     33  C   UNL     1      10.123   0.329  23.129  0.00  0.00    +0.033 A 
ATOM     34  C   UNL     1      10.055   0.703  24.463  0.00  0.00    +0.010 A 
ATOM     35  C   UNL     1       9.783  -0.260  25.419  0.00  0.00    +0.004 A 
BRANCH  33  36
ATOM     36  C   UNL     1       9.719   1.353  22.094  0.00  0.00    +0.371 C 
ATOM     37  F   UNL     1       9.183   0.874  20.939  0.00  0.00    -0.187 F 
ATOM     38  F   UNL     1      10.666   2.272  21.751  0.00  0.00    -0.187 F 
BRANCH  36  39
ATOM     39  P   UNL     1       8.430   2.396  22.868  0.00  0.00    +0.401 P 
ATOM     40  O   UNL     1       7.340   3.279  23.523  0.00  0.00    -0.252 OA
BRANCH  39  41
ATOM     41  O   UNL     1       7.343   1.154  22.577  0.00  0.00    -0.320 OA
ATOM     42  H   UNL     1       7.718   0.318  22.919  0.00  0.00    +0.220 HD
ENDBRANCH  39  41
BRANCH  39  43
ATOM     43  O   UNL     1       8.191   3.112  21.374  0.00  0.00    -0.320 OA
ATOM     44  H   UNL     1       7.737   2.520  20.739  0.00  0.00    +0.220 HD
ENDBRANCH  39  43
ENDBRANCH  36  39
ENDBRANCH  33  36
ENDBRANCH  29  30
ENDBRANCH   1  29
TORSDOF 11
ENDMDL
MODEL 7
REMARK VINA RESULT:      -7.6      1.733      4.970
REMARK  Name = 
REMARK  11 active torsions:
REMARK  status: ('A' for Active; 'I' for Inactive)
REMARK    1  A    between atoms: C_1  and  C_9
REMARK    2  A    between atoms: C_2  and  C_3
REMARK    3  A    between atoms: C_9  and  C_10
REMARK    4  A    between atoms: C_10  and  C_11
REMARK    5  A    between atoms: C_10  and  C_25
REMARK    6  A    between atoms: C_10  and  N_34
REMARK    7  A    between atoms: C_11  and  C_12
REMARK    8  A    between atoms: C_15  and  C_18
REMARK    9  A    between atoms: C_18  and  P_21
REMARK   10  A    between atoms: P_21  and  O_22
REMARK   11  A    between atoms: P_21  and  O_23
REMARK                            x       y       z     vdW  Elec       q    Type
REMARK                         _______ _______ _______ _____ _____    ______ ____
ROOT
ATOM      1  C   UNL     1       8.207  -0.843  24.592  0.00  0.00    +0.121 C 
ENDROOT
BRANCH   1   2
ATOM      2  N   UNL     1       7.438   0.268  23.931  0.00  0.00    -0.231 N 
ATOM      3  C   UNL     1       6.682   1.296  24.486  0.00  0.00    +0.090 A 
ATOM      4  C   UNL     1       6.303   1.692  25.776  0.00  0.00    +0.029 A 
ATOM      5  C   UNL     1       5.421   2.785  25.884  0.00  0.00    +0.002 A 
ATOM      6  C   UNL     1       4.970   3.482  24.768  0.00  0.00    +0.002 A 
ATOM      7  C   UNL     1       5.427   3.135  23.499  0.00  0.00    +0.032 A 
ATOM      8  C   UNL     1       6.268   2.024  23.367  0.00  0.00    +0.113 A 
ATOM      9  N   UNL     1       6.765   1.462  22.235  0.00  0.00    -0.129 NA
ATOM     10  N   UNL     1       7.485   0.421  22.587  0.00  0.00    -0.064 NA
ENDBRANCH   1   2
BRANCH   1  11
ATOM     11  C   UNL     1       8.157  -2.158  23.715  0.00  0.00    +0.108 A 
ATOM     12  S   UNL     1       8.908  -3.645  24.201  0.00  0.00    -0.070 S 
ATOM     13  C   UNL     1       7.942  -4.531  23.068  0.00  0.00    +0.039 A 
ATOM     14  C   UNL     1       7.816  -5.914  22.866  0.00  0.00    +0.017 A 
ATOM     15  C   UNL     1       6.839  -6.370  21.966  0.00  0.00    +0.001 A 
ATOM     16  C   UNL     1       6.042  -5.481  21.255  0.00  0.00    +0.002 A 
ATOM     17  C   UNL     1       6.231  -4.108  21.403  0.00  0.00    +0.029 A 
ATOM     18  C   UNL     1       7.190  -3.631  22.322  0.00  0.00    +0.079 A 
ATOM     19  N   UNL     1       7.397  -2.314  22.641  0.00  0.00    -0.242 NA
ENDBRANCH   1  11
BRANCH   1  20
ATOM     20  C   UNL     1       9.690  -0.373  24.811  0.00  0.00    +0.064 C 
BRANCH  20  21
ATOM     21  C   UNL     1       9.923   1.112  24.721  0.00  0.00    -0.023 C 
ATOM     22  C   UNL     1      10.533   1.731  23.701  0.00  0.00    +0.004 C 
BRANCH  22  23
ATOM     23  C   UNL     1      10.554   3.192  23.677  0.00  0.00    -0.025 A 
ATOM     24  C   UNL     1       9.402   3.877  24.075  0.00  0.00    +0.008 A 
ATOM     25  C   UNL     1       9.404   5.268  24.153  0.00  0.00    +0.001 A 
ATOM     26  C   UNL     1      10.561   5.983  23.841  0.00  0.00    +0.000 A 
ATOM     27  C   UNL     1      11.715   5.301  23.441  0.00  0.00    +0.001 A 
ATOM     28  C   UNL     1      11.714   3.907  23.360  0.00  0.00    +0.008 A 
ENDBRANCH  22  23
ENDBRANCH  20  21
ENDBRANCH   1  20
BRANCH   1  29
ATOM     29  C   UNL     1       7.597  -1.165  26.048  0.00  0.00    +0.072 C 
BRANCH  29  30
ATOM     30  C   UNL     1       6.412  -2.120  26.148  0.00  0.00    -0.045 A 
ATOM     31  C   UNL     1       5.280  -1.990  25.342  0.00  0.00    +0.004 A 
ATOM     32  C   UNL     1       4.431  -3.087  25.160  0.00  0.00    +0.010 A 
ATOM     33  C   UNL     1       4.782  -4.334  25.707  0.00  0.00    +0.033 A 
ATOM     34  C   UNL     1       5.745  -4.373  26.704  0.00  0.00    +0.010 A 
ATOM     35  C   UNL     1       6.467  -3.228  26.989  0.00  0.00    +0.004 A 
BRANCH  33  36
ATOM     36  C   UNL     1       4.522  -5.606  24.935  0.00  0.00    +0.371 C 
ATOM     37  F   UNL     1       5.530  -6.520  24.906  0.00  0.00    -0.187 F 
ATOM     38  F   UNL     1       4.074  -5.457  23.657  0.00  0.00    -0.187 F 
BRANCH  36  39
ATOM     39  P   UNL     1       3.104  -6.429  25.748  0.00  0.00    +0.401 P 
ATOM     40  O   UNL     1       1.904  -7.125  26.436  0.00  0.00    -0.252 OA
BRANCH  39  41
ATOM     41  O   UNL     1       3.743  -7.892  25.235  0.00  0.00    -0.320 OA
ATOM     42  H   UNL     1       3.254  -8.192  24.444  0.00  0.00    +0.220 HD
ENDBRANCH  39  41
BRANCH  39  43
ATOM     43  O   UNL     1       2.228  -6.185  24.343  0.00  0.00    -0.320 OA
ATOM     44  H   UNL     1       1.623  -5.417  24.403  0.00  0.00    +0.220 HD
ENDBRANCH  39  43
ENDBRANCH  36  39
ENDBRANCH  33  36
ENDBRANCH  29  30
ENDBRANCH   1  29
TORSDOF 11
ENDMDL
MODEL 8
REMARK VINA RESULT:      -7.5      2.000      4.382
REMARK  Name = 
REMARK  11 active torsions:
REMARK  status: ('A' for Active; 'I' for Inactive)
REMARK    1  A    between atoms: C_1  and  C_9
REMARK    2  A    between atoms: C_2  and  C_3
REMARK    3  A    between atoms: C_9  and  C_10
REMARK    4  A    between atoms: C_10  and  C_11
REMARK    5  A    between atoms: C_10  and  C_25
REMARK    6  A    between atoms: C_10  and  N_34
REMARK    7  A    between atoms: C_11  and  C_12
REMARK    8  A    between atoms: C_15  and  C_18
REMARK    9  A    between atoms: C_18  and  P_21
REMARK   10  A    between atoms: P_21  and  O_22
REMARK   11  A    between atoms: P_21  and  O_23
REMARK                            x       y       z     vdW  Elec       q    Type
REMARK                         _______ _______ _______ _____ _____    ______ ____
ROOT
ATOM      1  C   UNL     1       6.581  -2.073  25.066  0.00  0.00    +0.121 C 
ENDROOT
BRANCH   1   2
ATOM      2  N   UNL     1       5.908  -3.100  24.197  0.00  0.00    -0.231 N 
ATOM      3  C   UNL     1       6.438  -4.186  23.508  0.00  0.00    +0.090 A 
ATOM      4  C   UNL     1       7.713  -4.731  23.303  0.00  0.00    +0.029 A 
ATOM      5  C   UNL     1       7.814  -5.829  22.427  0.00  0.00    +0.002 A 
ATOM      6  C   UNL     1       6.698  -6.392  21.817  0.00  0.00    +0.002 A 
ATOM      7  C   UNL     1       5.427  -5.899  22.102  0.00  0.00    +0.032 A 
ATOM      8  C   UNL     1       5.309  -4.779  22.935  0.00  0.00    +0.113 A 
ATOM      9  N   UNL     1       4.193  -4.089  23.281  0.00  0.00    -0.129 NA
ATOM     10  N   UNL     1       4.561  -3.095  24.059  0.00  0.00    -0.064 NA
ENDBRANCH   1   2
BRANCH   1  11
ATOM     11  C   UNL     1       7.743  -1.347  24.278  0.00  0.00    +0.108 A 
ATOM     12  S   UNL     1       7.548  -0.731  22.667  0.00  0.00    -0.070 S 
ATOM     13  C   UNL     1       8.949   0.271  22.856  0.00  0.00    +0.039 A 
ATOM     14  C   UNL     1       9.482   1.257  22.011  0.00  0.00    +0.017 A 
ATOM     15  C   UNL     1      10.558   2.028  22.483  0.00  0.00    +0.001 A 
ATOM     16  C   UNL     1      11.116   1.800  23.735  0.00  0.00    +0.002 A 
ATOM     17  C   UNL     1      10.630   0.765  24.532  0.00  0.00    +0.029 A 
ATOM     18  C   UNL     1       9.533  -0.004  24.086  0.00  0.00    +0.079 A 
ATOM     19  N   UNL     1       8.894  -0.973  24.817  0.00  0.00    -0.242 NA
ENDBRANCH   1  11
BRANCH   1  20
ATOM     20  C   UNL     1       5.505  -1.038  25.555  0.00  0.00    +0.064 C 
BRANCH  20  21
ATOM     21  C   UNL     1       5.947   0.402  25.574  0.00  0.00    -0.023 C 
ATOM     22  C   UNL     1       6.458   1.031  26.642  0.00  0.00    +0.004 C 
BRANCH  22  23
ATOM     23  C   UNL     1       6.985   2.384  26.473  0.00  0.00    -0.025 A 
ATOM     24  C   UNL     1       7.658   2.690  25.287  0.00  0.00    +0.008 A 
ATOM     25  C   UNL     1       8.099   3.989  25.045  0.00  0.00    +0.001 A 
ATOM     26  C   UNL     1       7.864   4.993  25.985  0.00  0.00    +0.000 A 
ATOM     27  C   UNL     1       7.193   4.690  27.174  0.00  0.00    +0.001 A 
ATOM     28  C   UNL     1       6.752   3.388  27.419  0.00  0.00    +0.008 A 
ENDBRANCH  22  23
ENDBRANCH  20  21
ENDBRANCH   1  20
BRANCH   1  29
ATOM     29  C   UNL     1       7.198  -2.765  26.385  0.00  0.00    +0.072 C 
BRANCH  29  30
ATOM     30  C   UNL     1       6.363  -3.808  27.120  0.00  0.00    -0.045 A 
ATOM     31  C   UNL     1       5.306  -3.459  27.962  0.00  0.00    +0.004 A 
ATOM     32  C   UNL     1       4.324  -4.407  28.270  0.00  0.00    +0.010 A 
ATOM     33  C   UNL     1       4.360  -5.668  27.649  0.00  0.00    +0.033 A 
ATOM     34  C   UNL     1       5.539  -6.076  27.042  0.00  0.00    +0.010 A 
ATOM     35  C   UNL     1       6.569  -5.165  26.892  0.00  0.00    +0.004 A 
BRANCH  33  36
ATOM     36  C   UNL     1       3.079  -6.338  27.210  0.00  0.00    +0.371 C 
ATOM     37  F   UNL     1       2.014  -5.524  26.973  0.00  0.00    -0.187 F 
ATOM     38  F   UNL     1       2.638  -7.367  27.987  0.00  0.00    -0.187 F 
BRANCH  36  39
ATOM     39  P   UNL     1       3.446  -7.180  25.627  0.00  0.00    +0.401 P 
ATOM     40  O   UNL     1       3.757  -7.892  24.288  0.00  0.00    -0.252 OA
BRANCH  39  41
ATOM     41  O   UNL     1       2.417  -6.087  24.883  0.00  0.00    -0.320 OA
ATOM     42  H   UNL     1       2.471  -6.208  23.914  0.00  0.00    +0.220 HD
ENDBRANCH  39  41
BRANCH  39  43
ATOM     43  O   UNL     1       2.224  -8.266  25.985  0.00  0.00    -0.320 OA
ATOM     44  H   UNL     1       2.460  -9.190  25.756  0.00  0.00    +0.220 HD
ENDBRANCH  39  43
ENDBRANCH  36  39
ENDBRANCH  33  36
ENDBRANCH  29  30
ENDBRANCH   1  29
TORSDOF 11
ENDMDL
MODEL 9
REMARK VINA RESULT:      -7.3      3.187      6.904
REMARK  Name = 
REMARK  11 active torsions:
REMARK  status: ('A' for Active; 'I' for Inactive)
REMARK    1  A    between atoms: C_1  and  C_9
REMARK    2  A    between atoms: C_2  and  C_3
REMARK    3  A    between atoms: C_9  and  C_10
REMARK    4  A    between atoms: C_10  and  C_11
REMARK    5  A    between atoms: C_10  and  C_25
REMARK    6  A    between atoms: C_10  and  N_34
REMARK    7  A    between atoms: C_11  and  C_12
REMARK    8  A    between atoms: C_15  and  C_18
REMARK    9  A    between atoms: C_18  and  P_21
REMARK   10  A    between atoms: P_21  and  O_22
REMARK   11  A    between atoms: P_21  and  O_23
REMARK                            x       y       z     vdW  Elec       q    Type
REMARK                         _______ _______ _______ _____ _____    ______ ____
ROOT
ATOM      1  C   UNL     1       7.582   1.862  24.023  0.00  0.00    +0.121 C 
ENDROOT
BRANCH   1   2
ATOM      2  N   UNL     1       8.807   2.680  23.716  0.00  0.00    -0.231 N 
ATOM      3  C   UNL     1       9.209   3.921  24.202  0.00  0.00    +0.090 A 
ATOM      4  C   UNL     1       8.685   4.885  25.075  0.00  0.00    +0.029 A 
ATOM      5  C   UNL     1       9.407   6.085  25.222  0.00  0.00    +0.002 A 
ATOM      6  C   UNL     1      10.616   6.303  24.569  0.00  0.00    +0.002 A 
ATOM      7  C   UNL     1      11.170   5.300  23.777  0.00  0.00    +0.032 A 
ATOM      8  C   UNL     1      10.446   4.117  23.583  0.00  0.00    +0.113 A 
ATOM      9  N   UNL     1      10.750   3.052  22.798  0.00  0.00    -0.129 NA
ATOM     10  N   UNL     1       9.769   2.184  22.904  0.00  0.00    -0.064 NA
ENDBRANCH   1   2
BRANCH   1  11
ATOM     11  C   UNL     1       6.270   2.717  23.811  0.00  0.00    +0.108 A 
ATOM     12  S   UNL     1       5.853   3.443  22.290  0.00  0.00    -0.070 S 
ATOM     13  C   UNL     1       4.208   3.625  22.800  0.00  0.00    +0.039 A 
ATOM     14  C   UNL     1       3.076   4.051  22.088  0.00  0.00    +0.017 A 
ATOM     15  C   UNL     1       1.822   3.963  22.714  0.00  0.00    +0.001 A 
ATOM     16  C   UNL     1       1.698   3.508  24.021  0.00  0.00    +0.002 A 
ATOM     17  C   UNL     1       2.837   3.164  24.747  0.00  0.00    +0.029 A 
ATOM     18  C   UNL     1       4.104   3.221  24.126  0.00  0.00    +0.079 A 
ATOM     19  N   UNL     1       5.283   2.807  24.690  0.00  0.00    -0.242 NA
ENDBRANCH   1  11
BRANCH   1  20
ATOM     20  C   UNL     1       7.577   0.590  23.101  0.00  0.00    +0.064 C 
BRANCH  20  21
ATOM     21  C   UNL     1       6.509  -0.428  23.402  0.00  0.00    -0.023 C 
ATOM     22  C   UNL     1       6.550  -1.714  23.026  0.00  0.00    +0.004 C 
BRANCH  22  23
ATOM     23  C   UNL     1       5.516  -2.622  23.518  0.00  0.00    -0.025 A 
ATOM     24  C   UNL     1       5.145  -3.703  22.713  0.00  0.00    +0.008 A 
ATOM     25  C   UNL     1       4.228  -4.643  23.177  0.00  0.00    +0.001 A 
ATOM     26  C   UNL     1       3.681  -4.513  24.455  0.00  0.00    +0.000 A 
ATOM     27  C   UNL     1       4.048  -3.432  25.262  0.00  0.00    +0.001 A 
ATOM     28  C   UNL     1       4.965  -2.488  24.797  0.00  0.00    +0.008 A 
ENDBRANCH  22  23
ENDBRANCH  20  21
ENDBRANCH   1  20
BRANCH   1  29
ATOM     29  C   UNL     1       7.620   1.336  25.546  0.00  0.00    +0.072 C 
BRANCH  29  30
ATOM     30  C   UNL     1       8.328   0.019  25.846  0.00  0.00    -0.045 A 
ATOM     31  C   UNL     1       7.754  -0.972  26.644  0.00  0.00    +0.004 A 
ATOM     32  C   UNL     1       8.218  -2.289  26.552  0.00  0.00    +0.010 A 
ATOM     33  C   UNL     1       9.186  -2.617  25.586  0.00  0.00    +0.033 A 
ATOM     34  C   UNL     1       9.918  -1.592  25.006  0.00  0.00    +0.010 A 
ATOM     35  C   UNL     1       9.546  -0.281  25.241  0.00  0.00    +0.004 A 
BRANCH  33  36
ATOM     36  C   UNL     1       9.104  -3.929  24.841  0.00  0.00    +0.371 C 
ATOM     37  F   UNL     1      10.225  -4.700  24.837  0.00  0.00    -0.187 F 
ATOM     38  F   UNL     1       8.651  -3.867  23.557  0.00  0.00    -0.187 F 
BRANCH  36  39
ATOM     39  P   UNL     1       7.802  -4.916  25.663  0.00  0.00    +0.401 P 
ATOM     40  O   UNL     1       6.700  -5.751  26.360  0.00  0.00    -0.252 OA
BRANCH  39  41
ATOM     41  O   UNL     1       8.990  -6.028  26.064  0.00  0.00    -0.320 OA
ATOM     42  H   UNL     1       9.607  -5.618  26.703  0.00  0.00    +0.220 HD
ENDBRANCH  39  41
BRANCH  39  43
ATOM     43  O   UNL     1       7.477  -5.622  24.181  0.00  0.00    -0.320 OA
ATOM     44  H   UNL     1       6.724  -6.247  24.217  0.00  0.00    +0.220 HD
ENDBRANCH  39  43
ENDBRANCH  36  39
ENDBRANCH  33  36
ENDBRANCH  29  30
ENDBRANCH   1  29
TORSDOF 11
ENDMDL
