MODEL 1
REMARK VINA RESULT:      -5.6      0.000      0.000
REMARK  Name = 
REMARK  7 active torsions:
REMARK  status: ('A' for Active; 'I' for Inactive)
REMARK    1  A    between atoms: C_1  and  C_2
REMARK    2  A    between atoms: C_2  and  N_3
REMARK    3  A    between atoms: N_7  and  C_8
REMARK    4  A    between atoms: C_8  and  C_9
REMARK    5  A    between atoms: C_8  and  C_10
REMARK    6  A    between atoms: C_8  and  C_12
REMARK    7  A    between atoms: C_10  and  C_11
REMARK                            x       y       z     vdW  Elec       q    Type
REMARK                         _______ _______ _______ _____ _____    ______ ____
ROOT
ATOM      1  N   UNL     1       9.813  -1.161  22.724  0.00  0.00    -0.314 N 
ATOM      2  H   UNL     1      10.643  -0.972  23.275  0.00  0.00    +0.149 HD
ATOM      3  C   UNL     1       9.167  -2.253  23.287  0.00  0.00    +0.221 A 
ATOM      4  N   UNL     1       9.917  -3.024  24.048  0.00  0.00    -0.184 NA
ATOM      5  C   UNL     1       9.285  -4.099  24.486  0.00  0.00    +0.229 A 
ATOM      6 CL   UNL     1      10.164  -5.104  25.553  0.00  0.00    -0.041 Cl
ATOM      7  N   UNL     1       8.042  -4.476  24.230  0.00  0.00    -0.184 NA
ATOM      8  C   UNL     1       7.358  -3.603  23.515  0.00  0.00    +0.222 A 
ATOM      9  N   UNL     1       6.026  -3.828  23.220  0.00  0.00    -0.296 N 
ATOM     10  H   UNL     1       5.496  -2.989  23.411  0.00  0.00    +0.150 HD
ATOM     11  N   UNL     1       7.872  -2.475  23.053  0.00  0.00    -0.181 NA
ENDROOT
BRANCH   1  13
ATOM     12  C   UNL     1       9.817   1.124  21.887  0.00  0.00    +0.024 C 
ATOM     13  C   UNL     1       8.969  -0.029  22.399  0.00  0.00    +0.101 C 
ENDBRANCH   1  13
BRANCH   9  14
ATOM     14  C   UNL     1       5.375  -5.121  23.482  0.00  0.00    +0.118 C 
ATOM     15  C   UNL     1       5.607  -5.499  24.960  0.00  0.00    +0.048 C 
BRANCH  14  16
ATOM     16  C   UNL     1       3.902  -5.136  23.183  0.00  0.00    +0.088 C 
ATOM     17  N   UNL     1       2.751  -5.153  23.018  0.00  0.00    -0.194 NA
ENDBRANCH  14  16
BRANCH  14  18
ATOM     18  C   UNL     1       6.013  -6.208  22.561  0.00  0.00    +0.037 C 
ATOM     19  C   UNL     1       6.113  -5.884  21.076  0.00  0.00    +0.007 C 
ENDBRANCH  14  18
ENDBRANCH   9  14
TORSDOF 4
ENDMDL
MODEL 2
REMARK VINA RESULT:      -5.3      1.838      2.321
REMARK  Name = 
REMARK  7 active torsions:
REMARK  status: ('A' for Active; 'I' for Inactive)
REMARK    1  A    between atoms: C_1  and  C_2
REMARK    2  A    between atoms: C_2  and  N_3
REMARK    3  A    between atoms: N_7  and  C_8
REMARK    4  A    between atoms: C_8  and  C_9
REMARK    5  A    between atoms: C_8  and  C_10
REMARK    6  A    between atoms: C_8  and  C_12
REMARK    7  A    between atoms: C_10  and  C_11
REMARK                            x       y       z     vdW  Elec       q    Type
REMARK                         _______ _______ _______ _____ _____    ______ ____
ROOT
ATOM      1  N   UNL     1       9.903   0.640  22.838  0.00  0.00    -0.314 N 
ATOM      2  H   UNL     1       9.908   1.436  23.467  0.00  0.00    +0.149 HD
ATOM      3  C   UNL     1       9.307  -0.423  23.502  0.00  0.00    +0.221 A 
ATOM      4  N   UNL     1       9.295  -0.334  24.816  0.00  0.00    -0.184 NA
ATOM      5  C   UNL     1       8.802  -1.409  25.407  0.00  0.00    +0.229 A 
ATOM      6 CL   UNL     1       8.670  -1.335  27.110  0.00  0.00    -0.041 Cl
ATOM      7  N   UNL     1       8.363  -2.523  24.842  0.00  0.00    -0.184 NA
ATOM      8  C   UNL     1       8.356  -2.482  23.523  0.00  0.00    +0.222 A 
ATOM      9  N   UNL     1       7.865  -3.548  22.791  0.00  0.00    -0.296 N 
ATOM     10  H   UNL     1       7.237  -3.202  22.079  0.00  0.00    +0.150 HD
ATOM     11  N   UNL     1       8.789  -1.447  22.822  0.00  0.00    -0.181 NA
ENDROOT
BRANCH   1  13
ATOM     12  C   UNL     1       8.281   1.857  21.492  0.00  0.00    +0.024 C 
ATOM     13  C   UNL     1       9.443   0.876  21.485  0.00  0.00    +0.101 C 
ENDBRANCH   1  13
BRANCH   9  14
ATOM     14  C   UNL     1       7.544  -4.842  23.413  0.00  0.00    +0.118 C 
ATOM     15  C   UNL     1       8.693  -5.228  24.369  0.00  0.00    +0.048 C 
BRANCH  14  16
ATOM     16  C   UNL     1       6.240  -4.856  24.161  0.00  0.00    +0.088 C 
ATOM     17  N   UNL     1       5.208  -4.822  24.693  0.00  0.00    -0.194 NA
ENDBRANCH  14  16
BRANCH  14  18
ATOM     18  C   UNL     1       7.413  -5.925  22.297  0.00  0.00    +0.037 C 
ATOM     19  C   UNL     1       6.424  -5.642  21.174  0.00  0.00    +0.007 C 
ENDBRANCH  14  18
ENDBRANCH   9  14
TORSDOF 4
ENDMDL
MODEL 3
REMARK VINA RESULT:      -5.3      1.962      5.614
REMARK  Name = 
REMARK  7 active torsions:
REMARK  status: ('A' for Active; 'I' for Inactive)
REMARK    1  A    between atoms: C_1  and  C_2
REMARK    2  A    between atoms: C_2  and  N_3
REMARK    3  A    between atoms: N_7  and  C_8
REMARK    4  A    between atoms: C_8  and  C_9
REMARK    5  A    between atoms: C_8  and  C_10
REMARK    6  A    between atoms: C_8  and  C_12
REMARK    7  A    between atoms: C_10  and  C_11
REMARK                            x       y       z     vdW  Elec       q    Type
REMARK                         _______ _______ _______ _____ _____    ______ ____
ROOT
ATOM      1  N   UNL     1       6.950  -5.618  22.973  0.00  0.00    -0.314 N 
ATOM      2  H   UNL     1       7.067  -6.352  23.663  0.00  0.00    +0.149 HD
ATOM      3  C   UNL     1       7.566  -4.473  23.461  0.00  0.00    +0.221 A 
ATOM      4  N   UNL     1       7.746  -4.440  24.766  0.00  0.00    -0.184 NA
ATOM      5  C   UNL     1       8.249  -3.295  25.195  0.00  0.00    +0.229 A 
ATOM      6 CL   UNL     1       8.595  -3.207  26.866  0.00  0.00    -0.041 Cl
ATOM      7  N   UNL     1       8.552  -2.220  24.484  0.00  0.00    -0.184 NA
ATOM      8  C   UNL     1       8.398  -2.381  23.183  0.00  0.00    +0.222 A 
ATOM      9  N   UNL     1       8.735  -1.367  22.307  0.00  0.00    -0.296 N 
ATOM     10  H   UNL     1       9.287  -1.749  21.551  0.00  0.00    +0.150 HD
ATOM     11  N   UNL     1       7.938  -3.494  22.635  0.00  0.00    -0.181 NA
ENDROOT
BRANCH   1  13
ATOM     12  C   UNL     1       6.011  -5.789  20.735  0.00  0.00    +0.024 C 
ATOM     13  C   UNL     1       7.251  -5.956  21.597  0.00  0.00    +0.101 C 
ENDBRANCH   1  13
BRANCH   9  14
ATOM     14  C   UNL     1       9.059  -0.009  22.769  0.00  0.00    +0.118 C 
ATOM     15  C   UNL     1       9.392   0.864  21.541  0.00  0.00    +0.048 C 
BRANCH  14  16
ATOM     16  C   UNL     1       7.966   0.643  23.569  0.00  0.00    +0.088 C 
ATOM     17  N   UNL     1       7.120   1.092  24.228  0.00  0.00    -0.194 NA
ENDBRANCH  14  16
BRANCH  14  18
ATOM     18  C   UNL     1      10.302  -0.075  23.711  0.00  0.00    +0.037 C 
ATOM     19  C   UNL     1      10.867   1.252  24.202  0.00  0.00    +0.007 C 
ENDBRANCH  14  18
ENDBRANCH   9  14
TORSDOF 4
ENDMDL
MODEL 4
REMARK VINA RESULT:      -5.2      2.508      6.093
REMARK  Name = 
REMARK  7 active torsions:
REMARK  status: ('A' for Active; 'I' for Inactive)
REMARK    1  A    between atoms: C_1  and  C_2
REMARK    2  A    between atoms: C_2  and  N_3
REMARK    3  A    between atoms: N_7  and  C_8
REMARK    4  A    between atoms: C_8  and  C_9
REMARK    5  A    between atoms: C_8  and  C_10
REMARK    6  A    between atoms: C_8  and  C_12
REMARK    7  A    between atoms: C_10  and  C_11
REMARK                            x       y       z     vdW  Elec       q    Type
REMARK                         _______ _______ _______ _____ _____    ______ ____
ROOT
ATOM      1  N   UNL     1       6.758  -5.937  26.664  0.00  0.00    -0.314 N 
ATOM      2  H   UNL     1       6.110  -6.615  26.277  0.00  0.00    +0.149 HD
ATOM      3  C   UNL     1       7.091  -5.042  25.657  0.00  0.00    +0.221 A 
ATOM      4  N   UNL     1       6.895  -5.475  24.428  0.00  0.00    -0.184 NA
ATOM      5  C   UNL     1       7.313  -4.627  23.504  0.00  0.00    +0.229 A 
ATOM      6 CL   UNL     1       7.011  -5.076  21.882  0.00  0.00    -0.041 Cl
ATOM      7  N   UNL     1       7.904  -3.455  23.678  0.00  0.00    -0.184 NA
ATOM      8  C   UNL     1       7.992  -3.087  24.942  0.00  0.00    +0.222 A 
ATOM      9  N   UNL     1       8.528  -1.857  25.279  0.00  0.00    -0.296 N 
ATOM     10  H   UNL     1       7.922  -1.401  25.946  0.00  0.00    +0.150 HD
ATOM     11  N   UNL     1       7.574  -3.834  25.952  0.00  0.00    -0.181 NA
ENDROOT
BRANCH   1  13
ATOM     12  C   UNL     1       6.137  -6.438  28.964  0.00  0.00    +0.024 C 
ATOM     13  C   UNL     1       6.404  -5.347  27.939  0.00  0.00    +0.101 C 
ENDBRANCH   1  13
BRANCH   9  14
ATOM     14  C   UNL     1       9.220  -1.011  24.295  0.00  0.00    +0.118 C 
ATOM     15  C   UNL     1      10.171  -1.897  23.463  0.00  0.00    +0.048 C 
BRANCH  14  16
ATOM     16  C   UNL     1       8.298  -0.260  23.376  0.00  0.00    +0.088 C 
ATOM     17  N   UNL     1       7.540   0.325  22.717  0.00  0.00    -0.194 NA
ENDBRANCH  14  16
BRANCH  14  18
ATOM     18  C   UNL     1      10.051   0.074  25.051  0.00  0.00    +0.037 C 
ATOM     19  C   UNL     1      10.860   1.042  24.199  0.00  0.00    +0.007 C 
ENDBRANCH  14  18
ENDBRANCH   9  14
TORSDOF 4
ENDMDL
MODEL 5
REMARK VINA RESULT:      -5.2      1.484      5.678
REMARK  Name = 
REMARK  7 active torsions:
REMARK  status: ('A' for Active; 'I' for Inactive)
REMARK    1  A    between atoms: C_1  and  C_2
REMARK    2  A    between atoms: C_2  and  N_3
REMARK    3  A    between atoms: N_7  and  C_8
REMARK    4  A    between atoms: C_8  and  C_9
REMARK    5  A    between atoms: C_8  and  C_10
REMARK    6  A    between atoms: C_8  and  C_12
REMARK    7  A    between atoms: C_10  and  C_11
REMARK                            x       y       z     vdW  Elec       q    Type
REMARK                         _______ _______ _______ _____ _____    ______ ____
ROOT
ATOM      1  N   UNL     1       5.427  -5.419  24.078  0.00  0.00    -0.314 N 
ATOM      2  H   UNL     1       5.640  -6.368  24.368  0.00  0.00    +0.149 HD
ATOM      3  C   UNL     1       6.621  -4.713  24.024  0.00  0.00    +0.221 A 
ATOM      4  N   UNL     1       7.612  -5.222  24.727  0.00  0.00    -0.184 NA
ATOM      5  C   UNL     1       8.698  -4.468  24.721  0.00  0.00    +0.229 A 
ATOM      6 CL   UNL     1      10.058  -5.104  25.538  0.00  0.00    -0.041 Cl
ATOM      7  N   UNL     1       8.876  -3.298  24.128  0.00  0.00    -0.184 NA
ATOM      8  C   UNL     1       7.848  -2.911  23.396  0.00  0.00    +0.222 A 
ATOM      9  N   UNL     1       7.909  -1.739  22.666  0.00  0.00    -0.296 N 
ATOM     10  H   UNL     1       7.579  -1.914  21.726  0.00  0.00    +0.150 HD
ATOM     11  N   UNL     1       6.722  -3.600  23.296  0.00  0.00    -0.181 NA
ENDROOT
BRANCH   1  13
ATOM     12  C   UNL     1       3.098  -5.332  23.379  0.00  0.00    +0.024 C 
ATOM     13  C   UNL     1       4.551  -5.262  22.936  0.00  0.00    +0.101 C 
ENDBRANCH   1  13
BRANCH   9  14
ATOM     14  C   UNL     1       9.001  -0.768  22.835  0.00  0.00    +0.118 C 
ATOM     15  C   UNL     1      10.315  -1.412  22.345  0.00  0.00    +0.048 C 
BRANCH  14  16
ATOM     16  C   UNL     1       8.779   0.535  22.118  0.00  0.00    +0.088 C 
ATOM     17  N   UNL     1       8.665   1.565  21.592  0.00  0.00    -0.194 NA
ENDBRANCH  14  16
BRANCH  14  18
ATOM     18  C   UNL     1       9.132  -0.409  24.349  0.00  0.00    +0.037 C 
ATOM     19  C   UNL     1      10.392   0.334  24.775  0.00  0.00    +0.007 C 
ENDBRANCH  14  18
ENDBRANCH   9  14
TORSDOF 4
ENDMDL
MODEL 6
REMARK VINA RESULT:      -5.2      3.271      6.075
REMARK  Name = 
REMARK  7 active torsions:
REMARK  status: ('A' for Active; 'I' for Inactive)
REMARK    1  A    between atoms: C_1  and  C_2
REMARK    2  A    between atoms: C_2  and  N_3
REMARK    3  A    between atoms: N_7  and  C_8
REMARK    4  A    between atoms: C_8  and  C_9
REMARK    5  A    between atoms: C_8  and  C_10
REMARK    6  A    between atoms: C_8  and  C_12
REMARK    7  A    between atoms: C_10  and  C_11
REMARK                            x       y       z     vdW  Elec       q    Type
REMARK                         _______ _______ _______ _____ _____    ______ ____
ROOT
ATOM      1  N   UNL     1       5.355  -7.222  27.957  0.00  0.00    -0.314 N 
ATOM      2  H   UNL     1       4.482  -7.630  28.274  0.00  0.00    +0.149 HD
ATOM      3  C   UNL     1       5.145  -6.702  26.687  0.00  0.00    +0.221 A 
ATOM      4  N   UNL     1       4.113  -7.199  26.036  0.00  0.00    -0.184 NA
ATOM      5  C   UNL     1       4.009  -6.744  24.799  0.00  0.00    +0.229 A 
ATOM      6 CL   UNL     1       2.643  -7.273  23.918  0.00  0.00    -0.041 Cl
ATOM      7  N   UNL     1       4.811  -5.899  24.169  0.00  0.00    -0.184 NA
ATOM      8  C   UNL     1       5.772  -5.411  24.931  0.00  0.00    +0.222 A 
ATOM      9  N   UNL     1       6.652  -4.468  24.431  0.00  0.00    -0.296 N 
ATOM     10  H   UNL     1       6.739  -3.711  25.094  0.00  0.00    +0.150 HD
ATOM     11  N   UNL     1       5.954  -5.763  26.193  0.00  0.00    -0.181 NA
ENDROOT
BRANCH   1  13
ATOM     12  C   UNL     1       5.045  -5.560  29.708  0.00  0.00    +0.024 C 
ATOM     13  C   UNL     1       6.048  -6.353  28.886  0.00  0.00    +0.101 C 
ENDBRANCH   1  13
BRANCH   9  14
ATOM     14  C   UNL     1       6.710  -4.134  23.000  0.00  0.00    +0.118 C 
ATOM     15  C   UNL     1       5.321  -3.626  22.556  0.00  0.00    +0.048 C 
BRANCH  14  16
ATOM     16  C   UNL     1       7.755  -3.112  22.651  0.00  0.00    +0.088 C 
ATOM     17  N   UNL     1       8.585  -2.363  22.332  0.00  0.00    -0.194 NA
ENDBRANCH  14  16
BRANCH  14  18
ATOM     18  C   UNL     1       7.075  -5.418  22.191  0.00  0.00    +0.037 C 
ATOM     19  C   UNL     1       6.267  -5.692  20.929  0.00  0.00    +0.007 C 
ENDBRANCH  14  18
ENDBRANCH   9  14
TORSDOF 4
ENDMDL
MODEL 7
REMARK VINA RESULT:      -5.0      2.619      3.594
REMARK  Name = 
REMARK  7 active torsions:
REMARK  status: ('A' for Active; 'I' for Inactive)
REMARK    1  A    between atoms: C_1  and  C_2
REMARK    2  A    between atoms: C_2  and  N_3
REMARK    3  A    between atoms: N_7  and  C_8
REMARK    4  A    between atoms: C_8  and  C_9
REMARK    5  A    between atoms: C_8  and  C_10
REMARK    6  A    between atoms: C_8  and  C_12
REMARK    7  A    between atoms: C_10  and  C_11
REMARK                            x       y       z     vdW  Elec       q    Type
REMARK                         _______ _______ _______ _____ _____    ______ ____
ROOT
ATOM      1  N   UNL     1       8.208   2.520  21.610  0.00  0.00    -0.314 N 
ATOM      2  H   UNL     1       9.165   2.853  21.570  0.00  0.00    +0.149 HD
ATOM      3  C   UNL     1       8.230   1.216  22.084  0.00  0.00    +0.221 A 
ATOM      4  N   UNL     1       9.381   0.587  21.956  0.00  0.00    -0.184 NA
ATOM      5  C   UNL     1       9.329  -0.679  22.334  0.00  0.00    +0.229 A 
ATOM      6 CL   UNL     1      10.805  -1.539  22.282  0.00  0.00    -0.041 Cl
ATOM      7  N   UNL     1       8.282  -1.354  22.784  0.00  0.00    -0.184 NA
ATOM      8  C   UNL     1       7.199  -0.616  22.937  0.00  0.00    +0.222 A 
ATOM      9  N   UNL     1       6.043  -1.167  23.459  0.00  0.00    -0.296 N 
ATOM     10  H   UNL     1       5.677  -0.555  24.175  0.00  0.00    +0.150 HD
ATOM     11  N   UNL     1       7.141   0.670  22.628  0.00  0.00    -0.181 NA
ENDROOT
BRANCH   1  13
ATOM     12  C   UNL     1       7.933   4.424  23.100  0.00  0.00    +0.024 C 
ATOM     13  C   UNL     1       7.233   3.397  22.225  0.00  0.00    +0.101 C 
ENDBRANCH   1  13
BRANCH   9  14
ATOM     14  C   UNL     1       5.887  -2.616  23.654  0.00  0.00    +0.118 C 
ATOM     15  C   UNL     1       4.664  -2.863  24.563  0.00  0.00    +0.048 C 
BRANCH  14  16
ATOM     16  C   UNL     1       5.729  -3.393  22.376  0.00  0.00    +0.088 C 
ATOM     17  N   UNL     1       5.611  -4.050  21.425  0.00  0.00    -0.194 NA
ENDBRANCH  14  16
BRANCH  14  18
ATOM     18  C   UNL     1       7.169  -3.179  24.344  0.00  0.00    +0.037 C 
ATOM     19  C   UNL     1       7.405  -4.680  24.245  0.00  0.00    +0.007 C 
ENDBRANCH  14  18
ENDBRANCH   9  14
TORSDOF 4
ENDMDL
MODEL 8
REMARK VINA RESULT:      -5.0      3.119      4.425
REMARK  Name = 
REMARK  7 active torsions:
REMARK  status: ('A' for Active; 'I' for Inactive)
REMARK    1  A    between atoms: C_1  and  C_2
REMARK    2  A    between atoms: C_2  and  N_3
REMARK    3  A    between atoms: N_7  and  C_8
REMARK    4  A    between atoms: C_8  and  C_9
REMARK    5  A    between atoms: C_8  and  C_10
REMARK    6  A    between atoms: C_8  and  C_12
REMARK    7  A    between atoms: C_10  and  C_11
REMARK                            x       y       z     vdW  Elec       q    Type
REMARK                         _______ _______ _______ _____ _____    ______ ____
ROOT
ATOM      1  N   UNL     1       8.292   3.616  22.374  0.00  0.00    -0.314 N 
ATOM      2  H   UNL     1       8.916   4.221  22.899  0.00  0.00    +0.149 HD
ATOM      3  C   UNL     1       8.402   2.335  22.897  0.00  0.00    +0.221 A 
ATOM      4  N   UNL     1       9.506   2.093  23.574  0.00  0.00    -0.184 NA
ATOM      5  C   UNL     1       9.609   0.836  23.972  0.00  0.00    +0.229 A 
ATOM      6 CL   UNL     1      10.971   0.464  24.935  0.00  0.00    -0.041 Cl
ATOM      7  N   UNL     1       8.768  -0.162  23.749  0.00  0.00    -0.184 NA
ATOM      8  C   UNL     1       7.666   0.201  23.121  0.00  0.00    +0.222 A 
ATOM      9  N   UNL     1       6.665  -0.720  22.873  0.00  0.00    -0.296 N 
ATOM     10  H   UNL     1       5.774  -0.323  23.140  0.00  0.00    +0.150 HD
ATOM     11  N   UNL     1       7.434   1.436  22.708  0.00  0.00    -0.181 NA
ENDROOT
BRANCH   1  13
ATOM     12  C   UNL     1       6.899   5.609  22.281  0.00  0.00    +0.024 C 
ATOM     13  C   UNL     1       6.942   4.095  22.158  0.00  0.00    +0.101 C 
ENDBRANCH   1  13
BRANCH   9  14
ATOM     14  C   UNL     1       6.860  -2.162  23.083  0.00  0.00    +0.118 C 
ATOM     15  C   UNL     1       8.177  -2.587  22.400  0.00  0.00    +0.048 C 
BRANCH  14  16
ATOM     16  C   UNL     1       6.886  -2.573  24.529  0.00  0.00    +0.088 C 
ATOM     17  N   UNL     1       6.839  -2.900  25.643  0.00  0.00    -0.194 NA
ENDBRANCH  14  16
BRANCH  14  18
ATOM     18  C   UNL     1       5.668  -2.937  22.438  0.00  0.00    +0.037 C 
ATOM     19  C   UNL     1       5.937  -4.366  21.984  0.00  0.00    +0.007 C 
ENDBRANCH  14  18
ENDBRANCH   9  14
TORSDOF 4
ENDMDL
MODEL 9
REMARK VINA RESULT:      -5.0      4.327      5.751
REMARK  Name = 
REMARK  7 active torsions:
REMARK  status: ('A' for Active; 'I' for Inactive)
REMARK    1  A    between atoms: C_1  and  C_2
REMARK    2  A    between atoms: C_2  and  N_3
REMARK    3  A    between atoms: N_7  and  C_8
REMARK    4  A    between atoms: C_8  and  C_9
REMARK    5  A    between atoms: C_8  and  C_10
REMARK    6  A    between atoms: C_8  and  C_12
REMARK    7  A    between atoms: C_10  and  C_11
REMARK                            x       y       z     vdW  Elec       q    Type
REMARK                         _______ _______ _______ _____ _____    ______ ____
ROOT
ATOM      1  N   UNL     1      10.961   3.725  22.587  0.00  0.00    -0.314 N 
ATOM      2  H   UNL     1      11.520   3.527  21.764  0.00  0.00    +0.149 HD
ATOM      3  C   UNL     1      10.339   2.547  22.974  0.00  0.00    +0.221 A 
ATOM      4  N   UNL     1      10.235   1.628  22.036  0.00  0.00    -0.184 NA
ATOM      5  C   UNL     1       9.554   0.562  22.422  0.00  0.00    +0.229 A 
ATOM      6 CL   UNL     1       9.452  -0.714  21.289  0.00  0.00    -0.041 Cl
ATOM      7  N   UNL     1       8.973   0.345  23.592  0.00  0.00    -0.184 NA
ATOM      8  C   UNL     1       9.194   1.295  24.480  0.00  0.00    +0.222 A 
ATOM      9  N   UNL     1       8.704   1.178  25.768  0.00  0.00    -0.296 N 
ATOM     10  H   UNL     1       9.438   1.401  26.425  0.00  0.00    +0.150 HD
ATOM     11  N   UNL     1       9.891   2.390  24.221  0.00  0.00    -0.181 NA
ENDROOT
BRANCH   1  13
ATOM     12  C   UNL     1      12.876   5.125  23.133  0.00  0.00    +0.024 C 
ATOM     13  C   UNL     1      11.601   4.477  23.648  0.00  0.00    +0.101 C 
ENDBRANCH   1  13
BRANCH   9  14
ATOM     14  C   UNL     1       7.744   0.131  26.147  0.00  0.00    +0.118 C 
ATOM     15  C   UNL     1       7.409   0.288  27.645  0.00  0.00    +0.048 C 
BRANCH  14  16
ATOM     16  C   UNL     1       6.474   0.142  25.342  0.00  0.00    +0.088 C 
ATOM     17  N   UNL     1       5.531   0.147  24.664  0.00  0.00    -0.194 NA
ENDBRANCH  14  16
BRANCH  14  18
ATOM     18  C   UNL     1       8.394  -1.268  25.905  0.00  0.00    +0.037 C 
ATOM     19  C   UNL     1       7.667  -2.476  26.482  0.00  0.00    +0.007 C 
ENDBRANCH  14  18
ENDBRANCH   9  14
TORSDOF 4
ENDMDL
