MODEL 1
REMARK VINA RESULT:      -7.4      0.000      0.000
REMARK  Name = 
REMARK  8 active torsions:
REMARK  status: ('A' for Active; 'I' for Inactive)
REMARK    1  A    between atoms: C_1  and  O_2
REMARK    2  A    between atoms: O_2  and  C_3
REMARK    3  A    between atoms: C_4  and  O_5
REMARK    4  A    between atoms: O_5  and  C_6
REMARK    5  A    between atoms: C_11  and  C_12
REMARK    6  A    between atoms: C_12  and  C_13
REMARK    7  A    between atoms: N_16  and  C_17
REMARK    8  A    between atoms: C_17  and  C_18
REMARK                            x       y       z     vdW  Elec       q    Type
REMARK                         _______ _______ _______ _____ _____    ______ ____
ROOT
ATOM      1  C   UNL     1       5.373  -6.029  24.193  0.00  0.00    +0.162 A 
ATOM      2  C   UNL     1       5.661  -5.284  23.034  0.00  0.00    +0.053 A 
ATOM      3  C   UNL     1       6.782  -4.469  23.047  0.00  0.00    -0.033 A 
ATOM      4  C   UNL     1       7.701  -4.583  24.091  0.00  0.00    +0.025 A 
ATOM      5  C   UNL     1       8.684  -3.526  23.935  0.00  0.00    +0.167 C 
ATOM      6  C   UNL     1       7.972  -2.454  23.159  0.00  0.00    +0.065 C 
ATOM      7  O   UNL     1       9.808  -3.541  24.389  0.00  0.00    -0.292 OA
ATOM      8  C   UNL     1       7.463  -5.295  25.239  0.00  0.00    +0.061 A 
ATOM      9  C   UNL     1       7.153  -3.297  22.153  0.00  0.00    +0.047 C 
ATOM     10  C   UNL     1       6.227  -5.930  25.327  0.00  0.00    +0.162 A 
ENDROOT
BRANCH   1  12
ATOM     11  C   UNL     1       3.045  -6.405  23.799  0.00  0.00    +0.277 C 
ATOM     12  O   UNL     1       4.275  -6.836  24.359  0.00  0.00    -0.491 OA
ENDBRANCH   1  12
BRANCH  10  13
ATOM     13  O   UNL     1       5.769  -6.389  26.544  0.00  0.00    -0.491 OA
ATOM     14  C   UNL     1       5.240  -5.330  27.364  0.00  0.00    +0.277 C 
ENDBRANCH  10  13
BRANCH   6  15
ATOM     15  C   UNL     1       8.804  -1.214  22.831  0.00  0.00    +0.015 C 
BRANCH  15  16
ATOM     16  C   UNL     1       8.104   0.125  22.551  0.00  0.00    -0.008 C 
ATOM     17  C   UNL     1       8.976   1.001  21.619  0.00  0.00    +0.019 C 
ATOM     18  C   UNL     1      10.192   1.616  22.326  0.00  0.00    +0.085 C 
ATOM     19  N   UNL     1       9.887   2.313  23.585  0.00  0.00    -0.298 NA
ATOM     20  C   UNL     1       9.070   1.480  24.475  0.00  0.00    +0.085 C 
ATOM     21  C   UNL     1       7.800   0.928  23.814  0.00  0.00    +0.019 C 
BRANCH  19  22
ATOM     22  C   UNL     1       9.326   3.654  23.364  0.00  0.00    +0.119 C 
BRANCH  22  23
ATOM     23  C   UNL     1      10.248   4.764  23.840  0.00  0.00    -0.033 A 
ATOM     24  C   UNL     1       9.800   5.724  24.760  0.00  0.00    +0.005 A 
ATOM     25  C   UNL     1      10.666   6.711  25.235  0.00  0.00    +0.000 A 
ATOM     26  C   UNL     1      11.986   6.747  24.793  0.00  0.00    +0.000 A 
ATOM     27  C   UNL     1      12.443   5.809  23.872  0.00  0.00    +0.000 A 
ATOM     28  C   UNL     1      11.576   4.821  23.393  0.00  0.00    +0.005 A 
ENDBRANCH  22  23
ENDBRANCH  19  22
ENDBRANCH  15  16
ENDBRANCH   6  15
TORSDOF 6
ENDMDL
MODEL 2
REMARK VINA RESULT:      -7.4      1.426      2.234
REMARK  Name = 
REMARK  8 active torsions:
REMARK  status: ('A' for Active; 'I' for Inactive)
REMARK    1  A    between atoms: C_1  and  O_2
REMARK    2  A    between atoms: O_2  and  C_3
REMARK    3  A    between atoms: C_4  and  O_5
REMARK    4  A    between atoms: O_5  and  C_6
REMARK    5  A    between atoms: C_11  and  C_12
REMARK    6  A    between atoms: C_12  and  C_13
REMARK    7  A    between atoms: N_16  and  C_17
REMARK    8  A    between atoms: C_17  and  C_18
REMARK                            x       y       z     vdW  Elec       q    Type
REMARK                         _______ _______ _______ _____ _____    ______ ____
ROOT
ATOM      1  C   UNL     1       5.136  -5.591  24.912  0.00  0.00    +0.162 A 
ATOM      2  C   UNL     1       5.575  -4.911  23.762  0.00  0.00    +0.053 A 
ATOM      3  C   UNL     1       6.885  -4.456  23.734  0.00  0.00    -0.033 A 
ATOM      4  C   UNL     1       7.777  -4.877  24.720  0.00  0.00    +0.025 A 
ATOM      5  C   UNL     1       9.017  -4.143  24.539  0.00  0.00    +0.167 C 
ATOM      6  C   UNL     1       8.613  -2.878  23.836  0.00  0.00    +0.065 C 
ATOM      7  O   UNL     1      10.108  -4.503  24.928  0.00  0.00    -0.292 OA
ATOM      8  C   UNL     1       7.395  -5.539  25.859  0.00  0.00    +0.061 A 
ATOM      9  C   UNL     1       7.538  -3.403  22.854  0.00  0.00    +0.047 C 
ATOM     10  C   UNL     1       6.034  -5.793  25.999  0.00  0.00    +0.162 A 
ENDROOT
BRANCH   1  12
ATOM     11  C   UNL     1       3.431  -7.174  24.361  0.00  0.00    +0.277 C 
ATOM     12  O   UNL     1       3.860  -6.053  25.118  0.00  0.00    -0.491 OA
ENDBRANCH   1  12
BRANCH  10  13
ATOM     13  O   UNL     1       5.518  -6.153  27.226  0.00  0.00    -0.491 OA
ATOM     14  C   UNL     1       5.613  -5.090  28.192  0.00  0.00    +0.277 C 
ENDBRANCH  10  13
BRANCH   6  15
ATOM     15  C   UNL     1       9.753  -1.919  23.497  0.00  0.00    +0.015 C 
BRANCH  15  16
ATOM     16  C   UNL     1      10.106  -0.777  24.464  0.00  0.00    -0.008 C 
ATOM     17  C   UNL     1       8.827  -0.245  25.155  0.00  0.00    +0.019 C 
ATOM     18  C   UNL     1       7.948   0.610  24.231  0.00  0.00    +0.085 C 
ATOM     19  N   UNL     1       8.661   1.685  23.524  0.00  0.00    -0.298 NA
ATOM     20  C   UNL     1       9.868   1.181  22.858  0.00  0.00    +0.085 C 
ATOM     21  C   UNL     1      10.806   0.399  23.787  0.00  0.00    +0.019 C 
BRANCH  19  22
ATOM     22  C   UNL     1       8.912   2.853  24.382  0.00  0.00    +0.119 C 
BRANCH  22  23
ATOM     23  C   UNL     1       8.575   4.168  23.699  0.00  0.00    -0.033 A 
ATOM     24  C   UNL     1       7.516   4.249  22.782  0.00  0.00    +0.005 A 
ATOM     25  C   UNL     1       7.177   5.471  22.196  0.00  0.00    +0.000 A 
ATOM     26  C   UNL     1       7.893   6.620  22.522  0.00  0.00    +0.000 A 
ATOM     27  C   UNL     1       8.953   6.553  23.421  0.00  0.00    +0.000 A 
ATOM     28  C   UNL     1       9.297   5.330  24.007  0.00  0.00    +0.005 A 
ENDBRANCH  22  23
ENDBRANCH  19  22
ENDBRANCH  15  16
ENDBRANCH   6  15
TORSDOF 6
ENDMDL
MODEL 3
REMARK VINA RESULT:      -7.4      3.098      9.765
REMARK  Name = 
REMARK  8 active torsions:
REMARK  status: ('A' for Active; 'I' for Inactive)
REMARK    1  A    between atoms: C_1  and  O_2
REMARK    2  A    between atoms: O_2  and  C_3
REMARK    3  A    between atoms: C_4  and  O_5
REMARK    4  A    between atoms: O_5  and  C_6
REMARK    5  A    between atoms: C_11  and  C_12
REMARK    6  A    between atoms: C_12  and  C_13
REMARK    7  A    between atoms: N_16  and  C_17
REMARK    8  A    between atoms: C_17  and  C_18
REMARK                            x       y       z     vdW  Elec       q    Type
REMARK                         _______ _______ _______ _____ _____    ______ ____
ROOT
ATOM      1  C   UNL     1       9.077   3.453  23.426  0.00  0.00    +0.162 A 
ATOM      2  C   UNL     1       9.971   2.582  24.074  0.00  0.00    +0.053 A 
ATOM      3  C   UNL     1      10.023   1.264  23.643  0.00  0.00    -0.033 A 
ATOM      4  C   UNL     1       9.379   0.904  22.459  0.00  0.00    +0.025 A 
ATOM      5  C   UNL     1       9.467  -0.539  22.328  0.00  0.00    +0.167 C 
ATOM      6  C   UNL     1       9.626  -1.042  23.734  0.00  0.00    +0.065 C 
ATOM      7  O   UNL     1       9.384  -1.154  21.286  0.00  0.00    -0.292 OA
ATOM      8  C   UNL     1       8.498   1.719  21.795  0.00  0.00    +0.061 A 
ATOM      9  C   UNL     1      10.568   0.026  24.338  0.00  0.00    +0.047 C 
ATOM     10  C   UNL     1       8.264   2.969  22.362  0.00  0.00    +0.162 A 
ENDROOT
BRANCH   1  12
ATOM     11  C   UNL     1       9.989   5.635  23.782  0.00  0.00    +0.277 C 
ATOM     12  O   UNL     1       8.867   4.766  23.767  0.00  0.00    -0.491 OA
ENDBRANCH   1  12
BRANCH  10  13
ATOM     13  O   UNL     1       7.178   3.719  21.963  0.00  0.00    -0.491 OA
ATOM     14  C   UNL     1       5.937   3.198  22.475  0.00  0.00    +0.277 C 
ENDBRANCH  10  13
BRANCH   6  15
ATOM     15  C   UNL     1       9.769  -2.557  23.881  0.00  0.00    +0.015 C 
BRANCH  15  16
ATOM     16  C   UNL     1       9.106  -3.277  25.066  0.00  0.00    -0.008 C 
ATOM     17  C   UNL     1       9.011  -4.797  24.785  0.00  0.00    +0.019 C 
ATOM     18  C   UNL     1       7.921  -5.158  23.766  0.00  0.00    +0.085 C 
ATOM     19  N   UNL     1       6.598  -4.582  24.047  0.00  0.00    -0.298 NA
ATOM     20  C   UNL     1       6.684  -3.139  24.302  0.00  0.00    +0.085 C 
ATOM     21  C   UNL     1       7.704  -2.763  25.384  0.00  0.00    +0.019 C 
BRANCH  19  22
ATOM     22  C   UNL     1       5.874  -5.317  25.095  0.00  0.00    +0.119 C 
BRANCH  22  23
ATOM     23  C   UNL     1       4.606  -5.978  24.582  0.00  0.00    -0.033 A 
ATOM     24  C   UNL     1       4.109  -7.143  25.187  0.00  0.00    +0.005 A 
ATOM     25  C   UNL     1       2.915  -7.718  24.745  0.00  0.00    +0.000 A 
ATOM     26  C   UNL     1       2.209  -7.134  23.696  0.00  0.00    +0.000 A 
ATOM     27  C   UNL     1       2.695  -5.984  23.079  0.00  0.00    +0.000 A 
ATOM     28  C   UNL     1       3.892  -5.409  23.518  0.00  0.00    +0.005 A 
ENDBRANCH  22  23
ENDBRANCH  19  22
ENDBRANCH  15  16
ENDBRANCH   6  15
TORSDOF 6
ENDMDL
MODEL 4
REMARK VINA RESULT:      -6.9      3.351      9.584
REMARK  Name = 
REMARK  8 active torsions:
REMARK  status: ('A' for Active; 'I' for Inactive)
REMARK    1  A    between atoms: C_1  and  O_2
REMARK    2  A    between atoms: O_2  and  C_3
REMARK    3  A    between atoms: C_4  and  O_5
REMARK    4  A    between atoms: O_5  and  C_6
REMARK    5  A    between atoms: C_11  and  C_12
REMARK    6  A    between atoms: C_12  and  C_13
REMARK    7  A    between atoms: N_16  and  C_17
REMARK    8  A    between atoms: C_17  and  C_18
REMARK                            x       y       z     vdW  Elec       q    Type
REMARK                         _______ _______ _______ _____ _____    ______ ____
ROOT
ATOM      1  C   UNL     1       9.103   3.270  23.394  0.00  0.00    +0.162 A 
ATOM      2  C   UNL     1       9.948   2.401  24.109  0.00  0.00    +0.053 A 
ATOM      3  C   UNL     1       9.996   1.072  23.718  0.00  0.00    -0.033 A 
ATOM      4  C   UNL     1       9.404   0.689  22.514  0.00  0.00    +0.025 A 
ATOM      5  C   UNL     1       9.472  -0.758  22.426  0.00  0.00    +0.167 C 
ATOM      6  C   UNL     1       9.552  -1.224  23.853  0.00  0.00    +0.065 C 
ATOM      7  O   UNL     1       9.427  -1.402  21.399  0.00  0.00    -0.292 OA
ATOM      8  C   UNL     1       8.571   1.500  21.785  0.00  0.00    +0.061 A 
ATOM      9  C   UNL     1      10.484  -0.155  24.472  0.00  0.00    +0.047 C 
ATOM     10  C   UNL     1       8.334   2.769  22.305  0.00  0.00    +0.162 A 
ENDROOT
BRANCH   1  12
ATOM     11  C   UNL     1       8.609   4.937  25.034  0.00  0.00    +0.277 C 
ATOM     12  O   UNL     1       8.901   4.595  23.689  0.00  0.00    -0.491 OA
ENDBRANCH   1  12
BRANCH  10  13
ATOM     13  O   UNL     1       7.282   3.526  21.833  0.00  0.00    -0.491 OA
ATOM     14  C   UNL     1       6.016   3.097  22.368  0.00  0.00    +0.277 C 
ENDBRANCH  10  13
BRANCH   6  15
ATOM     15  C   UNL     1       9.660  -2.737  24.047  0.00  0.00    +0.015 C 
BRANCH  15  16
ATOM     16  C   UNL     1       8.458  -3.637  23.721  0.00  0.00    -0.008 C 
ATOM     17  C   UNL     1       7.189  -3.121  24.442  0.00  0.00    +0.019 C 
ATOM     18  C   UNL     1       7.186  -3.412  25.950  0.00  0.00    +0.085 C 
ATOM     19  N   UNL     1       7.475  -4.809  26.309  0.00  0.00    -0.298 NA
ATOM     20  C   UNL     1       8.684  -5.298  25.635  0.00  0.00    +0.085 C 
ATOM     21  C   UNL     1       8.668  -5.098  24.114  0.00  0.00    +0.019 C 
BRANCH  19  22
ATOM     22  C   UNL     1       6.311  -5.689  26.127  0.00  0.00    +0.119 C 
BRANCH  22  23
ATOM     23  C   UNL     1       5.586  -5.983  27.430  0.00  0.00    -0.033 A 
ATOM     24  C   UNL     1       6.298  -6.123  28.631  0.00  0.00    +0.005 A 
ATOM     25  C   UNL     1       5.624  -6.342  29.835  0.00  0.00    +0.000 A 
ATOM     26  C   UNL     1       4.234  -6.422  29.847  0.00  0.00    +0.000 A 
ATOM     27  C   UNL     1       3.514  -6.295  28.663  0.00  0.00    +0.000 A 
ATOM     28  C   UNL     1       4.187  -6.080  27.456  0.00  0.00    +0.005 A 
ENDBRANCH  22  23
ENDBRANCH  19  22
ENDBRANCH  15  16
ENDBRANCH   6  15
TORSDOF 6
ENDMDL
MODEL 5
REMARK VINA RESULT:      -6.7      3.430      9.526
REMARK  Name = 
REMARK  8 active torsions:
REMARK  status: ('A' for Active; 'I' for Inactive)
REMARK    1  A    between atoms: C_1  and  O_2
REMARK    2  A    between atoms: O_2  and  C_3
REMARK    3  A    between atoms: C_4  and  O_5
REMARK    4  A    between atoms: O_5  and  C_6
REMARK    5  A    between atoms: C_11  and  C_12
REMARK    6  A    between atoms: C_12  and  C_13
REMARK    7  A    between atoms: N_16  and  C_17
REMARK    8  A    between atoms: C_17  and  C_18
REMARK                            x       y       z     vdW  Elec       q    Type
REMARK                         _______ _______ _______ _____ _____    ______ ____
ROOT
ATOM      1  C   UNL     1       8.164   5.079  23.538  0.00  0.00    +0.162 A 
ATOM      2  C   UNL     1       9.368   4.424  23.857  0.00  0.00    +0.053 A 
ATOM      3  C   UNL     1       9.567   3.146  23.355  0.00  0.00    -0.033 A 
ATOM      4  C   UNL     1       8.700   2.650  22.381  0.00  0.00    +0.025 A 
ATOM      5  C   UNL     1       9.044   1.260  22.147  0.00  0.00    +0.167 C 
ATOM      6  C   UNL     1       9.701   0.809  23.421  0.00  0.00    +0.065 C 
ATOM      7  O   UNL     1       8.795   0.636  21.137  0.00  0.00    -0.292 OA
ATOM      8  C   UNL     1       7.516   3.253  22.040  0.00  0.00    +0.061 A 
ATOM      9  C   UNL     1      10.533   2.058  23.796  0.00  0.00    +0.047 C 
ATOM     10  C   UNL     1       7.200   4.426  22.720  0.00  0.00    +0.162 A 
ENDROOT
BRANCH   1  12
ATOM     11  C   UNL     1       8.725   7.035  24.794  0.00  0.00    +0.277 C 
ATOM     12  O   UNL     1       7.793   6.317  24.000  0.00  0.00    -0.491 OA
ENDBRANCH   1  12
BRANCH  10  13
ATOM     13  O   UNL     1       5.914   4.922  22.687  0.00  0.00    -0.491 OA
ATOM     14  C   UNL     1       4.926   3.876  22.619  0.00  0.00    +0.277 C 
ENDBRANCH  10  13
BRANCH   6  15
ATOM     15  C   UNL     1      10.191  -0.639  23.434  0.00  0.00    +0.015 C 
BRANCH  15  16
ATOM     16  C   UNL     1       9.824  -1.561  24.607  0.00  0.00    -0.008 C 
ATOM     17  C   UNL     1       9.612  -3.010  24.106  0.00  0.00    +0.019 C 
ATOM     18  C   UNL     1       8.290  -3.203  23.348  0.00  0.00    +0.085 C 
ATOM     19  N   UNL     1       7.099  -2.699  24.048  0.00  0.00    -0.298 NA
ATOM     20  C   UNL     1       7.293  -1.321  24.515  0.00  0.00    +0.085 C 
ATOM     21  C   UNL     1       8.564  -1.125  25.352  0.00  0.00    +0.019 C 
BRANCH  19  22
ATOM     22  C   UNL     1       6.638  -3.613  25.103  0.00  0.00    +0.119 C 
BRANCH  22  23
ATOM     23  C   UNL     1       5.527  -4.539  24.637  0.00  0.00    -0.033 A 
ATOM     24  C   UNL     1       4.485  -4.059  23.829  0.00  0.00    +0.005 A 
ATOM     25  C   UNL     1       3.495  -4.925  23.359  0.00  0.00    +0.000 A 
ATOM     26  C   UNL     1       3.538  -6.276  23.693  0.00  0.00    +0.000 A 
ATOM     27  C   UNL     1       4.559  -6.765  24.502  0.00  0.00    +0.000 A 
ATOM     28  C   UNL     1       5.551  -5.899  24.976  0.00  0.00    +0.005 A 
ENDBRANCH  22  23
ENDBRANCH  19  22
ENDBRANCH  15  16
ENDBRANCH   6  15
TORSDOF 6
ENDMDL
MODEL 6
REMARK VINA RESULT:      -6.6      3.301      9.862
REMARK  Name = 
REMARK  8 active torsions:
REMARK  status: ('A' for Active; 'I' for Inactive)
REMARK    1  A    between atoms: C_1  and  O_2
REMARK    2  A    between atoms: O_2  and  C_3
REMARK    3  A    between atoms: C_4  and  O_5
REMARK    4  A    between atoms: O_5  and  C_6
REMARK    5  A    between atoms: C_11  and  C_12
REMARK    6  A    between atoms: C_12  and  C_13
REMARK    7  A    between atoms: N_16  and  C_17
REMARK    8  A    between atoms: C_17  and  C_18
REMARK                            x       y       z     vdW  Elec       q    Type
REMARK                         _______ _______ _______ _____ _____    ______ ____
ROOT
ATOM      1  C   UNL     1      10.763   3.977  23.467  0.00  0.00    +0.162 A 
ATOM      2  C   UNL     1      11.018   2.775  22.781  0.00  0.00    +0.053 A 
ATOM      3  C   UNL     1       9.948   1.930  22.528  0.00  0.00    -0.033 A 
ATOM      4  C   UNL     1       8.647   2.388  22.744  0.00  0.00    +0.025 A 
ATOM      5  C   UNL     1       7.745   1.268  22.545  0.00  0.00    +0.167 C 
ATOM      6  C   UNL     1       8.581   0.050  22.816  0.00  0.00    +0.065 C 
ATOM      7  O   UNL     1       6.569   1.358  22.261  0.00  0.00    -0.292 OA
ATOM      8  C   UNL     1       8.351   3.550  23.409  0.00  0.00    +0.061 A 
ATOM      9  C   UNL     1       9.928   0.453  22.170  0.00  0.00    +0.047 C 
ATOM     10  C   UNL     1       9.435   4.290  23.874  0.00  0.00    +0.162 A 
ENDROOT
BRANCH   1  12
ATOM     11  C   UNL     1      12.678   5.279  22.873  0.00  0.00    +0.277 C 
ATOM     12  O   UNL     1      11.717   4.890  23.841  0.00  0.00    -0.491 OA
ENDBRANCH   1  12
BRANCH  10  13
ATOM     13  O   UNL     1       9.246   5.281  24.814  0.00  0.00    -0.491 OA
ATOM     14  C   UNL     1       8.158   4.984  25.709  0.00  0.00    +0.277 C 
ENDBRANCH  10  13
BRANCH   6  15
ATOM     15  C   UNL     1       7.866  -1.291  22.650  0.00  0.00    +0.015 C 
BRANCH  15  16
ATOM     16  C   UNL     1       8.527  -2.579  23.165  0.00  0.00    -0.008 C 
ATOM     17  C   UNL     1       7.711  -3.817  22.718  0.00  0.00    +0.019 C 
ATOM     18  C   UNL     1       6.404  -3.998  23.503  0.00  0.00    +0.085 C 
ATOM     19  N   UNL     1       6.552  -3.954  24.966  0.00  0.00    -0.298 NA
ATOM     20  C   UNL     1       7.316  -2.775  25.393  0.00  0.00    +0.085 C 
ATOM     21  C   UNL     1       8.669  -2.625  24.685  0.00  0.00    +0.019 C 
BRANCH  19  22
ATOM     22  C   UNL     1       7.069  -5.215  25.518  0.00  0.00    +0.119 C 
BRANCH  22  23
ATOM     23  C   UNL     1       6.216  -5.754  26.654  0.00  0.00    -0.033 A 
ATOM     24  C   UNL     1       6.705  -5.776  27.969  0.00  0.00    +0.005 A 
ATOM     25  C   UNL     1       5.898  -6.225  29.018  0.00  0.00    +0.000 A 
ATOM     26  C   UNL     1       4.599  -6.654  28.760  0.00  0.00    +0.000 A 
ATOM     27  C   UNL     1       4.104  -6.647  27.460  0.00  0.00    +0.000 A 
ATOM     28  C   UNL     1       4.911  -6.202  26.407  0.00  0.00    +0.005 A 
ENDBRANCH  22  23
ENDBRANCH  19  22
ENDBRANCH  15  16
ENDBRANCH   6  15
TORSDOF 6
ENDMDL
MODEL 7
REMARK VINA RESULT:      -6.6      3.948      9.643
REMARK  Name = 
REMARK  8 active torsions:
REMARK  status: ('A' for Active; 'I' for Inactive)
REMARK    1  A    between atoms: C_1  and  O_2
REMARK    2  A    between atoms: O_2  and  C_3
REMARK    3  A    between atoms: C_4  and  O_5
REMARK    4  A    between atoms: O_5  and  C_6
REMARK    5  A    between atoms: C_11  and  C_12
REMARK    6  A    between atoms: C_12  and  C_13
REMARK    7  A    between atoms: N_16  and  C_17
REMARK    8  A    between atoms: C_17  and  C_18
REMARK                            x       y       z     vdW  Elec       q    Type
REMARK                         _______ _______ _______ _____ _____    ______ ____
ROOT
ATOM      1  C   UNL     1       7.115   5.634  24.859  0.00  0.00    +0.162 A 
ATOM      2  C   UNL     1       7.335   4.389  25.477  0.00  0.00    +0.053 A 
ATOM      3  C   UNL     1       8.406   3.625  25.037  0.00  0.00    -0.033 A 
ATOM      4  C   UNL     1       9.349   4.194  24.181  0.00  0.00    +0.025 A 
ATOM      5  C   UNL     1      10.262   3.145  23.766  0.00  0.00    +0.167 C 
ATOM      6  C   UNL     1       9.473   1.874  23.904  0.00  0.00    +0.065 C 
ATOM      7  O   UNL     1      11.394   3.319  23.366  0.00  0.00    -0.292 OA
ATOM      8  C   UNL     1       9.175   5.402  23.554  0.00  0.00    +0.061 A 
ATOM      9  C   UNL     1       8.688   2.141  25.210  0.00  0.00    +0.047 C 
ATOM     10  C   UNL     1       7.982   6.069  23.817  0.00  0.00    +0.162 A 
ENDROOT
BRANCH   1  12
ATOM     11  C   UNL     1       4.910   5.926  25.737  0.00  0.00    +0.277 C 
ATOM     12  O   UNL     1       6.071   6.480  25.139  0.00  0.00    -0.491 OA
ENDBRANCH   1  12
BRANCH  10  13
ATOM     13  O   UNL     1       7.575   7.108  23.006  0.00  0.00    -0.491 OA
ATOM     14  C   UNL     1       6.918   6.644  21.812  0.00  0.00    +0.277 C 
ENDBRANCH  10  13
BRANCH   6  15
ATOM     15  C   UNL     1      10.222   0.591  23.548  0.00  0.00    +0.015 C 
BRANCH  15  16
ATOM     16  C   UNL     1       9.679  -0.331  22.445  0.00  0.00    -0.008 C 
ATOM     17  C   UNL     1       8.137  -0.432  22.540  0.00  0.00    +0.019 C 
ATOM     18  C   UNL     1       7.656  -1.303  23.709  0.00  0.00    +0.085 C 
ATOM     19  N   UNL     1       8.285  -2.630  23.789  0.00  0.00    -0.298 NA
ATOM     20  C   UNL     1       9.748  -2.537  23.710  0.00  0.00    +0.085 C 
ATOM     21  C   UNL     1      10.252  -1.746  22.496  0.00  0.00    +0.019 C 
BRANCH  19  22
ATOM     22  C   UNL     1       7.709  -3.584  22.829  0.00  0.00    +0.119 C 
BRANCH  22  23
ATOM     23  C   UNL     1       6.488  -4.305  23.377  0.00  0.00    -0.033 A 
ATOM     24  C   UNL     1       6.592  -5.139  24.500  0.00  0.00    +0.005 A 
ATOM     25  C   UNL     1       5.458  -5.759  25.031  0.00  0.00    +0.000 A 
ATOM     26  C   UNL     1       4.213  -5.550  24.444  0.00  0.00    +0.000 A 
ATOM     27  C   UNL     1       4.096  -4.733  23.323  0.00  0.00    +0.000 A 
ATOM     28  C   UNL     1       5.230  -4.114  22.787  0.00  0.00    +0.005 A 
ENDBRANCH  22  23
ENDBRANCH  19  22
ENDBRANCH  15  16
ENDBRANCH   6  15
TORSDOF 6
ENDMDL
MODEL 8
REMARK VINA RESULT:      -6.6      1.628      2.960
REMARK  Name = 
REMARK  8 active torsions:
REMARK  status: ('A' for Active; 'I' for Inactive)
REMARK    1  A    between atoms: C_1  and  O_2
REMARK    2  A    between atoms: O_2  and  C_3
REMARK    3  A    between atoms: C_4  and  O_5
REMARK    4  A    between atoms: O_5  and  C_6
REMARK    5  A    between atoms: C_11  and  C_12
REMARK    6  A    between atoms: C_12  and  C_13
REMARK    7  A    between atoms: N_16  and  C_17
REMARK    8  A    between atoms: C_17  and  C_18
REMARK                            x       y       z     vdW  Elec       q    Type
REMARK                         _______ _______ _______ _____ _____    ______ ____
ROOT
ATOM      1  C   UNL     1       3.316  -6.791  24.874  0.00  0.00    +0.162 A 
ATOM      2  C   UNL     1       4.264  -6.489  23.878  0.00  0.00    +0.053 A 
ATOM      3  C   UNL     1       5.506  -6.022  24.282  0.00  0.00    -0.033 A 
ATOM      4  C   UNL     1       5.856  -6.085  25.631  0.00  0.00    +0.025 A 
ATOM      5  C   UNL     1       7.128  -5.403  25.791  0.00  0.00    +0.167 C 
ATOM      6  C   UNL     1       7.189  -4.434  24.644  0.00  0.00    +0.065 C 
ATOM      7  O   UNL     1       7.913  -5.587  26.697  0.00  0.00    -0.292 OA
ATOM      8  C   UNL     1       4.967  -6.372  26.635  0.00  0.00    +0.061 A 
ATOM      9  C   UNL     1       6.574  -5.274  23.500  0.00  0.00    +0.047 C 
ATOM     10  C   UNL     1       3.653  -6.614  26.246  0.00  0.00    +0.162 A 
ENDROOT
BRANCH   1  12
ATOM     11  C   UNL     1       1.816  -8.588  24.389  0.00  0.00    +0.277 C 
ATOM     12  O   UNL     1       2.030  -7.208  24.639  0.00  0.00    -0.491 OA
ENDBRANCH   1  12
BRANCH  10  13
ATOM     13  O   UNL     1       2.638  -6.591  27.179  0.00  0.00    -0.491 OA
ATOM     14  C   UNL     1       2.961  -5.772  28.318  0.00  0.00    +0.277 C 
ENDBRANCH  10  13
BRANCH   6  15
ATOM     15  C   UNL     1       8.462  -3.591  24.560  0.00  0.00    +0.015 C 
BRANCH  15  16
ATOM     16  C   UNL     1       8.769  -2.794  23.282  0.00  0.00    -0.008 C 
ATOM     17  C   UNL     1       9.938  -1.811  23.531  0.00  0.00    +0.019 C 
ATOM     18  C   UNL     1       9.537  -0.590  24.372  0.00  0.00    +0.085 C 
ATOM     19  N   UNL     1       8.335   0.115  23.901  0.00  0.00    -0.298 NA
ATOM     20  C   UNL     1       7.221  -0.814  23.675  0.00  0.00    +0.085 C 
ATOM     21  C   UNL     1       7.576  -1.995  22.762  0.00  0.00    +0.019 C 
BRANCH  19  22
ATOM     22  C   UNL     1       8.609   0.987  22.749  0.00  0.00    +0.119 C 
BRANCH  22  23
ATOM     23  C   UNL     1       9.200   2.327  23.153  0.00  0.00    -0.033 A 
ATOM     24  C   UNL     1      10.588   2.535  23.132  0.00  0.00    +0.005 A 
ATOM     25  C   UNL     1      11.124   3.784  23.455  0.00  0.00    +0.000 A 
ATOM     26  C   UNL     1      10.277   4.834  23.800  0.00  0.00    +0.000 A 
ATOM     27  C   UNL     1       8.899   4.641  23.835  0.00  0.00    +0.000 A 
ATOM     28  C   UNL     1       8.361   3.390  23.516  0.00  0.00    +0.005 A 
ENDBRANCH  22  23
ENDBRANCH  19  22
ENDBRANCH  15  16
ENDBRANCH   6  15
TORSDOF 6
ENDMDL
MODEL 9
REMARK VINA RESULT:      -6.6      3.015     10.080
REMARK  Name = 
REMARK  8 active torsions:
REMARK  status: ('A' for Active; 'I' for Inactive)
REMARK    1  A    between atoms: C_1  and  O_2
REMARK    2  A    between atoms: O_2  and  C_3
REMARK    3  A    between atoms: C_4  and  O_5
REMARK    4  A    between atoms: O_5  and  C_6
REMARK    5  A    between atoms: C_11  and  C_12
REMARK    6  A    between atoms: C_12  and  C_13
REMARK    7  A    between atoms: N_16  and  C_17
REMARK    8  A    between atoms: C_17  and  C_18
REMARK                            x       y       z     vdW  Elec       q    Type
REMARK                         _______ _______ _______ _____ _____    ______ ____
ROOT
ATOM      1  C   UNL     1       9.994   2.360  23.462  0.00  0.00    +0.162 A 
ATOM      2  C   UNL     1      10.464   1.258  24.198  0.00  0.00    +0.053 A 
ATOM      3  C   UNL     1      10.017  -0.005  23.838  0.00  0.00    -0.033 A 
ATOM      4  C   UNL     1       9.317  -0.169  22.642  0.00  0.00    +0.025 A 
ATOM      5  C   UNL     1       8.847  -1.541  22.588  0.00  0.00    +0.167 C 
ATOM      6  C   UNL     1       8.759  -1.972  24.025  0.00  0.00    +0.065 C 
ATOM      7  O   UNL     1       8.562  -2.145  21.575  0.00  0.00    -0.292 OA
ATOM      8  C   UNL     1       8.837   0.875  21.893  0.00  0.00    +0.061 A 
ATOM      9  C   UNL     1      10.023  -1.308  24.621  0.00  0.00    +0.047 C 
ATOM     10  C   UNL     1       9.088   2.154  22.383  0.00  0.00    +0.162 A 
ENDROOT
BRANCH   1  12
ATOM     11  C   UNL     1      11.578   4.147  23.345  0.00  0.00    +0.277 C 
ATOM     12  O   UNL     1      10.296   3.673  23.726  0.00  0.00    -0.491 OA
ENDBRANCH   1  12
BRANCH  10  13
ATOM     13  O   UNL     1       8.386   3.235  21.892  0.00  0.00    -0.491 OA
ATOM     14  C   UNL     1       6.993   3.193  22.255  0.00  0.00    +0.277 C 
ENDBRANCH  10  13
BRANCH   6  15
ATOM     15  C   UNL     1       8.303  -3.413  24.254  0.00  0.00    +0.015 C 
BRANCH  15  16
ATOM     16  C   UNL     1       7.189  -3.710  25.270  0.00  0.00    -0.008 C 
ATOM     17  C   UNL     1       6.680  -5.162  25.099  0.00  0.00    +0.019 C 
ATOM     18  C   UNL     1       5.801  -5.355  23.856  0.00  0.00    +0.085 C 
ATOM     19  N   UNL     1       4.704  -4.385  23.719  0.00  0.00    -0.298 NA
ATOM     20  C   UNL     1       5.186  -3.006  23.869  0.00  0.00    +0.085 C 
ATOM     21  C   UNL     1       5.991  -2.769  25.153  0.00  0.00    +0.019 C 
BRANCH  19  22
ATOM     22  C   UNL     1       3.561  -4.701  24.588  0.00  0.00    +0.119 C 
BRANCH  22  23
ATOM     23  C   UNL     1       2.883  -6.009  24.216  0.00  0.00    -0.033 A 
ATOM     24  C   UNL     1       2.889  -7.097  25.102  0.00  0.00    +0.005 A 
ATOM     25  C   UNL     1       2.220  -8.280  24.778  0.00  0.00    +0.000 A 
ATOM     26  C   UNL     1       1.540  -8.384  23.567  0.00  0.00    +0.000 A 
ATOM     27  C   UNL     1       1.534  -7.316  22.674  0.00  0.00    +0.000 A 
ATOM     28  C   UNL     1       2.206  -6.132  22.995  0.00  0.00    +0.005 A 
ENDBRANCH  22  23
ENDBRANCH  19  22
ENDBRANCH  15  16
ENDBRANCH   6  15
TORSDOF 6
ENDMDL
