MODEL 1
REMARK VINA RESULT:      -5.4      0.000      0.000
REMARK  Name = 
REMARK  5 active torsions:
REMARK  status: ('A' for Active; 'I' for Inactive)
REMARK    1  A    between atoms: O5*_1  and  C5*_2
REMARK    2  A    between atoms: C5*_2  and  C4*_3
REMARK    3  A    between atoms: C1*_6  and  N_14
REMARK    4  A    between atoms: C2*_8  and  O2*_10
REMARK    5  A    between atoms: C3*_11  and  O3*_13
REMARK                            x       y       z     vdW  Elec       q    Type
REMARK                         _______ _______ _______ _____ _____    ______ ____
ROOT
ATOM      1  C4* UNL     1       6.344  -5.942  25.846  0.00  0.00    +0.177 C 
ATOM      2  C3* UNL     1       6.956  -5.292  27.084  0.00  0.00    +0.178 C 
ATOM      3  C2* UNL     1       8.023  -4.352  26.530  0.00  0.00    +0.195 C 
ATOM      4  C1* UNL     1       7.863  -4.457  25.004  0.00  0.00    +0.255 C 
ATOM      5  O4* UNL     1       6.577  -5.035  24.751  0.00  0.00    -0.346 OA
ENDROOT
BRANCH   4   6
ATOM      6  N   UNL     1       8.013  -3.170  24.342  0.00  0.00    -0.270 N 
ATOM      7  C   UNL     1       9.308  -2.832  23.931  0.00  0.00    +0.350 A 
ATOM      8  O   UNL     1      10.252  -3.582  24.174  0.00  0.00    -0.244 OA
ATOM      9  N   UNL     1       9.496  -1.633  23.287  0.00  0.00    -0.201 NA
ATOM     10  C   UNL     1       8.496  -0.826  23.194  0.00  0.00    +0.118 A 
ATOM     11  C   UNL     1       7.149  -1.064  23.725  0.00  0.00    +0.038 A 
ATOM     12  C   UNL     1       6.975  -2.263  24.275  0.00  0.00    +0.095 A 
ENDBRANCH   4   6
BRANCH   2  13
ATOM     13  O3* UNL     1       7.503  -6.271  27.967  0.00  0.00    -0.386 OA
ATOM     14  H3* UNL     1       8.388  -5.926  28.216  0.00  0.00    +0.210 HD
ENDBRANCH   2  13
BRANCH   3  15
ATOM     15  O2* UNL     1       9.329  -4.727  26.989  0.00  0.00    -0.385 OA
ATOM     16  H2* UNL     1       9.199  -5.228  27.826  0.00  0.00    +0.210 HD
ENDBRANCH   3  15
BRANCH   1  17
ATOM     17  C5* UNL     1       4.850  -6.233  25.975  0.00  0.00    +0.190 C 
BRANCH  17  18
ATOM     18  O5* UNL     1       4.600  -7.169  27.024  0.00  0.00    -0.392 OA
ATOM     19  H5* UNL     1       4.602  -8.051  26.614  0.00  0.00    +0.210 HD
ENDBRANCH  17  18
ENDBRANCH   1  17
TORSDOF 5
ENDMDL
MODEL 2
REMARK VINA RESULT:      -5.4      1.341      1.545
REMARK  Name = 
REMARK  5 active torsions:
REMARK  status: ('A' for Active; 'I' for Inactive)
REMARK    1  A    between atoms: O5*_1  and  C5*_2
REMARK    2  A    between atoms: C5*_2  and  C4*_3
REMARK    3  A    between atoms: C1*_6  and  N_14
REMARK    4  A    between atoms: C2*_8  and  O2*_10
REMARK    5  A    between atoms: C3*_11  and  O3*_13
REMARK                            x       y       z     vdW  Elec       q    Type
REMARK                         _______ _______ _______ _____ _____    ______ ____
ROOT
ATOM      1  C4* UNL     1       5.371  -6.481  25.308  0.00  0.00    +0.177 C 
ATOM      2  C3* UNL     1       5.626  -5.913  26.702  0.00  0.00    +0.178 C 
ATOM      3  C2* UNL     1       6.969  -5.197  26.579  0.00  0.00    +0.195 C 
ATOM      4  C1* UNL     1       7.326  -5.319  25.089  0.00  0.00    +0.255 C 
ATOM      5  O4* UNL     1       6.124  -5.665  24.390  0.00  0.00    -0.346 OA
ENDROOT
BRANCH   4   6
ATOM      6  N   UNL     1       7.922  -4.101  24.560  0.00  0.00    -0.270 N 
ATOM      7  C   UNL     1       9.321  -4.053  24.543  0.00  0.00    +0.350 A 
ATOM      8  O   UNL     1       9.980  -4.986  25.000  0.00  0.00    -0.244 OA
ATOM      9  N   UNL     1       9.929  -2.929  24.039  0.00  0.00    -0.201 NA
ATOM     10  C   UNL     1       9.187  -1.927  23.713  0.00  0.00    +0.118 A 
ATOM     11  C   UNL     1       7.727  -1.865  23.836  0.00  0.00    +0.038 A 
ATOM     12  C   UNL     1       7.158  -2.993  24.254  0.00  0.00    +0.095 A 
ENDBRANCH   4   6
BRANCH   2  13
ATOM     13  O3* UNL     1       5.653  -6.946  27.687  0.00  0.00    -0.386 OA
ATOM     14  H3* UNL     1       4.790  -6.881  28.152  0.00  0.00    +0.210 HD
ENDBRANCH   2  13
BRANCH   3  15
ATOM     15  O2* UNL     1       7.949  -5.785  27.445  0.00  0.00    -0.385 OA
ATOM     16  H2* UNL     1       7.500  -5.948  28.307  0.00  0.00    +0.210 HD
ENDBRANCH   3  15
BRANCH   1  17
ATOM     17  C5* UNL     1       3.897  -6.495  24.908  0.00  0.00    +0.190 C 
BRANCH  17  18
ATOM     18  O5* UNL     1       3.609  -7.602  24.053  0.00  0.00    -0.392 OA
ATOM     19  H5* UNL     1       4.087  -8.366  24.420  0.00  0.00    +0.210 HD
ENDBRANCH  17  18
ENDBRANCH   1  17
TORSDOF 5
ENDMDL
MODEL 3
REMARK VINA RESULT:      -5.3      3.209      6.519
REMARK  Name = 
REMARK  5 active torsions:
REMARK  status: ('A' for Active; 'I' for Inactive)
REMARK    1  A    between atoms: O5*_1  and  C5*_2
REMARK    2  A    between atoms: C5*_2  and  C4*_3
REMARK    3  A    between atoms: C1*_6  and  N_14
REMARK    4  A    between atoms: C2*_8  and  O2*_10
REMARK    5  A    between atoms: C3*_11  and  O3*_13
REMARK                            x       y       z     vdW  Elec       q    Type
REMARK                         _______ _______ _______ _____ _____    ______ ____
ROOT
ATOM      1  C4* UNL     1       9.535   1.412  23.835  0.00  0.00    +0.177 C 
ATOM      2  C3* UNL     1       9.043   1.353  22.391  0.00  0.00    +0.178 C 
ATOM      3  C2* UNL     1       8.860  -0.137  22.114  0.00  0.00    +0.195 C 
ATOM      4  C1* UNL     1       9.157  -0.811  23.464  0.00  0.00    +0.255 C 
ATOM      5  O4* UNL     1       9.077   0.203  24.472  0.00  0.00    -0.346 OA
ENDROOT
BRANCH   4   6
ATOM      6  N   UNL     1       8.254  -1.917  23.742  0.00  0.00    -0.270 N 
ATOM      7  C   UNL     1       8.853  -3.142  24.056  0.00  0.00    +0.350 A 
ATOM      8  O   UNL     1      10.079  -3.256  24.043  0.00  0.00    -0.244 OA
ATOM      9  N   UNL     1       8.040  -4.212  24.341  0.00  0.00    -0.201 NA
ATOM     10  C   UNL     1       6.768  -4.070  24.194  0.00  0.00    +0.118 A 
ATOM     11  C   UNL     1       6.089  -2.853  23.735  0.00  0.00    +0.038 A 
ATOM     12  C   UNL     1       6.893  -1.810  23.541  0.00  0.00    +0.095 A 
ENDBRANCH   4   6
BRANCH   2  13
ATOM     13  O3* UNL     1       9.980   1.957  21.499  0.00  0.00    -0.386 OA
ATOM     14  H3* UNL     1      10.831   1.968  21.989  0.00  0.00    +0.210 HD
ENDBRANCH   2  13
BRANCH   3  15
ATOM     15  O2* UNL     1       9.726  -0.576  21.059  0.00  0.00    -0.385 OA
ATOM     16  H2* UNL     1       9.726  -1.560  21.087  0.00  0.00    +0.210 HD
ENDBRANCH   3  15
BRANCH   1  17
ATOM     17  C5* UNL     1       9.036   2.632  24.608  0.00  0.00    +0.190 C 
BRANCH  17  18
ATOM     18  O5* UNL     1       9.429   3.843  23.961  0.00  0.00    -0.392 OA
ATOM     19  H5* UNL     1       8.760   4.020  23.276  0.00  0.00    +0.210 HD
ENDBRANCH  17  18
ENDBRANCH   1  17
TORSDOF 5
ENDMDL
MODEL 4
REMARK VINA RESULT:      -5.2      3.088      3.892
REMARK  Name = 
REMARK  5 active torsions:
REMARK  status: ('A' for Active; 'I' for Inactive)
REMARK    1  A    between atoms: O5*_1  and  C5*_2
REMARK    2  A    between atoms: C5*_2  and  C4*_3
REMARK    3  A    between atoms: C1*_6  and  N_14
REMARK    4  A    between atoms: C2*_8  and  O2*_10
REMARK    5  A    between atoms: C3*_11  and  O3*_13
REMARK                            x       y       z     vdW  Elec       q    Type
REMARK                         _______ _______ _______ _____ _____    ______ ____
ROOT
ATOM      1  C4* UNL     1       6.708  -4.840  22.802  0.00  0.00    +0.177 C 
ATOM      2  C3* UNL     1       5.714  -3.787  22.319  0.00  0.00    +0.178 C 
ATOM      3  C2* UNL     1       6.237  -2.477  22.902  0.00  0.00    +0.195 C 
ATOM      4  C1* UNL     1       7.557  -2.868  23.585  0.00  0.00    +0.255 C 
ATOM      5  O4* UNL     1       7.943  -4.145  23.063  0.00  0.00    -0.346 OA
ENDROOT
BRANCH   4   6
ATOM      6  N   UNL     1       8.600  -1.871  23.389  0.00  0.00    -0.270 N 
ATOM      7  C   UNL     1       9.168  -1.333  24.549  0.00  0.00    +0.350 A 
ATOM      8  O   UNL     1       8.755  -1.671  25.658  0.00  0.00    -0.244 OA
ATOM      9  N   UNL     1      10.167  -0.400  24.414  0.00  0.00    -0.201 NA
ATOM     10  C   UNL     1      10.454   0.021  23.230  0.00  0.00    +0.118 A 
ATOM     11  C   UNL     1       9.799  -0.402  21.987  0.00  0.00    +0.038 A 
ATOM     12  C   UNL     1       8.890  -1.362  22.139  0.00  0.00    +0.095 A 
ENDBRANCH   4   6
BRANCH   2  13
ATOM     13  O3* UNL     1       4.389  -4.083  22.760  0.00  0.00    -0.386 OA
ATOM     14  H3* UNL     1       4.186  -4.969  22.387  0.00  0.00    +0.210 HD
ENDBRANCH   2  13
BRANCH   3  15
ATOM     15  O2* UNL     1       5.284  -1.896  23.803  0.00  0.00    -0.385 OA
ATOM     16  H2* UNL     1       5.788  -1.285  24.388  0.00  0.00    +0.210 HD
ENDBRANCH   3  15
BRANCH   1  17
ATOM     17  C5* UNL     1       6.945  -5.970  21.803  0.00  0.00    +0.190 C 
BRANCH  17  18
ATOM     18  O5* UNL     1       5.724  -6.358  21.171  0.00  0.00    -0.392 OA
ATOM     19  H5* UNL     1       5.726  -7.331  21.141  0.00  0.00    +0.210 HD
ENDBRANCH  17  18
ENDBRANCH   1  17
TORSDOF 5
ENDMDL
MODEL 5
REMARK VINA RESULT:      -5.2      1.803      2.293
REMARK  Name = 
REMARK  5 active torsions:
REMARK  status: ('A' for Active; 'I' for Inactive)
REMARK    1  A    between atoms: O5*_1  and  C5*_2
REMARK    2  A    between atoms: C5*_2  and  C4*_3
REMARK    3  A    between atoms: C1*_6  and  N_14
REMARK    4  A    between atoms: C2*_8  and  O2*_10
REMARK    5  A    between atoms: C3*_11  and  O3*_13
REMARK                            x       y       z     vdW  Elec       q    Type
REMARK                         _______ _______ _______ _____ _____    ______ ____
ROOT
ATOM      1  C4* UNL     1       6.790  -4.328  26.024  0.00  0.00    +0.177 C 
ATOM      2  C3* UNL     1       8.199  -4.692  26.483  0.00  0.00    +0.178 C 
ATOM      3  C2* UNL     1       9.086  -4.351  25.289  0.00  0.00    +0.195 C 
ATOM      4  C1* UNL     1       8.125  -3.711  24.275  0.00  0.00    +0.255 C 
ATOM      5  O4* UNL     1       6.941  -3.336  24.990  0.00  0.00    -0.346 OA
ENDROOT
BRANCH   4   6
ATOM      6  N   UNL     1       8.719  -2.574  23.587  0.00  0.00    -0.270 N 
ATOM      7  C   UNL     1       8.223  -2.295  22.309  0.00  0.00    +0.350 A 
ATOM      8  O   UNL     1       7.364  -3.017  21.804  0.00  0.00    -0.244 OA
ATOM      9  N   UNL     1       8.743  -1.221  21.628  0.00  0.00    -0.201 NA
ATOM     10  C   UNL     1       9.740  -0.593  22.147  0.00  0.00    +0.118 A 
ATOM     11  C   UNL     1      10.394  -0.923  23.418  0.00  0.00    +0.038 A 
ATOM     12  C   UNL     1       9.822  -1.917  24.093  0.00  0.00    +0.095 A 
ENDBRANCH   4   6
BRANCH   2  13
ATOM     13  O3* UNL     1       8.287  -6.071  26.844  0.00  0.00    -0.386 OA
ATOM     14  H3* UNL     1       7.370  -6.415  26.769  0.00  0.00    +0.210 HD
ENDBRANCH   2  13
BRANCH   3  15
ATOM     15  O2* UNL     1       9.746  -5.520  24.784  0.00  0.00    -0.385 OA
ATOM     16  H2* UNL     1      10.441  -5.204  24.163  0.00  0.00    +0.210 HD
ENDBRANCH   3  15
BRANCH   1  17
ATOM     17  C5* UNL     1       5.897  -3.788  27.140  0.00  0.00    +0.190 C 
BRANCH  17  18
ATOM     18  O5* UNL     1       6.115  -4.499  28.359  0.00  0.00    -0.392 OA
ATOM     19  H5* UNL     1       7.039  -4.334  28.614  0.00  0.00    +0.210 HD
ENDBRANCH  17  18
ENDBRANCH   1  17
TORSDOF 5
ENDMDL
MODEL 6
REMARK VINA RESULT:      -5.1      3.079      6.130
REMARK  Name = 
REMARK  5 active torsions:
REMARK  status: ('A' for Active; 'I' for Inactive)
REMARK    1  A    between atoms: O5*_1  and  C5*_2
REMARK    2  A    between atoms: C5*_2  and  C4*_3
REMARK    3  A    between atoms: C1*_6  and  N_14
REMARK    4  A    between atoms: C2*_8  and  O2*_10
REMARK    5  A    between atoms: C3*_11  and  O3*_13
REMARK                            x       y       z     vdW  Elec       q    Type
REMARK                         _______ _______ _______ _____ _____    ______ ____
ROOT
ATOM      1  C4* UNL     1       8.767   0.344  23.017  0.00  0.00    +0.177 C 
ATOM      2  C3* UNL     1       9.636   0.767  24.199  0.00  0.00    +0.178 C 
ATOM      3  C2* UNL     1       9.235  -0.186  25.323  0.00  0.00    +0.195 C 
ATOM      4  C1* UNL     1       8.243  -1.155  24.660  0.00  0.00    +0.255 C 
ATOM      5  O4* UNL     1       8.413  -1.034  23.243  0.00  0.00    -0.346 OA
ENDROOT
BRANCH   4   6
ATOM      6  N   UNL     1       8.426  -2.528  25.108  0.00  0.00    -0.270 N 
ATOM      7  C   UNL     1       7.687  -2.916  26.231  0.00  0.00    +0.350 A 
ATOM      8  O   UNL     1       6.968  -2.105  26.813  0.00  0.00    -0.244 OA
ATOM      9  N   UNL     1       7.815  -4.208  26.681  0.00  0.00    -0.201 NA
ATOM     10  C   UNL     1       8.694  -4.966  26.121  0.00  0.00    +0.118 A 
ATOM     11  C   UNL     1       9.595  -4.574  25.031  0.00  0.00    +0.038 A 
ATOM     12  C   UNL     1       9.396  -3.345  24.564  0.00  0.00    +0.095 A 
ENDBRANCH   4   6
BRANCH   2  13
ATOM     13  O3* UNL     1       9.413   2.134  24.544  0.00  0.00    -0.386 OA
ATOM     14  H3* UNL     1       9.119   2.565  23.712  0.00  0.00    +0.210 HD
ENDBRANCH   2  13
BRANCH   3  15
ATOM     15  O2* UNL     1       8.673   0.531  26.430  0.00  0.00    -0.385 OA
ATOM     16  H2* UNL     1       8.651  -0.097  27.189  0.00  0.00    +0.210 HD
ENDBRANCH   3  15
BRANCH   1  17
ATOM     17  C5* UNL     1       9.454   0.492  21.661  0.00  0.00    +0.190 C 
BRANCH  17  18
ATOM     18  O5* UNL     1       9.908   1.831  21.461  0.00  0.00    -0.392 OA
ATOM     19  H5* UNL     1      10.394   1.835  20.617  0.00  0.00    +0.210 HD
ENDBRANCH  17  18
ENDBRANCH   1  17
TORSDOF 5
ENDMDL
MODEL 7
REMARK VINA RESULT:      -5.1      2.447      3.826
REMARK  Name = 
REMARK  5 active torsions:
REMARK  status: ('A' for Active; 'I' for Inactive)
REMARK    1  A    between atoms: O5*_1  and  C5*_2
REMARK    2  A    between atoms: C5*_2  and  C4*_3
REMARK    3  A    between atoms: C1*_6  and  N_14
REMARK    4  A    between atoms: C2*_8  and  O2*_10
REMARK    5  A    between atoms: C3*_11  and  O3*_13
REMARK                            x       y       z     vdW  Elec       q    Type
REMARK                         _______ _______ _______ _____ _____    ______ ____
ROOT
ATOM      1  C4* UNL     1       8.154  -3.805  25.525  0.00  0.00    +0.177 C 
ATOM      2  C3* UNL     1       8.602  -4.120  24.100  0.00  0.00    +0.178 C 
ATOM      3  C2* UNL     1       8.509  -2.782  23.369  0.00  0.00    +0.195 C 
ATOM      4  C1* UNL     1       8.118  -1.780  24.467  0.00  0.00    +0.255 C 
ATOM      5  O4* UNL     1       8.397  -2.400  25.728  0.00  0.00    -0.346 OA
ENDROOT
BRANCH   4   6
ATOM      6  N   UNL     1       8.812  -0.508  24.329  0.00  0.00    -0.270 N 
ATOM      7  C   UNL     1       8.167   0.469  23.561  0.00  0.00    +0.350 A 
ATOM      8  O   UNL     1       7.096   0.218  23.008  0.00  0.00    -0.244 OA
ATOM      9  N   UNL     1       8.776   1.691  23.415  0.00  0.00    -0.201 NA
ATOM     10  C   UNL     1       9.963   1.844  23.893  0.00  0.00    +0.118 A 
ATOM     11  C   UNL     1      10.746   0.815  24.588  0.00  0.00    +0.038 A 
ATOM     12  C   UNL     1      10.103  -0.333  24.783  0.00  0.00    +0.095 A 
ENDBRANCH   4   6
BRANCH   2  13
ATOM     13  O3* UNL     1       7.775  -5.119  23.504  0.00  0.00    -0.386 OA
ATOM     14  H3* UNL     1       6.893  -4.699  23.407  0.00  0.00    +0.210 HD
ENDBRANCH   2  13
BRANCH   3  15
ATOM     15  O2* UNL     1       7.560  -2.846  22.296  0.00  0.00    -0.385 OA
ATOM     16  H2* UNL     1       6.714  -3.162  22.688  0.00  0.00    +0.210 HD
ENDBRANCH   3  15
BRANCH   1  17
ATOM     17  C5* UNL     1       8.878  -4.621  26.594  0.00  0.00    +0.190 C 
BRANCH  17  18
ATOM     18  O5* UNL     1       8.140  -5.798  26.926  0.00  0.00    -0.392 OA
ATOM     19  H5* UNL     1       7.405  -5.511  27.496  0.00  0.00    +0.210 HD
ENDBRANCH  17  18
ENDBRANCH   1  17
TORSDOF 5
ENDMDL
MODEL 8
REMARK VINA RESULT:      -5.1      2.176      2.828
REMARK  Name = 
REMARK  5 active torsions:
REMARK  status: ('A' for Active; 'I' for Inactive)
REMARK    1  A    between atoms: O5*_1  and  C5*_2
REMARK    2  A    between atoms: C5*_2  and  C4*_3
REMARK    3  A    between atoms: C1*_6  and  N_14
REMARK    4  A    between atoms: C2*_8  and  O2*_10
REMARK    5  A    between atoms: C3*_11  and  O3*_13
REMARK                            x       y       z     vdW  Elec       q    Type
REMARK                         _______ _______ _______ _____ _____    ______ ____
ROOT
ATOM      1  C4* UNL     1       7.107  -4.827  22.895  0.00  0.00    +0.177 C 
ATOM      2  C3* UNL     1       6.764  -4.323  24.294  0.00  0.00    +0.178 C 
ATOM      3  C2* UNL     1       7.614  -3.066  24.463  0.00  0.00    +0.195 C 
ATOM      4  C1* UNL     1       8.298  -2.887  23.097  0.00  0.00    +0.255 C 
ATOM      5  O4* UNL     1       7.574  -3.684  22.152  0.00  0.00    -0.346 OA
ENDROOT
BRANCH   4   6
ATOM      6  N   UNL     1       8.360  -1.492  22.687  0.00  0.00    -0.270 N 
ATOM      7  C   UNL     1       9.589  -1.049  22.184  0.00  0.00    +0.350 A 
ATOM      8  O   UNL     1      10.556  -1.809  22.148  0.00  0.00    -0.244 OA
ATOM      9  N   UNL     1       9.691   0.257  21.769  0.00  0.00    -0.201 NA
ATOM     10  C   UNL     1       8.689   1.042  21.969  0.00  0.00    +0.118 A 
ATOM     11  C   UNL     1       7.425   0.672  22.616  0.00  0.00    +0.038 A 
ATOM     12  C   UNL     1       7.324  -0.615  22.937  0.00  0.00    +0.095 A 
ENDBRANCH   4   6
BRANCH   2  13
ATOM     13  O3* UNL     1       7.053  -5.307  25.286  0.00  0.00    -0.386 OA
ATOM     14  H3* UNL     1       6.269  -5.898  25.299  0.00  0.00    +0.210 HD
ENDBRANCH   2  13
BRANCH   3  15
ATOM     15  O2* UNL     1       8.542  -3.212  25.546  0.00  0.00    -0.385 OA
ATOM     16  H2* UNL     1       8.733  -2.304  25.876  0.00  0.00    +0.210 HD
ENDBRANCH   3  15
BRANCH   1  17
ATOM     17  C5* UNL     1       5.932  -5.478  22.168  0.00  0.00    +0.190 C 
BRANCH  17  18
ATOM     18  O5* UNL     1       5.424  -6.589  22.909  0.00  0.00    -0.392 OA
ATOM     19  H5* UNL     1       5.192  -7.273  22.256  0.00  0.00    +0.210 HD
ENDBRANCH  17  18
ENDBRANCH   1  17
TORSDOF 5
ENDMDL
MODEL 9
REMARK VINA RESULT:      -5.0      2.037      5.202
REMARK  Name = 
REMARK  5 active torsions:
REMARK  status: ('A' for Active; 'I' for Inactive)
REMARK    1  A    between atoms: O5*_1  and  C5*_2
REMARK    2  A    between atoms: C5*_2  and  C4*_3
REMARK    3  A    between atoms: C1*_6  and  N_14
REMARK    4  A    between atoms: C2*_8  and  O2*_10
REMARK    5  A    between atoms: C3*_11  and  O3*_13
REMARK                            x       y       z     vdW  Elec       q    Type
REMARK                         _______ _______ _______ _____ _____    ______ ____
ROOT
ATOM      1  C4* UNL     1       8.067  -1.883  24.281  0.00  0.00    +0.177 C 
ATOM      2  C3* UNL     1       8.866  -2.935  23.515  0.00  0.00    +0.178 C 
ATOM      3  C2* UNL     1       8.616  -4.231  24.282  0.00  0.00    +0.195 C 
ATOM      4  C1* UNL     1       7.601  -3.838  25.367  0.00  0.00    +0.255 C 
ATOM      5  O4* UNL     1       7.020  -2.589  24.974  0.00  0.00    -0.346 OA
ENDROOT
BRANCH   4   6
ATOM      6  N   UNL     1       6.586  -4.861  25.573  0.00  0.00    -0.270 N 
ATOM      7  C   UNL     1       6.633  -5.543  26.794  0.00  0.00    +0.350 A 
ATOM      8  O   UNL     1       7.525  -5.301  27.607  0.00  0.00    -0.244 OA
ATOM      9  N   UNL     1       5.686  -6.507  27.040  0.00  0.00    -0.201 NA
ATOM     10  C   UNL     1       4.870  -6.818  26.093  0.00  0.00    +0.118 A 
ATOM     11  C   UNL     1       4.858  -6.237  24.745  0.00  0.00    +0.038 A 
ATOM     12  C   UNL     1       5.735  -5.253  24.560  0.00  0.00    +0.095 A 
ENDBRANCH   4   6
BRANCH   2  13
ATOM     13  O3* UNL     1      10.252  -2.597  23.462  0.00  0.00    -0.386 OA
ATOM     14  H3* UNL     1      10.446  -2.459  22.509  0.00  0.00    +0.210 HD
ENDBRANCH   2  13
BRANCH   3  15
ATOM     15  O2* UNL     1       9.838  -4.760  24.814  0.00  0.00    -0.385 OA
ATOM     16  H2* UNL     1       9.708  -5.732  24.903  0.00  0.00    +0.210 HD
ENDBRANCH   3  15
BRANCH   1  17
ATOM     17  C5* UNL     1       7.466  -0.796  23.392  0.00  0.00    +0.190 C 
BRANCH  17  18
ATOM     18  O5* UNL     1       8.436  -0.292  22.473  0.00  0.00    -0.392 OA
ATOM     19  H5* UNL     1       8.805  -1.064  22.010  0.00  0.00    +0.210 HD
ENDBRANCH  17  18
ENDBRANCH   1  17
TORSDOF 5
ENDMDL
