MODEL 1
REMARK VINA RESULT:      -6.9      0.000      0.000
REMARK  Name = 
REMARK  8 active torsions:
REMARK  status: ('A' for Active; 'I' for Inactive)
REMARK    1  A    between atoms: O_1  and  C_2
REMARK    2  A    between atoms: C_4  and  C_6
REMARK    3  A    between atoms: C_6  and  O_7
REMARK    4  A    between atoms: O_7  and  P_8
REMARK    5  A    between atoms: P_8  and  O_9
REMARK    6  A    between atoms: P_8  and  O_10
REMARK    7  A    between atoms: C_13  and  N_18
REMARK    8  A    between atoms: C_15  and  O_17
REMARK                            x       y       z     vdW  Elec       q    Type
REMARK                         _______ _______ _______ _____ _____    ______ ____
ROOT
ATOM      1  C   UNL     1       8.059  -5.525  26.118  0.00  0.00    +0.178 C 
ATOM      2  C   UNL     1       9.261  -4.666  25.748  0.00  0.00    +0.195 C 
ATOM      3  C   UNL     1       8.756  -3.818  24.566  0.00  0.00    +0.253 C 
ATOM      4  O   UNL     1       7.336  -4.040  24.430  0.00  0.00    -0.346 OA
ATOM      5  C   UNL     1       6.886  -4.689  25.627  0.00  0.00    +0.178 C 
ENDROOT
BRANCH   3   6
ATOM      6  N   UNL     1       9.002  -2.394  24.733  0.00  0.00    -0.286 N 
ATOM      7  C   UNL     1       9.336  -1.515  23.736  0.00  0.00    +0.165 A 
ATOM      8  N   UNL     1       9.536  -1.788  22.434  0.00  0.00    -0.216 NA
ATOM      9  C   UNL     1       9.846  -0.659  21.754  0.00  0.00    +0.223 A 
ATOM     10  N   UNL     1       9.954   0.603  22.228  0.00  0.00    -0.241 NA
ATOM     11  C   UNL     1       9.738   0.805  23.552  0.00  0.00    +0.144 A 
ATOM     12  C   UNL     1       9.419  -0.279  24.363  0.00  0.00    +0.126 A 
ATOM     13  N   UNL     1       9.144  -0.387  25.701  0.00  0.00    -0.232 NA
ATOM     14  C   UNL     1       8.894  -1.666  25.891  0.00  0.00    +0.203 A 
ENDBRANCH   3   6
BRANCH   1  15
ATOM     15  O   UNL     1       7.997  -5.742  27.523  0.00  0.00    -0.386 OA
ATOM     16  H   UNL     1       7.051  -5.848  27.754  0.00  0.00    +0.210 HD
ENDBRANCH   1  15
BRANCH   2  17
ATOM     17  O   UNL     1      10.360  -5.498  25.358  0.00  0.00    -0.385 OA
ATOM     18  H   UNL     1      10.505  -5.345  24.406  0.00  0.00    +0.210 HD
ENDBRANCH   2  17
BRANCH   5  19
ATOM     19  C   UNL     1       5.635  -5.511  25.334  0.00  0.00    +0.206 C 
BRANCH  19  20
ATOM     20  O   UNL     1       5.573  -6.644  26.186  0.00  0.00    -0.284 OA
BRANCH  20  21
ATOM     21  P   UNL     1       4.480  -6.462  27.514  0.00  0.00    +0.472 P 
ATOM     22  O   UNL     1       3.502  -6.299  28.704  0.00  0.00    -0.228 OA
BRANCH  21  23
ATOM     23  O   UNL     1       5.443  -7.532  28.290  0.00  0.00    -0.303 OA
ATOM     24  H   UNL     1       5.805  -7.174  29.117  0.00  0.00    +0.222 HD
ENDBRANCH  21  23
BRANCH  21  25
ATOM     25  O   UNL     1       3.561  -7.571  26.734  0.00  0.00    -0.303 OA
ATOM     26  H   UNL     1       4.099  -8.295  26.375  0.00  0.00    +0.222 HD
ENDBRANCH  21  25
ENDBRANCH  20  21
ENDBRANCH  19  20
ENDBRANCH   5  19
TORSDOF 8
ENDMDL
MODEL 2
REMARK VINA RESULT:      -6.8      1.740      2.210
REMARK  Name = 
REMARK  8 active torsions:
REMARK  status: ('A' for Active; 'I' for Inactive)
REMARK    1  A    between atoms: O_1  and  C_2
REMARK    2  A    between atoms: C_4  and  C_6
REMARK    3  A    between atoms: C_6  and  O_7
REMARK    4  A    between atoms: O_7  and  P_8
REMARK    5  A    between atoms: P_8  and  O_9
REMARK    6  A    between atoms: P_8  and  O_10
REMARK    7  A    between atoms: C_13  and  N_18
REMARK    8  A    between atoms: C_15  and  O_17
REMARK                            x       y       z     vdW  Elec       q    Type
REMARK                         _______ _______ _______ _____ _____    ______ ____
ROOT
ATOM      1  C   UNL     1       7.968  -5.486  26.166  0.00  0.00    +0.178 C 
ATOM      2  C   UNL     1       9.185  -4.676  25.740  0.00  0.00    +0.195 C 
ATOM      3  C   UNL     1       8.654  -3.789  24.599  0.00  0.00    +0.253 C 
ATOM      4  O   UNL     1       7.219  -3.946  24.540  0.00  0.00    -0.346 OA
ATOM      5  C   UNL     1       6.808  -4.592  25.752  0.00  0.00    +0.178 C 
ENDROOT
BRANCH   3   6
ATOM      6  N   UNL     1       8.972  -2.380  24.770  0.00  0.00    -0.286 N 
ATOM      7  C   UNL     1       9.327  -1.511  23.771  0.00  0.00    +0.165 A 
ATOM      8  N   UNL     1       9.486  -1.783  22.463  0.00  0.00    -0.216 NA
ATOM      9  C   UNL     1       9.835  -0.667  21.784  0.00  0.00    +0.223 A 
ATOM     10  N   UNL     1      10.015   0.586  22.263  0.00  0.00    -0.241 NA
ATOM     11  C   UNL     1       9.838   0.788  23.593  0.00  0.00    +0.144 A 
ATOM     12  C   UNL     1       9.484  -0.285  24.404  0.00  0.00    +0.126 A 
ATOM     13  N   UNL     1       9.233  -0.389  25.747  0.00  0.00    -0.232 NA
ATOM     14  C   UNL     1       8.924  -1.656  25.933  0.00  0.00    +0.203 A 
ENDBRANCH   3   6
BRANCH   1  15
ATOM     15  O   UNL     1       7.974  -5.722  27.570  0.00  0.00    -0.386 OA
ATOM     16  H   UNL     1       7.732  -6.662  27.703  0.00  0.00    +0.210 HD
ENDBRANCH   1  15
BRANCH   2  17
ATOM     17  O   UNL     1      10.222  -5.550  25.278  0.00  0.00    -0.385 OA
ATOM     18  H   UNL     1      10.404  -5.307  24.352  0.00  0.00    +0.210 HD
ENDBRANCH   2  17
BRANCH   5  19
ATOM     19  C   UNL     1       5.507  -5.354  25.519  0.00  0.00    +0.206 C 
BRANCH  19  20
ATOM     20  O   UNL     1       5.507  -5.960  24.236  0.00  0.00    -0.284 OA
BRANCH  20  21
ATOM     21  P   UNL     1       3.976  -5.902  23.434  0.00  0.00    +0.472 P 
ATOM     22  O   UNL     1       2.605  -5.851  22.715  0.00  0.00    -0.228 OA
BRANCH  21  23
ATOM     23  O   UNL     1       3.884  -7.501  23.764  0.00  0.00    -0.303 OA
ATOM     24  H   UNL     1       4.010  -7.693  24.707  0.00  0.00    +0.222 HD
ENDBRANCH  21  23
BRANCH  21  25
ATOM     25  O   UNL     1       4.847  -6.047  22.054  0.00  0.00    -0.303 OA
ATOM     26  H   UNL     1       5.793  -6.163  22.237  0.00  0.00    +0.222 HD
ENDBRANCH  21  25
ENDBRANCH  20  21
ENDBRANCH  19  20
ENDBRANCH   5  19
TORSDOF 8
ENDMDL
MODEL 3
REMARK VINA RESULT:      -6.5      1.878      2.881
REMARK  Name = 
REMARK  8 active torsions:
REMARK  status: ('A' for Active; 'I' for Inactive)
REMARK    1  A    between atoms: O_1  and  C_2
REMARK    2  A    between atoms: C_4  and  C_6
REMARK    3  A    between atoms: C_6  and  O_7
REMARK    4  A    between atoms: O_7  and  P_8
REMARK    5  A    between atoms: P_8  and  O_9
REMARK    6  A    between atoms: P_8  and  O_10
REMARK    7  A    between atoms: C_13  and  N_18
REMARK    8  A    between atoms: C_15  and  O_17
REMARK                            x       y       z     vdW  Elec       q    Type
REMARK                         _______ _______ _______ _____ _____    ______ ____
ROOT
ATOM      1  C   UNL     1       5.369  -5.384  23.215  0.00  0.00    +0.178 C 
ATOM      2  C   UNL     1       6.104  -4.274  22.476  0.00  0.00    +0.195 C 
ATOM      3  C   UNL     1       6.449  -3.261  23.583  0.00  0.00    +0.253 C 
ATOM      4  O   UNL     1       6.117  -3.858  24.856  0.00  0.00    -0.346 OA
ATOM      5  C   UNL     1       5.912  -5.260  24.632  0.00  0.00    +0.178 C 
ENDROOT
BRANCH   3   6
ATOM      6  N   UNL     1       7.850  -2.872  23.590  0.00  0.00    -0.286 N 
ATOM      7  C   UNL     1       8.349  -1.667  23.170  0.00  0.00    +0.165 A 
ATOM      8  N   UNL     1       7.668  -0.634  22.643  0.00  0.00    -0.216 NA
ATOM      9  C   UNL     1       8.505   0.390  22.354  0.00  0.00    +0.223 A 
ATOM     10  N   UNL     1       9.843   0.459  22.540  0.00  0.00    -0.241 NA
ATOM     11  C   UNL     1      10.465  -0.621  23.077  0.00  0.00    +0.144 A 
ATOM     12  C   UNL     1       9.715  -1.743  23.411  0.00  0.00    +0.126 A 
ATOM     13  N   UNL     1      10.050  -2.952  23.964  0.00  0.00    -0.232 NA
ATOM     14  C   UNL     1       8.909  -3.604  24.062  0.00  0.00    +0.203 A 
ENDBRANCH   3   6
BRANCH   1  15
ATOM     15  O   UNL     1       5.662  -6.658  22.652  0.00  0.00    -0.386 OA
ATOM     16  H   UNL     1       5.172  -7.323  23.179  0.00  0.00    +0.210 HD
ENDBRANCH   1  15
BRANCH   2  17
ATOM     17  O   UNL     1       5.247  -3.691  21.486  0.00  0.00    -0.385 OA
ATOM     18  H   UNL     1       4.744  -4.423  21.083  0.00  0.00    +0.210 HD
ENDBRANCH   2  17
BRANCH   5  19
ATOM     19  C   UNL     1       4.973  -5.824  25.694  0.00  0.00    +0.206 C 
BRANCH  19  20
ATOM     20  O   UNL     1       5.679  -6.679  26.579  0.00  0.00    -0.284 OA
BRANCH  20  21
ATOM     21  P   UNL     1       5.860  -6.039  28.176  0.00  0.00    +0.472 P 
ATOM     22  O   UNL     1       6.023  -5.466  29.606  0.00  0.00    -0.228 OA
BRANCH  21  23
ATOM     23  O   UNL     1       7.469  -6.184  27.917  0.00  0.00    -0.303 OA
ATOM     24  H   UNL     1       7.797  -7.076  28.118  0.00  0.00    +0.222 HD
ENDBRANCH  21  23
BRANCH  21  25
ATOM     25  O   UNL     1       5.613  -7.579  28.675  0.00  0.00    -0.303 OA
ATOM     26  H   UNL     1       4.674  -7.824  28.632  0.00  0.00    +0.222 HD
ENDBRANCH  21  25
ENDBRANCH  20  21
ENDBRANCH  19  20
ENDBRANCH   5  19
TORSDOF 8
ENDMDL
MODEL 4
REMARK VINA RESULT:      -6.4      2.198      3.375
REMARK  Name = 
REMARK  8 active torsions:
REMARK  status: ('A' for Active; 'I' for Inactive)
REMARK    1  A    between atoms: O_1  and  C_2
REMARK    2  A    between atoms: C_4  and  C_6
REMARK    3  A    between atoms: C_6  and  O_7
REMARK    4  A    between atoms: O_7  and  P_8
REMARK    5  A    between atoms: P_8  and  O_9
REMARK    6  A    between atoms: P_8  and  O_10
REMARK    7  A    between atoms: C_13  and  N_18
REMARK    8  A    between atoms: C_15  and  O_17
REMARK                            x       y       z     vdW  Elec       q    Type
REMARK                         _______ _______ _______ _____ _____    ______ ____
ROOT
ATOM      1  C   UNL     1       6.966  -4.744  22.965  0.00  0.00    +0.178 C 
ATOM      2  C   UNL     1       6.698  -3.481  22.157  0.00  0.00    +0.195 C 
ATOM      3  C   UNL     1       7.057  -2.341  23.128  0.00  0.00    +0.253 C 
ATOM      4  O   UNL     1       7.668  -2.926  24.299  0.00  0.00    -0.346 OA
ATOM      5  C   UNL     1       8.006  -4.281  23.975  0.00  0.00    +0.178 C 
ENDROOT
BRANCH   3   6
ATOM      6  N   UNL     1       7.967  -1.362  22.555  0.00  0.00    -0.286 N 
ATOM      7  C   UNL     1       7.818  -0.000  22.609  0.00  0.00    +0.165 A 
ATOM      8  N   UNL     1       6.805   0.694  23.159  0.00  0.00    -0.216 NA
ATOM      9  C   UNL     1       7.011   2.024  23.022  0.00  0.00    +0.223 A 
ATOM     10  N   UNL     1       8.056   2.657  22.440  0.00  0.00    -0.241 NA
ATOM     11  C   UNL     1       9.042   1.893  21.906  0.00  0.00    +0.144 A 
ATOM     12  C   UNL     1       8.944   0.507  21.975  0.00  0.00    +0.126 A 
ATOM     13  N   UNL     1       9.764  -0.503  21.545  0.00  0.00    -0.232 NA
ATOM     14  C   UNL     1       9.152  -1.611  21.912  0.00  0.00    +0.203 A 
ENDBRANCH   3   6
BRANCH   1  15
ATOM     15  O   UNL     1       7.468  -5.787  22.136  0.00  0.00    -0.386 OA
ATOM     16  H   UNL     1       8.075  -6.322  22.687  0.00  0.00    +0.210 HD
ENDBRANCH   1  15
BRANCH   2  17
ATOM     17  O   UNL     1       5.319  -3.423  21.775  0.00  0.00    -0.385 OA
ATOM     18  H   UNL     1       4.901  -2.741  22.332  0.00  0.00    +0.210 HD
ENDBRANCH   2  17
BRANCH   5  19
ATOM     19  C   UNL     1       8.037  -5.126  25.245  0.00  0.00    +0.206 C 
BRANCH  19  20
ATOM     20  O   UNL     1       6.720  -5.475  25.644  0.00  0.00    -0.284 OA
BRANCH  20  21
ATOM     21  P   UNL     1       6.444  -5.336  27.345  0.00  0.00    +0.472 P 
ATOM     22  O   UNL     1       6.197  -5.212  28.869  0.00  0.00    -0.228 OA
BRANCH  21  23
ATOM     23  O   UNL     1       7.954  -5.941  27.513  0.00  0.00    -0.303 OA
ATOM     24  H   UNL     1       8.557  -5.631  26.818  0.00  0.00    +0.222 HD
ENDBRANCH  21  23
BRANCH  21  25
ATOM     25  O   UNL     1       5.681  -6.779  27.201  0.00  0.00    -0.303 OA
ATOM     26  H   UNL     1       4.940  -6.857  27.823  0.00  0.00    +0.222 HD
ENDBRANCH  21  25
ENDBRANCH  20  21
ENDBRANCH  19  20
ENDBRANCH   5  19
TORSDOF 8
ENDMDL
MODEL 5
REMARK VINA RESULT:      -6.3      5.102      7.905
REMARK  Name = 
REMARK  8 active torsions:
REMARK  status: ('A' for Active; 'I' for Inactive)
REMARK    1  A    between atoms: O_1  and  C_2
REMARK    2  A    between atoms: C_4  and  C_6
REMARK    3  A    between atoms: C_6  and  O_7
REMARK    4  A    between atoms: O_7  and  P_8
REMARK    5  A    between atoms: P_8  and  O_9
REMARK    6  A    between atoms: P_8  and  O_10
REMARK    7  A    between atoms: C_13  and  N_18
REMARK    8  A    between atoms: C_15  and  O_17
REMARK                            x       y       z     vdW  Elec       q    Type
REMARK                         _______ _______ _______ _____ _____    ______ ____
ROOT
ATOM      1  C   UNL     1       9.690   0.343  22.448  0.00  0.00    +0.178 C 
ATOM      2  C   UNL     1       9.614  -1.158  22.201  0.00  0.00    +0.195 C 
ATOM      3  C   UNL     1       9.431  -1.753  23.610  0.00  0.00    +0.253 C 
ATOM      4  O   UNL     1       9.215  -0.662  24.532  0.00  0.00    -0.346 OA
ATOM      5  C   UNL     1       8.925   0.507  23.753  0.00  0.00    +0.178 C 
ENDROOT
BRANCH   3   6
ATOM      6  N   UNL     1       8.316  -2.682  23.702  0.00  0.00    -0.286 N 
ATOM      7  C   UNL     1       8.148  -3.639  24.668  0.00  0.00    +0.165 A 
ATOM      8  N   UNL     1       8.977  -3.934  25.686  0.00  0.00    -0.216 NA
ATOM      9  C   UNL     1       8.468  -4.938  26.437  0.00  0.00    +0.223 A 
ATOM     10  N   UNL     1       7.302  -5.603  26.272  0.00  0.00    -0.241 NA
ATOM     11  C   UNL     1       6.515  -5.252  25.224  0.00  0.00    +0.144 A 
ATOM     12  C   UNL     1       6.930  -4.237  24.369  0.00  0.00    +0.126 A 
ATOM     13  N   UNL     1       6.363  -3.669  23.259  0.00  0.00    -0.232 NA
ATOM     14  C   UNL     1       7.216  -2.737  22.885  0.00  0.00    +0.203 A 
ENDBRANCH   3   6
BRANCH   1  15
ATOM     15  O   UNL     1       9.078   1.069  21.387  0.00  0.00    -0.386 OA
ATOM     16  H   UNL     1       8.283   1.504  21.760  0.00  0.00    +0.210 HD
ENDBRANCH   1  15
BRANCH   2  17
ATOM     17  O   UNL     1      10.828  -1.620  21.596  0.00  0.00    -0.385 OA
ATOM     18  H   UNL     1      10.603  -1.892  20.687  0.00  0.00    +0.210 HD
ENDBRANCH   2  17
BRANCH   5  19
ATOM     19  C   UNL     1       9.315   1.760  24.532  0.00  0.00    +0.206 C 
BRANCH  19  20
ATOM     20  O   UNL     1       9.719   2.792  23.646  0.00  0.00    -0.284 OA
BRANCH  20  21
ATOM     21  P   UNL     1       8.711   4.197  23.701  0.00  0.00    +0.472 P 
ATOM     22  O   UNL     1       7.810   5.455  23.751  0.00  0.00    -0.228 OA
BRANCH  21  23
ATOM     23  O   UNL     1       8.238   3.763  22.197  0.00  0.00    -0.303 OA
ATOM     24  H   UNL     1       7.400   3.271  22.200  0.00  0.00    +0.222 HD
ENDBRANCH  21  23
BRANCH  21  25
ATOM     25  O   UNL     1      10.057   5.012  23.244  0.00  0.00    -0.303 OA
ATOM     26  H   UNL     1      10.121   5.874  23.686  0.00  0.00    +0.222 HD
ENDBRANCH  21  25
ENDBRANCH  20  21
ENDBRANCH  19  20
ENDBRANCH   5  19
TORSDOF 8
ENDMDL
MODEL 6
REMARK VINA RESULT:      -6.3      4.499      7.419
REMARK  Name = 
REMARK  8 active torsions:
REMARK  status: ('A' for Active; 'I' for Inactive)
REMARK    1  A    between atoms: O_1  and  C_2
REMARK    2  A    between atoms: C_4  and  C_6
REMARK    3  A    between atoms: C_6  and  O_7
REMARK    4  A    between atoms: O_7  and  P_8
REMARK    5  A    between atoms: P_8  and  O_9
REMARK    6  A    between atoms: P_8  and  O_10
REMARK    7  A    between atoms: C_13  and  N_18
REMARK    8  A    between atoms: C_15  and  O_17
REMARK                            x       y       z     vdW  Elec       q    Type
REMARK                         _______ _______ _______ _____ _____    ______ ____
ROOT
ATOM      1  C   UNL     1       7.917  -1.771  22.706  0.00  0.00    +0.178 C 
ATOM      2  C   UNL     1       7.180  -3.058  23.054  0.00  0.00    +0.195 C 
ATOM      3  C   UNL     1       8.230  -3.886  23.818  0.00  0.00    +0.253 C 
ATOM      4  O   UNL     1       9.380  -3.045  24.053  0.00  0.00    -0.346 OA
ATOM      5  C   UNL     1       8.985  -1.693  23.788  0.00  0.00    +0.178 C 
ENDROOT
BRANCH   3   6
ATOM      6  N   UNL     1       7.745  -4.396  25.092  0.00  0.00    -0.286 N 
ATOM      7  C   UNL     1       6.653  -5.205  25.268  0.00  0.00    +0.165 A 
ATOM      8  N   UNL     1       5.803  -5.655  24.327  0.00  0.00    -0.216 NA
ATOM      9  C   UNL     1       4.849  -6.436  24.883  0.00  0.00    +0.223 A 
ATOM     10  N   UNL     1       4.695  -6.778  26.183  0.00  0.00    -0.241 NA
ATOM     11  C   UNL     1       5.590  -6.288  27.078  0.00  0.00    +0.144 A 
ATOM     12  C   UNL     1       6.617  -5.463  26.632  0.00  0.00    +0.126 A 
ATOM     13  N   UNL     1       7.652  -4.838  27.278  0.00  0.00    -0.232 NA
ATOM     14  C   UNL     1       8.312  -4.210  26.326  0.00  0.00    +0.203 A 
ENDBRANCH   3   6
BRANCH   1  15
ATOM     15  O   UNL     1       7.042  -0.649  22.751  0.00  0.00    -0.386 OA
ATOM     16  H   UNL     1       6.548  -0.639  21.905  0.00  0.00    +0.210 HD
ENDBRANCH   1  15
BRANCH   2  17
ATOM     17  O   UNL     1       6.762  -3.725  21.858  0.00  0.00    -0.385 OA
ATOM     18  H   UNL     1       6.952  -3.120  21.117  0.00  0.00    +0.210 HD
ENDBRANCH   2  17
BRANCH   5  19
ATOM     19  C   UNL     1      10.201  -0.865  23.382  0.00  0.00    +0.206 C 
BRANCH  19  20
ATOM     20  O   UNL     1       9.821   0.178  22.499  0.00  0.00    -0.284 OA
BRANCH  20  21
ATOM     21  P   UNL     1      10.043   1.764  23.151  0.00  0.00    +0.472 P 
ATOM     22  O   UNL     1      10.241   3.185  23.736  0.00  0.00    -0.228 OA
BRANCH  21  23
ATOM     23  O   UNL     1       8.410   1.840  23.192  0.00  0.00    -0.303 OA
ATOM     24  H   UNL     1       8.046   1.548  24.044  0.00  0.00    +0.222 HD
ENDBRANCH  21  23
BRANCH  21  25
ATOM     25  O   UNL     1      10.212   2.235  21.591  0.00  0.00    -0.303 OA
ATOM     26  H   UNL     1      10.623   3.111  21.523  0.00  0.00    +0.222 HD
ENDBRANCH  21  25
ENDBRANCH  20  21
ENDBRANCH  19  20
ENDBRANCH   5  19
TORSDOF 8
ENDMDL
MODEL 7
REMARK VINA RESULT:      -6.3      4.810      7.775
REMARK  Name = 
REMARK  8 active torsions:
REMARK  status: ('A' for Active; 'I' for Inactive)
REMARK    1  A    between atoms: O_1  and  C_2
REMARK    2  A    between atoms: C_4  and  C_6
REMARK    3  A    between atoms: C_6  and  O_7
REMARK    4  A    between atoms: O_7  and  P_8
REMARK    5  A    between atoms: P_8  and  O_9
REMARK    6  A    between atoms: P_8  and  O_10
REMARK    7  A    between atoms: C_13  and  N_18
REMARK    8  A    between atoms: C_15  and  O_17
REMARK                            x       y       z     vdW  Elec       q    Type
REMARK                         _______ _______ _______ _____ _____    ______ ____
ROOT
ATOM      1  C   UNL     1       8.906  -1.480  22.780  0.00  0.00    +0.178 C 
ATOM      2  C   UNL     1       8.782  -2.944  23.183  0.00  0.00    +0.195 C 
ATOM      3  C   UNL     1       7.470  -2.994  23.988  0.00  0.00    +0.253 C 
ATOM      4  O   UNL     1       6.819  -1.711  23.863  0.00  0.00    -0.346 OA
ATOM      5  C   UNL     1       7.459  -1.007  22.790  0.00  0.00    +0.178 C 
ENDROOT
BRANCH   3   6
ATOM      6  N   UNL     1       6.560  -4.036  23.540  0.00  0.00    -0.286 N 
ATOM      7  C   UNL     1       5.966  -4.979  24.337  0.00  0.00    +0.165 A 
ATOM      8  N   UNL     1       6.127  -5.155  25.661  0.00  0.00    -0.216 NA
ATOM      9  C   UNL     1       5.369  -6.187  26.099  0.00  0.00    +0.223 A 
ATOM     10  N   UNL     1       4.536  -6.979  25.386  0.00  0.00    -0.241 NA
ATOM     11  C   UNL     1       4.422  -6.744  24.054  0.00  0.00    +0.144 A 
ATOM     12  C   UNL     1       5.157  -5.713  23.479  0.00  0.00    +0.126 A 
ATOM     13  N   UNL     1       5.245  -5.240  22.196  0.00  0.00    -0.232 NA
ATOM     14  C   UNL     1       6.090  -4.232  22.266  0.00  0.00    +0.203 A 
ENDBRANCH   3   6
BRANCH   1  15
ATOM     15  O   UNL     1       9.491  -1.351  21.489  0.00  0.00    -0.386 OA
ATOM     16  H   UNL     1      10.411  -1.042  21.623  0.00  0.00    +0.210 HD
ENDBRANCH   1  15
BRANCH   2  17
ATOM     17  O   UNL     1       9.902  -3.329  23.990  0.00  0.00    -0.385 OA
ATOM     18  H   UNL     1       9.560  -3.934  24.675  0.00  0.00    +0.210 HD
ENDBRANCH   2  17
BRANCH   5  19
ATOM     19  C   UNL     1       7.313   0.498  22.995  0.00  0.00    +0.206 C 
BRANCH  19  20
ATOM     20  O   UNL     1       8.148   1.206  22.092  0.00  0.00    -0.284 OA
BRANCH  20  21
ATOM     21  P   UNL     1       9.091   2.449  22.839  0.00  0.00    +0.472 P 
ATOM     22  O   UNL     1       9.936   3.562  23.508  0.00  0.00    -0.228 OA
BRANCH  21  23
ATOM     23  O   UNL     1       8.141   3.493  22.014  0.00  0.00    -0.303 OA
ATOM     24  H   UNL     1       7.274   3.617  22.435  0.00  0.00    +0.222 HD
ENDBRANCH  21  23
BRANCH  21  25
ATOM     25  O   UNL     1      10.161   2.176  21.629  0.00  0.00    -0.303 OA
ATOM     26  H   UNL     1       9.837   1.502  21.010  0.00  0.00    +0.222 HD
ENDBRANCH  21  25
ENDBRANCH  20  21
ENDBRANCH  19  20
ENDBRANCH   5  19
TORSDOF 8
ENDMDL
MODEL 8
REMARK VINA RESULT:      -6.1      4.295      7.360
REMARK  Name = 
REMARK  8 active torsions:
REMARK  status: ('A' for Active; 'I' for Inactive)
REMARK    1  A    between atoms: O_1  and  C_2
REMARK    2  A    between atoms: C_4  and  C_6
REMARK    3  A    between atoms: C_6  and  O_7
REMARK    4  A    between atoms: O_7  and  P_8
REMARK    5  A    between atoms: P_8  and  O_9
REMARK    6  A    between atoms: P_8  and  O_10
REMARK    7  A    between atoms: C_13  and  N_18
REMARK    8  A    between atoms: C_15  and  O_17
REMARK                            x       y       z     vdW  Elec       q    Type
REMARK                         _______ _______ _______ _____ _____    ______ ____
ROOT
ATOM      1  C   UNL     1       9.690  -3.107  24.458  0.00  0.00    +0.178 C 
ATOM      2  C   UNL     1       9.304  -4.538  24.808  0.00  0.00    +0.195 C 
ATOM      3  C   UNL     1       8.471  -4.389  26.095  0.00  0.00    +0.253 C 
ATOM      4  O   UNL     1       8.243  -2.981  26.320  0.00  0.00    -0.346 OA
ATOM      5  C   UNL     1       8.582  -2.292  25.109  0.00  0.00    +0.178 C 
ENDROOT
BRANCH   3   6
ATOM      6  N   UNL     1       7.191  -5.075  26.035  0.00  0.00    -0.286 N 
ATOM      7  C   UNL     1       6.580  -5.726  27.075  0.00  0.00    +0.165 A 
ATOM      8  N   UNL     1       7.045  -5.893  28.327  0.00  0.00    -0.216 NA
ATOM      9  C   UNL     1       6.157  -6.586  29.075  0.00  0.00    +0.223 A 
ATOM     10  N   UNL     1       4.950  -7.075  28.709  0.00  0.00    -0.241 NA
ATOM     11  C   UNL     1       4.544  -6.870  27.430  0.00  0.00    +0.144 A 
ATOM     12  C   UNL     1       5.373  -6.176  26.555  0.00  0.00    +0.126 A 
ATOM     13  N   UNL     1       5.239  -5.813  25.241  0.00  0.00    -0.232 NA
ATOM     14  C   UNL     1       6.343  -5.151  24.960  0.00  0.00    +0.203 A 
ENDBRANCH   3   6
BRANCH   1  15
ATOM     15  O   UNL     1       9.724  -2.915  23.048  0.00  0.00    -0.386 OA
ATOM     16  H   UNL     1      10.645  -2.681  22.813  0.00  0.00    +0.210 HD
ENDBRANCH   1  15
BRANCH   2  17
ATOM     17  O   UNL     1      10.480  -5.324  25.038  0.00  0.00    -0.385 OA
ATOM     18  H   UNL     1      10.920  -5.431  24.174  0.00  0.00    +0.210 HD
ENDBRANCH   2  17
BRANCH   5  19
ATOM     19  C   UNL     1       8.990  -0.856  25.425  0.00  0.00    +0.206 C 
BRANCH  19  20
ATOM     20  O   UNL     1      10.174  -0.509  24.724  0.00  0.00    -0.284 OA
BRANCH  20  21
ATOM     21  P   UNL     1      10.248   1.154  24.254  0.00  0.00    +0.472 P 
ATOM     22  O   UNL     1      10.314   2.643  23.833  0.00  0.00    -0.228 OA
BRANCH  21  23
ATOM     23  O   UNL     1       8.615   1.122  24.343  0.00  0.00    -0.303 OA
ATOM     24  H   UNL     1       8.204   0.831  23.514  0.00  0.00    +0.222 HD
ENDBRANCH  21  23
BRANCH  21  25
ATOM     25  O   UNL     1      10.362   0.576  22.725  0.00  0.00    -0.303 OA
ATOM     26  H   UNL     1      10.821  -0.278  22.698  0.00  0.00    +0.222 HD
ENDBRANCH  21  25
ENDBRANCH  20  21
ENDBRANCH  19  20
ENDBRANCH   5  19
TORSDOF 8
ENDMDL
MODEL 9
REMARK VINA RESULT:      -6.1      3.204      5.011
REMARK  Name = 
REMARK  8 active torsions:
REMARK  status: ('A' for Active; 'I' for Inactive)
REMARK    1  A    between atoms: O_1  and  C_2
REMARK    2  A    between atoms: C_4  and  C_6
REMARK    3  A    between atoms: C_6  and  O_7
REMARK    4  A    between atoms: O_7  and  P_8
REMARK    5  A    between atoms: P_8  and  O_9
REMARK    6  A    between atoms: P_8  and  O_10
REMARK    7  A    between atoms: C_13  and  N_18
REMARK    8  A    between atoms: C_15  and  O_17
REMARK                            x       y       z     vdW  Elec       q    Type
REMARK                         _______ _______ _______ _____ _____    ______ ____
ROOT
ATOM      1  C   UNL     1       9.442  -1.098  25.116  0.00  0.00    +0.178 C 
ATOM      2  C   UNL     1       9.671   0.383  24.847  0.00  0.00    +0.195 C 
ATOM      3  C   UNL     1       9.472   0.515  23.326  0.00  0.00    +0.253 C 
ATOM      4  O   UNL     1       8.971  -0.745  22.829  0.00  0.00    -0.346 OA
ATOM      5  C   UNL     1       8.542  -1.513  23.961  0.00  0.00    +0.178 C 
ENDROOT
BRANCH   3   6
ATOM      6  N   UNL     1       8.546   1.574  22.957  0.00  0.00    -0.286 N 
ATOM      7  C   UNL     1       8.725   2.913  23.190  0.00  0.00    +0.165 A 
ATOM      8  N   UNL     1       9.752   3.506  23.825  0.00  0.00    -0.216 NA
ATOM      9  C   UNL     1       9.580   4.848  23.856  0.00  0.00    +0.223 A 
ATOM     10  N   UNL     1       8.563   5.577  23.343  0.00  0.00    -0.241 NA
ATOM     11  C   UNL     1       7.560   4.912  22.714  0.00  0.00    +0.144 A 
ATOM     12  C   UNL     1       7.615   3.525  22.623  0.00  0.00    +0.126 A 
ATOM     13  N   UNL     1       6.779   2.599  22.056  0.00  0.00    -0.232 NA
ATOM     14  C   UNL     1       7.367   1.440  22.269  0.00  0.00    +0.203 A 
ENDBRANCH   3   6
BRANCH   1  15
ATOM     15  O   UNL     1       8.807  -1.300  26.374  0.00  0.00    -0.386 OA
ATOM     16  H   UNL     1       8.610  -0.413  26.740  0.00  0.00    +0.210 HD
ENDBRANCH   1  15
BRANCH   2  17
ATOM     17  O   UNL     1      11.001   0.753  25.231  0.00  0.00    -0.385 OA
ATOM     18  H   UNL     1      11.132   1.674  24.938  0.00  0.00    +0.210 HD
ENDBRANCH   2  17
BRANCH   5  19
ATOM     19  C   UNL     1       8.617  -3.003  23.637  0.00  0.00    +0.206 C 
BRANCH  19  20
ATOM     20  O   UNL     1       9.387  -3.686  24.613  0.00  0.00    -0.284 OA
BRANCH  20  21
ATOM     21  P   UNL     1       8.509  -4.903  25.473  0.00  0.00    +0.472 P 
ATOM     22  O   UNL     1       7.722  -5.993  26.242  0.00  0.00    -0.228 OA
BRANCH  21  23
ATOM     23  O   UNL     1       9.073  -4.178  26.825  0.00  0.00    -0.303 OA
ATOM     24  H   UNL     1       9.961  -4.488  27.069  0.00  0.00    +0.222 HD
ENDBRANCH  21  23
BRANCH  21  25
ATOM     25  O   UNL     1       9.821  -5.847  25.206  0.00  0.00    -0.303 OA
ATOM     26  H   UNL     1       9.582  -6.677  24.764  0.00  0.00    +0.222 HD
ENDBRANCH  21  25
ENDBRANCH  20  21
ENDBRANCH  19  20
ENDBRANCH   5  19
TORSDOF 8
ENDMDL
