MODEL 1
REMARK VINA RESULT:      -4.4      0.000      0.000
REMARK  Name = 
REMARK  8 active torsions:
REMARK  status: ('A' for Active; 'I' for Inactive)
REMARK    1  A    between atoms: O_1  and  C_2
REMARK    2  A    between atoms: C_2  and  C_3
REMARK    3  A    between atoms: C_3  and  O_5
REMARK    4  A    between atoms: C_3  and  C_10
REMARK    5  A    between atoms: O_5  and  P_6
REMARK    6  A    between atoms: P_6  and  O_7
REMARK    7  A    between atoms: P_6  and  O_8
REMARK    8  A    between atoms: C_10  and  O_11
REMARK                            x       y       z     vdW  Elec       q    Type
REMARK                         _______ _______ _______ _____ _____    ______ ____
ROOT
ATOM      1  C   UNL     1       9.460  -0.585  23.637  0.00  0.00    +0.263 C 
ENDROOT
BRANCH   1   2
ATOM      2  C   UNL     1      10.031  -1.893  23.076  0.00  0.00    +0.337 C 
ATOM      3  O   UNL     1      10.227  -2.905  23.732  0.00  0.00    -0.248 OA
BRANCH   2   4
ATOM      4  O   UNL     1      10.402  -1.794  21.779  0.00  0.00    -0.479 OA
ATOM      5  H   UNL     1      11.024  -1.040  21.624  0.00  0.00    +0.295 HD
ENDBRANCH   2   4
ENDBRANCH   1   2
BRANCH   1   6
ATOM      6  C   UNL     1       9.305  -0.678  25.160  0.00  0.00    +0.199 C 
BRANCH   6   7
ATOM      7  O   UNL     1      10.106   0.324  25.796  0.00  0.00    -0.392 OA
ATOM      8  H   UNL     1      10.768  -0.154  26.335  0.00  0.00    +0.210 HD
ENDBRANCH   6   7
ENDBRANCH   1   6
BRANCH   1   9
ATOM      9  O   UNL     1      10.142   0.583  23.223  0.00  0.00    -0.270 OA
BRANCH   9  10
ATOM     10  P   UNL     1       9.432   1.653  22.285  0.00  0.00    +0.473 P 
ATOM     11  O   UNL     1       8.230   2.370  22.781  0.00  0.00    -0.227 OA
BRANCH  10  12
ATOM     12  O   UNL     1       9.039   0.804  20.985  0.00  0.00    -0.303 OA
ATOM     13  H   UNL     1       9.188  -0.141  21.187  0.00  0.00    +0.222 HD
ENDBRANCH  10  12
BRANCH  10  14
ATOM     14  O   UNL     1      10.617   2.543  21.705  0.00  0.00    -0.303 OA
ATOM     15  H   UNL     1      11.428   2.022  21.570  0.00  0.00    +0.222 HD
ENDBRANCH  10  14
ENDBRANCH   9  10
ENDBRANCH   1   9
TORSDOF 8
ENDMDL
MODEL 2
REMARK VINA RESULT:      -4.3      1.900      3.511
REMARK  Name = 
REMARK  8 active torsions:
REMARK  status: ('A' for Active; 'I' for Inactive)
REMARK    1  A    between atoms: O_1  and  C_2
REMARK    2  A    between atoms: C_2  and  C_3
REMARK    3  A    between atoms: C_3  and  O_5
REMARK    4  A    between atoms: C_3  and  C_10
REMARK    5  A    between atoms: O_5  and  P_6
REMARK    6  A    between atoms: P_6  and  O_7
REMARK    7  A    between atoms: P_6  and  O_8
REMARK    8  A    between atoms: C_10  and  O_11
REMARK                            x       y       z     vdW  Elec       q    Type
REMARK                         _______ _______ _______ _____ _____    ______ ____
ROOT
ATOM      1  C   UNL     1      10.360   0.705  23.354  0.00  0.00    +0.263 C 
ENDROOT
BRANCH   1   2
ATOM      2  C   UNL     1      10.123   2.139  22.862  0.00  0.00    +0.337 C 
ATOM      3  O   UNL     1       9.912   3.098  23.589  0.00  0.00    -0.248 OA
BRANCH   2   4
ATOM      4  O   UNL     1      10.064   2.232  21.514  0.00  0.00    -0.479 OA
ATOM      5  H   UNL     1      10.693   2.908  21.156  0.00  0.00    +0.295 HD
ENDBRANCH   2   4
ENDBRANCH   1   2
BRANCH   1   6
ATOM      6  C   UNL     1      10.974   0.716  24.758  0.00  0.00    +0.199 C 
BRANCH   6   7
ATOM      7  O   UNL     1      10.014   0.256  25.716  0.00  0.00    -0.392 OA
ATOM      8  H   UNL     1      10.292  -0.648  25.971  0.00  0.00    +0.210 HD
ENDBRANCH   6   7
ENDBRANCH   1   6
BRANCH   1   9
ATOM      9  O   UNL     1       9.237  -0.148  23.249  0.00  0.00    -0.270 OA
BRANCH   9  10
ATOM     10  P   UNL     1       9.232  -1.369  22.228  0.00  0.00    +0.473 P 
ATOM     11  O   UNL     1       8.168  -2.399  22.334  0.00  0.00    -0.227 OA
BRANCH  10  12
ATOM     12  O   UNL     1      10.657  -2.058  22.468  0.00  0.00    -0.303 OA
ATOM     13  H   UNL     1      11.187  -1.944  21.653  0.00  0.00    +0.222 HD
ENDBRANCH  10  12
BRANCH  10  14
ATOM     14  O   UNL     1       9.462  -0.710  20.798  0.00  0.00    -0.303 OA
ATOM     15  H   UNL     1       8.632  -0.374  20.416  0.00  0.00    +0.222 HD
ENDBRANCH  10  14
ENDBRANCH   9  10
ENDBRANCH   1   9
TORSDOF 8
ENDMDL
MODEL 3
REMARK VINA RESULT:      -4.2      2.855      5.361
REMARK  Name = 
REMARK  8 active torsions:
REMARK  status: ('A' for Active; 'I' for Inactive)
REMARK    1  A    between atoms: O_1  and  C_2
REMARK    2  A    between atoms: C_2  and  C_3
REMARK    3  A    between atoms: C_3  and  O_5
REMARK    4  A    between atoms: C_3  and  C_10
REMARK    5  A    between atoms: O_5  and  P_6
REMARK    6  A    between atoms: P_6  and  O_7
REMARK    7  A    between atoms: P_6  and  O_8
REMARK    8  A    between atoms: C_10  and  O_11
REMARK                            x       y       z     vdW  Elec       q    Type
REMARK                         _______ _______ _______ _____ _____    ______ ____
ROOT
ATOM      1  C   UNL     1       9.175  -2.205  23.879  0.00  0.00    +0.263 C 
ENDROOT
BRANCH   1   2
ATOM      2  C   UNL     1       9.659  -0.956  24.626  0.00  0.00    +0.337 C 
ATOM      3  O   UNL     1      10.488  -0.166  24.199  0.00  0.00    -0.248 OA
BRANCH   2   4
ATOM      4  O   UNL     1       9.150  -0.857  25.876  0.00  0.00    -0.479 OA
ATOM      5  H   UNL     1       9.788  -0.445  26.510  0.00  0.00    +0.295 HD
ENDBRANCH   2   4
ENDBRANCH   1   2
BRANCH   1   6
ATOM      6  C   UNL     1       9.084  -1.927  22.374  0.00  0.00    +0.199 C 
BRANCH   6   7
ATOM      7  O   UNL     1      10.394  -1.715  21.835  0.00  0.00    -0.392 OA
ATOM      8  H   UNL     1      10.687  -2.577  21.476  0.00  0.00    +0.210 HD
ENDBRANCH   6   7
ENDBRANCH   1   6
BRANCH   1   9
ATOM      9  O   UNL     1       9.893  -3.387  24.179  0.00  0.00    -0.270 OA
BRANCH   9  10
ATOM     10  P   UNL     1       9.218  -4.561  25.016  0.00  0.00    +0.473 P 
ATOM     11  O   UNL     1       7.972  -5.189  24.510  0.00  0.00    -0.227 OA
BRANCH  10  12
ATOM     12  O   UNL     1       8.927  -3.883  26.437  0.00  0.00    -0.303 OA
ATOM     13  H   UNL     1       7.971  -3.973  26.623  0.00  0.00    +0.222 HD
ENDBRANCH  10  12
BRANCH  10  14
ATOM     14  O   UNL     1      10.417  -5.535  25.397  0.00  0.00    -0.303 OA
ATOM     15  H   UNL     1      10.096  -6.381  25.756  0.00  0.00    +0.222 HD
ENDBRANCH  10  14
ENDBRANCH   9  10
ENDBRANCH   1   9
TORSDOF 8
ENDMDL
MODEL 4
REMARK VINA RESULT:      -4.2      2.897      5.228
REMARK  Name = 
REMARK  8 active torsions:
REMARK  status: ('A' for Active; 'I' for Inactive)
REMARK    1  A    between atoms: O_1  and  C_2
REMARK    2  A    between atoms: C_2  and  C_3
REMARK    3  A    between atoms: C_3  and  O_5
REMARK    4  A    between atoms: C_3  and  C_10
REMARK    5  A    between atoms: O_5  and  P_6
REMARK    6  A    between atoms: P_6  and  O_7
REMARK    7  A    between atoms: P_6  and  O_8
REMARK    8  A    between atoms: C_10  and  O_11
REMARK                            x       y       z     vdW  Elec       q    Type
REMARK                         _______ _______ _______ _____ _____    ______ ____
ROOT
ATOM      1  C   UNL     1       9.384  -2.170  23.937  0.00  0.00    +0.263 C 
ENDROOT
BRANCH   1   2
ATOM      2  C   UNL     1      10.241  -1.240  23.068  0.00  0.00    +0.337 C 
ATOM      3  O   UNL     1      10.683  -0.160  23.431  0.00  0.00    -0.248 OA
BRANCH   2   4
ATOM      4  O   UNL     1      10.382  -1.684  21.799  0.00  0.00    -0.479 OA
ATOM      5  H   UNL     1       9.511  -1.800  21.343  0.00  0.00    +0.295 HD
ENDBRANCH   2   4
ENDBRANCH   1   2
BRANCH   1   6
ATOM      6  C   UNL     1       7.932  -2.174  23.446  0.00  0.00    +0.199 C 
BRANCH   6   7
ATOM      7  O   UNL     1       7.808  -3.014  22.292  0.00  0.00    -0.392 OA
ATOM      8  H   UNL     1       8.488  -3.711  22.384  0.00  0.00    +0.210 HD
ENDBRANCH   6   7
ENDBRANCH   1   6
BRANCH   1   9
ATOM      9  O   UNL     1       9.913  -3.470  24.108  0.00  0.00    -0.270 OA
BRANCH   9  10
ATOM     10  P   UNL     1       9.289  -4.471  25.176  0.00  0.00    +0.473 P 
ATOM     11  O   UNL     1       8.852  -3.947  26.494  0.00  0.00    -0.227 OA
BRANCH  10  12
ATOM     12  O   UNL     1      10.452  -5.550  25.396  0.00  0.00    -0.303 OA
ATOM     13  H   UNL     1      10.032  -6.404  25.621  0.00  0.00    +0.222 HD
ENDBRANCH  10  12
BRANCH  10  14
ATOM     14  O   UNL     1       8.236  -5.341  24.358  0.00  0.00    -0.303 OA
ATOM     15  H   UNL     1       7.824  -4.829  23.639  0.00  0.00    +0.222 HD
ENDBRANCH  10  14
ENDBRANCH   9  10
ENDBRANCH   1   9
TORSDOF 8
ENDMDL
MODEL 5
REMARK VINA RESULT:      -4.2      2.908      4.071
REMARK  Name = 
REMARK  8 active torsions:
REMARK  status: ('A' for Active; 'I' for Inactive)
REMARK    1  A    between atoms: O_1  and  C_2
REMARK    2  A    between atoms: C_2  and  C_3
REMARK    3  A    between atoms: C_3  and  O_5
REMARK    4  A    between atoms: C_3  and  C_10
REMARK    5  A    between atoms: O_5  and  P_6
REMARK    6  A    between atoms: P_6  and  O_7
REMARK    7  A    between atoms: P_6  and  O_8
REMARK    8  A    between atoms: C_10  and  O_11
REMARK                            x       y       z     vdW  Elec       q    Type
REMARK                         _______ _______ _______ _____ _____    ______ ____
ROOT
ATOM      1  C   UNL     1       8.902  -3.842  24.584  0.00  0.00    +0.263 C 
ENDROOT
BRANCH   1   2
ATOM      2  C   UNL     1       7.960  -4.689  23.719  0.00  0.00    +0.337 C 
ATOM      3  O   UNL     1       8.264  -5.749  23.191  0.00  0.00    -0.248 OA
BRANCH   2   4
ATOM      4  O   UNL     1       6.765  -4.094  23.501  0.00  0.00    -0.479 OA
ATOM      5  H   UNL     1       6.565  -3.395  24.173  0.00  0.00    +0.295 HD
ENDBRANCH   2   4
ENDBRANCH   1   2
BRANCH   1   6
ATOM      6  C   UNL     1       9.388  -4.648  25.794  0.00  0.00    +0.199 C 
BRANCH   6   7
ATOM      7  O   UNL     1      10.275  -5.688  25.366  0.00  0.00    -0.392 OA
ATOM      8  H   UNL     1      11.028  -5.243  24.927  0.00  0.00    +0.210 HD
ENDBRANCH   6   7
ENDBRANCH   1   6
BRANCH   1   9
ATOM      9  O   UNL     1       9.957  -3.222  23.874  0.00  0.00    -0.270 OA
BRANCH   9  10
ATOM     10  P   UNL     1       9.840  -1.709  23.395  0.00  0.00    +0.473 P 
ATOM     11  O   UNL     1      10.283  -0.622  24.303  0.00  0.00    -0.227 OA
BRANCH  10  12
ATOM     12  O   UNL     1       8.277  -1.537  23.091  0.00  0.00    -0.303 OA
ATOM     13  H   UNL     1       8.133  -0.628  22.760  0.00  0.00    +0.222 HD
ENDBRANCH  10  12
BRANCH  10  14
ATOM     14  O   UNL     1      10.427  -1.700  21.916  0.00  0.00    -0.303 OA
ATOM     15  H   UNL     1      10.986  -2.479  21.743  0.00  0.00    +0.222 HD
ENDBRANCH  10  14
ENDBRANCH   9  10
ENDBRANCH   1   9
TORSDOF 8
ENDMDL
MODEL 6
REMARK VINA RESULT:      -4.2      4.815      5.971
REMARK  Name = 
REMARK  8 active torsions:
REMARK  status: ('A' for Active; 'I' for Inactive)
REMARK    1  A    between atoms: O_1  and  C_2
REMARK    2  A    between atoms: C_2  and  C_3
REMARK    3  A    between atoms: C_3  and  O_5
REMARK    4  A    between atoms: C_3  and  C_10
REMARK    5  A    between atoms: O_5  and  P_6
REMARK    6  A    between atoms: P_6  and  O_7
REMARK    7  A    between atoms: P_6  and  O_8
REMARK    8  A    between atoms: C_10  and  O_11
REMARK                            x       y       z     vdW  Elec       q    Type
REMARK                         _______ _______ _______ _____ _____    ______ ____
ROOT
ATOM      1  C   UNL     1       7.649  -5.114  25.136  0.00  0.00    +0.263 C 
ENDROOT
BRANCH   1   2
ATOM      2  C   UNL     1       9.150  -4.890  24.912  0.00  0.00    +0.337 C 
ATOM      3  O   UNL     1       9.639  -3.874  24.443  0.00  0.00    -0.248 OA
BRANCH   2   4
ATOM      4  O   UNL     1       9.894  -5.984  25.191  0.00  0.00    -0.479 OA
ATOM      5  H   UNL     1      10.840  -5.875  24.917  0.00  0.00    +0.295 HD
ENDBRANCH   2   4
ENDBRANCH   1   2
BRANCH   1   6
ATOM      6  C   UNL     1       7.294  -4.922  26.615  0.00  0.00    +0.199 C 
BRANCH   6   7
ATOM      7  O   UNL     1       8.032  -5.848  27.420  0.00  0.00    -0.392 OA
ATOM      8  H   UNL     1       7.375  -6.312  27.978  0.00  0.00    +0.210 HD
ENDBRANCH   6   7
ENDBRANCH   1   6
BRANCH   1   9
ATOM      9  O   UNL     1       6.807  -4.382  24.267  0.00  0.00    -0.270 OA
BRANCH   9  10
ATOM     10  P   UNL     1       6.773  -4.696  22.707  0.00  0.00    +0.473 P 
ATOM     11  O   UNL     1       7.320  -5.985  22.213  0.00  0.00    -0.227 OA
BRANCH  10  12
ATOM     12  O   UNL     1       7.611  -3.490  22.068  0.00  0.00    -0.303 OA
ATOM     13  H   UNL     1       8.382  -3.320  22.646  0.00  0.00    +0.222 HD
ENDBRANCH  10  12
BRANCH  10  14
ATOM     14  O   UNL     1       5.302  -4.309  22.241  0.00  0.00    -0.303 OA
ATOM     15  H   UNL     1       5.042  -3.425  22.559  0.00  0.00    +0.222 HD
ENDBRANCH  10  14
ENDBRANCH   9  10
ENDBRANCH   1   9
TORSDOF 8
ENDMDL
MODEL 7
REMARK VINA RESULT:      -4.2      5.433      6.790
REMARK  Name = 
REMARK  8 active torsions:
REMARK  status: ('A' for Active; 'I' for Inactive)
REMARK    1  A    between atoms: O_1  and  C_2
REMARK    2  A    between atoms: C_2  and  C_3
REMARK    3  A    between atoms: C_3  and  O_5
REMARK    4  A    between atoms: C_3  and  C_10
REMARK    5  A    between atoms: O_5  and  P_6
REMARK    6  A    between atoms: P_6  and  O_7
REMARK    7  A    between atoms: P_6  and  O_8
REMARK    8  A    between atoms: C_10  and  O_11
REMARK                            x       y       z     vdW  Elec       q    Type
REMARK                         _______ _______ _______ _____ _____    ______ ____
ROOT
ATOM      1  C   UNL     1       6.912  -4.777  23.369  0.00  0.00    +0.263 C 
ENDROOT
BRANCH   1   2
ATOM      2  C   UNL     1       6.590  -5.829  22.301  0.00  0.00    +0.337 C 
ATOM      3  O   UNL     1       7.104  -5.877  21.193  0.00  0.00    -0.248 OA
BRANCH   2   4
ATOM      4  O   UNL     1       5.586  -6.660  22.663  0.00  0.00    -0.479 OA
ATOM      5  H   UNL     1       4.697  -6.310  22.404  0.00  0.00    +0.295 HD
ENDBRANCH   2   4
ENDBRANCH   1   2
BRANCH   1   6
ATOM      6  C   UNL     1       5.882  -3.642  23.331  0.00  0.00    +0.199 C 
BRANCH   6   7
ATOM      7  O   UNL     1       5.074  -3.754  22.154  0.00  0.00    -0.392 OA
ATOM      8  H   UNL     1       4.511  -4.544  22.281  0.00  0.00    +0.210 HD
ENDBRANCH   6   7
ENDBRANCH   1   6
BRANCH   1   9
ATOM      9  O   UNL     1       7.111  -5.298  24.669  0.00  0.00    -0.270 OA
BRANCH   9  10
ATOM     10  P   UNL     1       8.435  -4.967  25.487  0.00  0.00    +0.473 P 
ATOM     11  O   UNL     1       8.848  -3.552  25.659  0.00  0.00    -0.227 OA
BRANCH  10  12
ATOM     12  O   UNL     1       9.574  -5.754  24.682  0.00  0.00    -0.303 OA
ATOM     13  H   UNL     1      10.324  -5.141  24.546  0.00  0.00    +0.222 HD
ENDBRANCH  10  12
BRANCH  10  14
ATOM     14  O   UNL     1       8.339  -5.858  26.802  0.00  0.00    -0.303 OA
ATOM     15  H   UNL     1       7.417  -5.974  27.095  0.00  0.00    +0.222 HD
ENDBRANCH  10  14
ENDBRANCH   9  10
ENDBRANCH   1   9
TORSDOF 8
ENDMDL
MODEL 8
REMARK VINA RESULT:      -4.1      4.626      6.596
REMARK  Name = 
REMARK  8 active torsions:
REMARK  status: ('A' for Active; 'I' for Inactive)
REMARK    1  A    between atoms: O_1  and  C_2
REMARK    2  A    between atoms: C_2  and  C_3
REMARK    3  A    between atoms: C_3  and  O_5
REMARK    4  A    between atoms: C_3  and  C_10
REMARK    5  A    between atoms: O_5  and  P_6
REMARK    6  A    between atoms: P_6  and  O_7
REMARK    7  A    between atoms: P_6  and  O_8
REMARK    8  A    between atoms: C_10  and  O_11
REMARK                            x       y       z     vdW  Elec       q    Type
REMARK                         _______ _______ _______ _____ _____    ______ ____
ROOT
ATOM      1  C   UNL     1       7.000  -5.069  22.822  0.00  0.00    +0.263 C 
ENDROOT
BRANCH   1   2
ATOM      2  C   UNL     1       6.846  -3.682  22.183  0.00  0.00    +0.337 C 
ATOM      3  O   UNL     1       7.698  -2.806  22.208  0.00  0.00    -0.248 OA
BRANCH   2   4
ATOM      4  O   UNL     1       5.615  -3.474  21.664  0.00  0.00    -0.479 OA
ATOM      5  H   UNL     1       5.630  -2.841  20.903  0.00  0.00    +0.295 HD
ENDBRANCH   2   4
ENDBRANCH   1   2
BRANCH   1   6
ATOM      6  C   UNL     1       6.515  -6.159  21.858  0.00  0.00    +0.199 C 
BRANCH   6   7
ATOM      7  O   UNL     1       5.083  -6.168  21.811  0.00  0.00    -0.392 OA
ATOM      8  H   UNL     1       4.787  -5.361  22.279  0.00  0.00    +0.210 HD
ENDBRANCH   6   7
ENDBRANCH   1   6
BRANCH   1   9
ATOM      9  O   UNL     1       8.284  -5.334  23.353  0.00  0.00    -0.270 OA
BRANCH   9  10
ATOM     10  P   UNL     1       8.623  -5.001  24.872  0.00  0.00    +0.473 P 
ATOM     11  O   UNL     1       7.540  -5.053  25.886  0.00  0.00    -0.227 OA
BRANCH  10  12
ATOM     12  O   UNL     1       9.209  -3.513  24.803  0.00  0.00    -0.303 OA
ATOM     13  H   UNL     1       9.839  -3.472  24.057  0.00  0.00    +0.222 HD
ENDBRANCH  10  12
BRANCH  10  14
ATOM     14  O   UNL     1       9.948  -5.823  25.187  0.00  0.00    -0.303 OA
ATOM     15  H   UNL     1      10.414  -6.085  24.373  0.00  0.00    +0.222 HD
ENDBRANCH  10  14
ENDBRANCH   9  10
ENDBRANCH   1   9
TORSDOF 8
ENDMDL
MODEL 9
REMARK VINA RESULT:      -4.1      3.282      5.437
REMARK  Name = 
REMARK  8 active torsions:
REMARK  status: ('A' for Active; 'I' for Inactive)
REMARK    1  A    between atoms: O_1  and  C_2
REMARK    2  A    between atoms: C_2  and  C_3
REMARK    3  A    between atoms: C_3  and  O_5
REMARK    4  A    between atoms: C_3  and  C_10
REMARK    5  A    between atoms: O_5  and  P_6
REMARK    6  A    between atoms: P_6  and  O_7
REMARK    7  A    between atoms: P_6  and  O_8
REMARK    8  A    between atoms: C_10  and  O_11
REMARK                            x       y       z     vdW  Elec       q    Type
REMARK                         _______ _______ _______ _____ _____    ______ ____
ROOT
ATOM      1  C   UNL     1       9.074  -2.799  23.333  0.00  0.00    +0.263 C 
ENDROOT
BRANCH   1   2
ATOM      2  C   UNL     1       7.714  -2.347  22.783  0.00  0.00    +0.337 C 
ATOM      3  O   UNL     1       6.851  -3.100  22.356  0.00  0.00    -0.248 OA
BRANCH   2   4
ATOM      4  O   UNL     1       7.592  -1.002  22.718  0.00  0.00    -0.479 OA
ATOM      5  H   UNL     1       8.470  -0.546  22.693  0.00  0.00    +0.295 HD
ENDBRANCH   2   4
ENDBRANCH   1   2
BRANCH   1   6
ATOM      6  C   UNL     1      10.147  -1.744  23.040  0.00  0.00    +0.199 C 
BRANCH   6   7
ATOM      7  O   UNL     1      10.294  -1.574  21.625  0.00  0.00    -0.392 OA
ATOM      8  H   UNL     1      10.475  -2.463  21.259  0.00  0.00    +0.210 HD
ENDBRANCH   6   7
ENDBRANCH   1   6
BRANCH   1   9
ATOM      9  O   UNL     1       9.057  -3.208  24.686  0.00  0.00    -0.270 OA
BRANCH   9  10
ATOM     10  P   UNL     1       8.958  -4.749  25.073  0.00  0.00    +0.473 P 
ATOM     11  O   UNL     1       8.318  -5.137  26.355  0.00  0.00    -0.227 OA
BRANCH  10  12
ATOM     12  O   UNL     1      10.486  -5.227  25.081  0.00  0.00    -0.303 OA
ATOM     13  H   UNL     1      11.049  -4.438  24.949  0.00  0.00    +0.222 HD
ENDBRANCH  10  12
BRANCH  10  14
ATOM     14  O   UNL     1       8.434  -5.470  23.755  0.00  0.00    -0.303 OA
ATOM     15  H   UNL     1       7.834  -6.209  23.960  0.00  0.00    +0.222 HD
ENDBRANCH  10  14
ENDBRANCH   9  10
ENDBRANCH   1   9
TORSDOF 8
ENDMDL
