MODEL 1
REMARK VINA RESULT:      -6.9      0.000      0.000
REMARK  Name = 
REMARK  8 active torsions:
REMARK  status: ('A' for Active; 'I' for Inactive)
REMARK    1  A    between atoms: C_1  and  O_2
REMARK    2  A    between atoms: O_2  and  C_3
REMARK    3  A    between atoms: C_6  and  N_9
REMARK    4  A    between atoms: C_12  and  N_13
REMARK    5  A    between atoms: C_14  and  C_16
REMARK    6  A    between atoms: C_16  and  C_18
REMARK    7  A    between atoms: C_21  and  O_22
REMARK    8  A    between atoms: O_22  and  C_23
REMARK                            x       y       z     vdW  Elec       q    Type
REMARK                         _______ _______ _______ _____ _____    ______ ____
ROOT
ATOM      1  N   UNL     1       7.604  -3.777  23.405  0.00  0.00    -0.224 NA
ATOM      2  C   UNL     1       7.767  -2.495  23.297  0.00  0.00    +0.173 A 
ATOM      3  S   UNL     1       7.740  -1.274  24.580  0.00  0.00    -0.045 S 
ATOM      4  C   UNL     1       8.978  -0.391  23.706  0.00  0.00    +0.100 A 
ATOM      5  C   UNL     1       9.004  -0.745  22.395  0.00  0.00    +0.113 A 
ATOM      6  N   UNL     1       8.182  -1.847  22.154  0.00  0.00    -0.322 N 
ATOM      7  H   UNL     1       8.489  -2.444  21.398  0.00  0.00    +0.169 HD
ENDROOT
BRANCH   1  11
ATOM      8  C   UNL     1       7.209  -5.581  27.223  0.00  0.00    +0.120 A 
ATOM      9  C   UNL     1       6.087  -5.391  26.429  0.00  0.00    +0.048 A 
ATOM     10  C   UNL     1       6.212  -4.791  25.176  0.00  0.00    +0.031 A 
ATOM     11  C   UNL     1       7.459  -4.453  24.633  0.00  0.00    +0.067 A 
ATOM     12  C   UNL     1       8.575  -4.651  25.439  0.00  0.00    +0.031 A 
ATOM     13  C   UNL     1       8.458  -5.202  26.727  0.00  0.00    +0.048 A 
BRANCH   8  15
ATOM     14  C   UNL     1       5.747  -5.705  29.083  0.00  0.00    +0.277 C 
ATOM     15  O   UNL     1       6.947  -6.124  28.448  0.00  0.00    -0.495 OA
ENDBRANCH   8  15
ENDBRANCH   1  11
BRANCH   5  16
ATOM     16  N   UNL     1       9.793  -0.219  21.406  0.00  0.00    -0.344 N 
ATOM     17  H   UNL     1      10.696   0.087  21.775  0.00  0.00    +0.144 HD
ATOM     18  H   UNL     1       9.327   0.546  20.923  0.00  0.00    +0.144 HD
ENDBRANCH   5  16
BRANCH   4  19
ATOM     19  C   UNL     1       9.920   0.547  24.393  0.00  0.00    +0.203 C 
ATOM     20  O   UNL     1      10.760   0.125  25.186  0.00  0.00    -0.286 OA
BRANCH  19  21
ATOM     21  C   UNL     1       9.818   2.024  24.140  0.00  0.00    +0.023 A 
ATOM     22  C   UNL     1       8.677   2.725  24.545  0.00  0.00    +0.015 A 
ATOM     23  C   UNL     1       8.609   4.123  24.403  0.00  0.00    +0.046 A 
ATOM     24  C   UNL     1       9.691   4.832  23.874  0.00  0.00    +0.120 A 
ATOM     25  C   UNL     1      10.806   4.130  23.426  0.00  0.00    +0.046 A 
ATOM     26  C   UNL     1      10.835   2.736  23.498  0.00  0.00    +0.015 A 
BRANCH  24  27
ATOM     27  O   UNL     1       9.800   6.191  23.823  0.00  0.00    -0.495 OA
ATOM     28  C   UNL     1       8.689   6.921  24.328  0.00  0.00    +0.277 C 
ENDBRANCH  24  27
ENDBRANCH  19  21
ENDBRANCH   4  19
TORSDOF 6
ENDMDL
MODEL 2
REMARK VINA RESULT:      -6.6      2.296      3.152
REMARK  Name = 
REMARK  8 active torsions:
REMARK  status: ('A' for Active; 'I' for Inactive)
REMARK    1  A    between atoms: C_1  and  O_2
REMARK    2  A    between atoms: O_2  and  C_3
REMARK    3  A    between atoms: C_6  and  N_9
REMARK    4  A    between atoms: C_12  and  N_13
REMARK    5  A    between atoms: C_14  and  C_16
REMARK    6  A    between atoms: C_16  and  C_18
REMARK    7  A    between atoms: C_21  and  O_22
REMARK    8  A    between atoms: O_22  and  C_23
REMARK                            x       y       z     vdW  Elec       q    Type
REMARK                         _______ _______ _______ _____ _____    ______ ____
ROOT
ATOM      1  N   UNL     1       9.046  -2.142  22.360  0.00  0.00    -0.224 NA
ATOM      2  C   UNL     1       8.658  -0.914  22.204  0.00  0.00    +0.173 A 
ATOM      3  S   UNL     1       7.389  -0.045  23.081  0.00  0.00    -0.045 S 
ATOM      4  C   UNL     1       8.360   1.409  22.958  0.00  0.00    +0.100 A 
ATOM      5  C   UNL     1       9.264   1.316  21.948  0.00  0.00    +0.113 A 
ATOM      6  N   UNL     1       9.302   0.022  21.425  0.00  0.00    -0.322 N 
ATOM      7  H   UNL     1      10.202  -0.257  21.058  0.00  0.00    +0.169 HD
ENDROOT
BRANCH   1  11
ATOM      8  C   UNL     1       7.700  -4.926  25.263  0.00  0.00    +0.120 A 
ATOM      9  C   UNL     1       8.686  -4.007  25.592  0.00  0.00    +0.048 A 
ATOM     10  C   UNL     1       9.136  -3.095  24.637  0.00  0.00    +0.031 A 
ATOM     11  C   UNL     1       8.557  -3.001  23.365  0.00  0.00    +0.067 A 
ATOM     12  C   UNL     1       7.567  -3.927  23.050  0.00  0.00    +0.031 A 
ATOM     13  C   UNL     1       7.144  -4.890  23.984  0.00  0.00    +0.048 A 
BRANCH   8  15
ATOM     14  C   UNL     1       6.772  -5.247  27.419  0.00  0.00    +0.277 C 
ATOM     15  O   UNL     1       7.388  -5.800  26.265  0.00  0.00    -0.495 OA
ENDBRANCH   8  15
ENDBRANCH   1  11
BRANCH   5  16
ATOM     16  N   UNL     1      10.140   2.279  21.523  0.00  0.00    -0.344 N 
ATOM     17  H   UNL     1      10.920   2.385  22.175  0.00  0.00    +0.144 HD
ATOM     18  H   UNL     1       9.672   3.171  21.377  0.00  0.00    +0.144 HD
ENDBRANCH   5  16
BRANCH   4  19
ATOM     19  C   UNL     1       8.230   2.537  23.933  0.00  0.00    +0.203 C 
ATOM     20  O   UNL     1       8.678   2.437  25.074  0.00  0.00    -0.286 OA
BRANCH  19  21
ATOM     21  C   UNL     1       7.514   3.795  23.528  0.00  0.00    +0.023 A 
ATOM     22  C   UNL     1       8.245   4.952  23.239  0.00  0.00    +0.015 A 
ATOM     23  C   UNL     1       7.597   6.108  22.766  0.00  0.00    +0.046 A 
ATOM     24  C   UNL     1       6.215   6.106  22.558  0.00  0.00    +0.120 A 
ATOM     25  C   UNL     1       5.482   4.971  22.891  0.00  0.00    +0.046 A 
ATOM     26  C   UNL     1       6.122   3.855  23.434  0.00  0.00    +0.015 A 
BRANCH  24  27
ATOM     27  O   UNL     1       5.501   7.108  21.968  0.00  0.00    -0.495 OA
ATOM     28  C   UNL     1       4.086   6.969  22.013  0.00  0.00    +0.277 C 
ENDBRANCH  24  27
ENDBRANCH  19  21
ENDBRANCH   4  19
TORSDOF 6
ENDMDL
MODEL 3
REMARK VINA RESULT:      -6.6      2.602      3.242
REMARK  Name = 
REMARK  8 active torsions:
REMARK  status: ('A' for Active; 'I' for Inactive)
REMARK    1  A    between atoms: C_1  and  O_2
REMARK    2  A    between atoms: O_2  and  C_3
REMARK    3  A    between atoms: C_6  and  N_9
REMARK    4  A    between atoms: C_12  and  N_13
REMARK    5  A    between atoms: C_14  and  C_16
REMARK    6  A    between atoms: C_16  and  C_18
REMARK    7  A    between atoms: C_21  and  O_22
REMARK    8  A    between atoms: O_22  and  C_23
REMARK                            x       y       z     vdW  Elec       q    Type
REMARK                         _______ _______ _______ _____ _____    ______ ____
ROOT
ATOM      1  N   UNL     1       8.819  -3.637  23.661  0.00  0.00    -0.224 NA
ATOM      2  C   UNL     1       8.974  -2.358  23.518  0.00  0.00    +0.173 A 
ATOM      3  S   UNL     1       7.808  -1.172  22.909  0.00  0.00    -0.045 S 
ATOM      4  C   UNL     1       8.462  -0.009  24.046  0.00  0.00    +0.100 A 
ATOM      5  C   UNL     1       9.714  -0.357  24.443  0.00  0.00    +0.113 A 
ATOM      6  N   UNL     1      10.047  -1.637  23.996  0.00  0.00    -0.322 N 
ATOM      7  H   UNL     1      10.682  -2.142  24.599  0.00  0.00    +0.169 HD
ENDROOT
BRANCH   1  11
ATOM      8  C   UNL     1       5.044  -5.444  22.972  0.00  0.00    +0.120 A 
ATOM      9  C   UNL     1       5.950  -5.316  21.928  0.00  0.00    +0.048 A 
ATOM     10  C   UNL     1       7.189  -4.715  22.150  0.00  0.00    +0.031 A 
ATOM     11  C   UNL     1       7.606  -4.315  23.427  0.00  0.00    +0.067 A 
ATOM     12  C   UNL     1       6.689  -4.452  24.463  0.00  0.00    +0.031 A 
ATOM     13  C   UNL     1       5.414  -5.003  24.243  0.00  0.00    +0.048 A 
BRANCH   8  15
ATOM     14  C   UNL     1       2.695  -5.491  23.275  0.00  0.00    +0.277 C 
ATOM     15  O   UNL     1       3.847  -5.996  22.614  0.00  0.00    -0.495 OA
ENDBRANCH   8  15
ENDBRANCH   1  11
BRANCH   5  16
ATOM     16  N   UNL     1      10.549   0.344  25.271  0.00  0.00    -0.344 N 
ATOM     17  H   UNL     1      11.263   0.848  24.739  0.00  0.00    +0.144 HD
ATOM     18  H   UNL     1      10.983  -0.262  25.964  0.00  0.00    +0.144 HD
ENDBRANCH   5  16
BRANCH   4  19
ATOM     19  C   UNL     1       7.658   1.147  24.551  0.00  0.00    +0.203 C 
ATOM     20  O   UNL     1       6.834   0.994  25.451  0.00  0.00    -0.286 OA
BRANCH  19  21
ATOM     21  C   UNL     1       7.832   2.505  23.932  0.00  0.00    +0.023 A 
ATOM     22  C   UNL     1       7.102   2.850  22.789  0.00  0.00    +0.015 A 
ATOM     23  C   UNL     1       7.182   4.149  22.255  0.00  0.00    +0.046 A 
ATOM     24  C   UNL     1       7.976   5.118  22.874  0.00  0.00    +0.120 A 
ATOM     25  C   UNL     1       8.740   4.762  23.981  0.00  0.00    +0.046 A 
ATOM     26  C   UNL     1       8.716   3.450  24.458  0.00  0.00    +0.015 A 
BRANCH  24  27
ATOM     27  O   UNL     1       8.020   6.441  22.538  0.00  0.00    -0.495 OA
ATOM     28  C   UNL     1       6.861   6.953  21.892  0.00  0.00    +0.277 C 
ENDBRANCH  24  27
ENDBRANCH  19  21
ENDBRANCH   4  19
TORSDOF 6
ENDMDL
MODEL 4
REMARK VINA RESULT:      -6.5      2.758      8.341
REMARK  Name = 
REMARK  8 active torsions:
REMARK  status: ('A' for Active; 'I' for Inactive)
REMARK    1  A    between atoms: C_1  and  O_2
REMARK    2  A    between atoms: O_2  and  C_3
REMARK    3  A    between atoms: C_6  and  N_9
REMARK    4  A    between atoms: C_12  and  N_13
REMARK    5  A    between atoms: C_14  and  C_16
REMARK    6  A    between atoms: C_16  and  C_18
REMARK    7  A    between atoms: C_21  and  O_22
REMARK    8  A    between atoms: O_22  and  C_23
REMARK                            x       y       z     vdW  Elec       q    Type
REMARK                         _______ _______ _______ _____ _____    ______ ____
ROOT
ATOM      1  N   UNL     1       9.879  -1.864  23.227  0.00  0.00    -0.224 NA
ATOM      2  C   UNL     1       9.679  -2.547  24.311  0.00  0.00    +0.173 A 
ATOM      3  S   UNL     1       8.623  -2.151  25.677  0.00  0.00    -0.045 S 
ATOM      4  C   UNL     1       8.283  -3.862  25.855  0.00  0.00    +0.100 A 
ATOM      5  C   UNL     1       9.248  -4.620  25.272  0.00  0.00    +0.113 A 
ATOM      6  N   UNL     1      10.128  -3.832  24.527  0.00  0.00    -0.322 N 
ATOM      7  H   UNL     1      10.533  -4.296  23.726  0.00  0.00    +0.169 HD
ENDROOT
BRANCH   1  11
ATOM      8  C   UNL     1       7.823   1.634  21.994  0.00  0.00    +0.120 A 
ATOM      9  C   UNL     1       7.121   0.590  22.580  0.00  0.00    +0.048 A 
ATOM     10  C   UNL     1       7.793  -0.565  22.979  0.00  0.00    +0.031 A 
ATOM     11  C   UNL     1       9.188  -0.680  22.902  0.00  0.00    +0.067 A 
ATOM     12  C   UNL     1       9.878   0.375  22.316  0.00  0.00    +0.031 A 
ATOM     13  C   UNL     1       9.207   1.522  21.855  0.00  0.00    +0.048 A 
BRANCH   8  15
ATOM     14  C   UNL     1       7.196   3.896  22.318  0.00  0.00    +0.277 C 
ATOM     15  O   UNL     1       7.044   2.682  21.595  0.00  0.00    -0.495 OA
ENDBRANCH   8  15
ENDBRANCH   1  11
BRANCH   5  16
ATOM     16  N   UNL     1       9.344  -5.986  25.268  0.00  0.00    -0.344 N 
ATOM     17  H   UNL     1       8.976  -6.382  24.400  0.00  0.00    +0.144 HD
ATOM     18  H   UNL     1       8.876  -6.396  26.073  0.00  0.00    +0.144 HD
ENDBRANCH   5  16
BRANCH   4  19
ATOM     19  C   UNL     1       7.024  -4.360  26.491  0.00  0.00    +0.203 C 
ATOM     20  O   UNL     1       6.982  -4.602  27.696  0.00  0.00    -0.286 OA
BRANCH  19  21
ATOM     21  C   UNL     1       5.806  -4.601  25.645  0.00  0.00    +0.023 A 
ATOM     22  C   UNL     1       4.986  -3.528  25.280  0.00  0.00    +0.015 A 
ATOM     23  C   UNL     1       3.898  -3.723  24.410  0.00  0.00    +0.046 A 
ATOM     24  C   UNL     1       3.636  -4.990  23.882  0.00  0.00    +0.120 A 
ATOM     25  C   UNL     1       4.421  -6.067  24.283  0.00  0.00    +0.046 A 
ATOM     26  C   UNL     1       5.450  -5.879  25.208  0.00  0.00    +0.015 A 
BRANCH  24  27
ATOM     27  O   UNL     1       2.708  -5.273  22.922  0.00  0.00    -0.495 OA
ATOM     28  C   UNL     1       2.187  -6.596  22.935  0.00  0.00    +0.277 C 
ENDBRANCH  24  27
ENDBRANCH  19  21
ENDBRANCH   4  19
TORSDOF 6
ENDMDL
MODEL 5
REMARK VINA RESULT:      -6.4      1.775      8.590
REMARK  Name = 
REMARK  8 active torsions:
REMARK  status: ('A' for Active; 'I' for Inactive)
REMARK    1  A    between atoms: C_1  and  O_2
REMARK    2  A    between atoms: O_2  and  C_3
REMARK    3  A    between atoms: C_6  and  N_9
REMARK    4  A    between atoms: C_12  and  N_13
REMARK    5  A    between atoms: C_14  and  C_16
REMARK    6  A    between atoms: C_16  and  C_18
REMARK    7  A    between atoms: C_21  and  O_22
REMARK    8  A    between atoms: O_22  and  C_23
REMARK                            x       y       z     vdW  Elec       q    Type
REMARK                         _______ _______ _______ _____ _____    ______ ____
ROOT
ATOM      1  N   UNL     1       9.268   0.183  21.668  0.00  0.00    -0.224 NA
ATOM      2  C   UNL     1       8.971  -0.860  22.379  0.00  0.00    +0.173 A 
ATOM      3  S   UNL     1       8.607  -0.941  24.110  0.00  0.00    -0.045 S 
ATOM      4  C   UNL     1       7.457  -2.218  23.765  0.00  0.00    +0.100 A 
ATOM      5  C   UNL     1       7.721  -2.811  22.571  0.00  0.00    +0.113 A 
ATOM      6  N   UNL     1       8.703  -2.111  21.867  0.00  0.00    -0.322 N 
ATOM      7  H   UNL     1       8.618  -2.165  20.861  0.00  0.00    +0.169 HD
ENDROOT
BRANCH   1  11
ATOM      8  C   UNL     1       9.096   4.069  23.360  0.00  0.00    +0.120 A 
ATOM      9  C   UNL     1      10.269   3.332  23.438  0.00  0.00    +0.048 A 
ATOM     10  C   UNL     1      10.327   2.051  22.890  0.00  0.00    +0.031 A 
ATOM     11  C   UNL     1       9.261   1.503  22.164  0.00  0.00    +0.067 A 
ATOM     12  C   UNL     1       8.092   2.254  22.091  0.00  0.00    +0.031 A 
ATOM     13  C   UNL     1       8.001   3.523  22.689  0.00  0.00    +0.048 A 
BRANCH   8  15
ATOM     14  C   UNL     1      10.388   5.976  23.915  0.00  0.00    +0.277 C 
ATOM     15  O   UNL     1       9.150   5.282  23.984  0.00  0.00    -0.495 OA
ENDBRANCH   8  15
ENDBRANCH   1  11
BRANCH   5  16
ATOM     16  N   UNL     1       7.073  -3.880  22.011  0.00  0.00    -0.344 N 
ATOM     17  H   UNL     1       6.761  -3.668  21.060  0.00  0.00    +0.144 HD
ATOM     18  H   UNL     1       6.290  -4.184  22.585  0.00  0.00    +0.144 HD
ENDBRANCH   5  16
BRANCH   4  19
ATOM     19  C   UNL     1       6.295  -2.506  24.662  0.00  0.00    +0.203 C 
ATOM     20  O   UNL     1       5.211  -1.953  24.484  0.00  0.00    -0.286 OA
BRANCH  19  21
ATOM     21  C   UNL     1       6.460  -3.453  25.817  0.00  0.00    +0.023 A 
ATOM     22  C   UNL     1       5.446  -3.573  26.773  0.00  0.00    +0.015 A 
ATOM     23  C   UNL     1       5.544  -4.525  27.804  0.00  0.00    +0.046 A 
ATOM     24  C   UNL     1       6.648  -5.378  27.873  0.00  0.00    +0.120 A 
ATOM     25  C   UNL     1       7.679  -5.228  26.951  0.00  0.00    +0.046 A 
ATOM     26  C   UNL     1       7.611  -4.228  25.978  0.00  0.00    +0.015 A 
BRANCH  24  27
ATOM     27  O   UNL     1       6.785  -6.431  28.731  0.00  0.00    -0.495 OA
ATOM     28  C   UNL     1       6.019  -6.357  29.927  0.00  0.00    +0.277 C 
ENDBRANCH  24  27
ENDBRANCH  19  21
ENDBRANCH   4  19
TORSDOF 6
ENDMDL
MODEL 6
REMARK VINA RESULT:      -6.4      1.898      8.165
REMARK  Name = 
REMARK  8 active torsions:
REMARK  status: ('A' for Active; 'I' for Inactive)
REMARK    1  A    between atoms: C_1  and  O_2
REMARK    2  A    between atoms: O_2  and  C_3
REMARK    3  A    between atoms: C_6  and  N_9
REMARK    4  A    between atoms: C_12  and  N_13
REMARK    5  A    between atoms: C_14  and  C_16
REMARK    6  A    between atoms: C_16  and  C_18
REMARK    7  A    between atoms: C_21  and  O_22
REMARK    8  A    between atoms: O_22  and  C_23
REMARK                            x       y       z     vdW  Elec       q    Type
REMARK                         _______ _______ _______ _____ _____    ______ ____
ROOT
ATOM      1  N   UNL     1       8.190  -1.018  22.160  0.00  0.00    -0.224 NA
ATOM      2  C   UNL     1       8.476  -2.198  22.617  0.00  0.00    +0.173 A 
ATOM      3  S   UNL     1       9.714  -2.645  23.802  0.00  0.00    -0.045 S 
ATOM      4  C   UNL     1       8.631  -3.886  24.401  0.00  0.00    +0.100 A 
ATOM      5  C   UNL     1       7.692  -4.212  23.475  0.00  0.00    +0.113 A 
ATOM      6  N   UNL     1       7.728  -3.332  22.391  0.00  0.00    -0.322 N 
ATOM      7  H   UNL     1       6.836  -3.187  21.938  0.00  0.00    +0.169 HD
ENDROOT
BRANCH   1  11
ATOM      8  C   UNL     1       9.862   2.692  23.356  0.00  0.00    +0.120 A 
ATOM      9  C   UNL     1       8.872   2.099  24.127  0.00  0.00    +0.048 A 
ATOM     10  C   UNL     1       8.314   0.883  23.732  0.00  0.00    +0.031 A 
ATOM     11  C   UNL     1       8.788   0.172  22.622  0.00  0.00    +0.067 A 
ATOM     12  C   UNL     1       9.782   0.777  21.860  0.00  0.00    +0.031 A 
ATOM     13  C   UNL     1      10.313   2.030  22.213  0.00  0.00    +0.048 A 
BRANCH   8  15
ATOM     14  C   UNL     1      11.547   4.356  23.351  0.00  0.00    +0.277 C 
ATOM     15  O   UNL     1      10.283   3.906  23.817  0.00  0.00    -0.495 OA
ENDBRANCH   8  15
ENDBRANCH   1  11
BRANCH   5  16
ATOM     16  N   UNL     1       6.727  -5.179  23.572  0.00  0.00    -0.344 N 
ATOM     17  H   UNL     1       7.074  -6.083  23.246  0.00  0.00    +0.144 HD
ATOM     18  H   UNL     1       5.884  -4.916  23.067  0.00  0.00    +0.144 HD
ENDBRANCH   5  16
BRANCH   4  19
ATOM     19  C   UNL     1       8.720  -4.410  25.800  0.00  0.00    +0.203 C 
ATOM     20  O   UNL     1       9.767  -4.897  26.224  0.00  0.00    -0.286 OA
BRANCH  19  21
ATOM     21  C   UNL     1       7.509  -4.374  26.689  0.00  0.00    +0.023 A 
ATOM     22  C   UNL     1       6.727  -3.216  26.757  0.00  0.00    +0.015 A 
ATOM     23  C   UNL     1       5.538  -3.199  27.508  0.00  0.00    +0.046 A 
ATOM     24  C   UNL     1       5.111  -4.348  28.178  0.00  0.00    +0.120 A 
ATOM     25  C   UNL     1       5.912  -5.486  28.150  0.00  0.00    +0.046 A 
ATOM     26  C   UNL     1       7.130  -5.470  27.468  0.00  0.00    +0.015 A 
BRANCH  24  27
ATOM     27  O   UNL     1       3.911  -4.498  28.812  0.00  0.00    -0.495 OA
ATOM     28  C   UNL     1       3.849  -4.004  30.144  0.00  0.00    +0.277 C 
ENDBRANCH  24  27
ENDBRANCH  19  21
ENDBRANCH   4  19
TORSDOF 6
ENDMDL
MODEL 7
REMARK VINA RESULT:      -6.4      3.072      8.878
REMARK  Name = 
REMARK  8 active torsions:
REMARK  status: ('A' for Active; 'I' for Inactive)
REMARK    1  A    between atoms: C_1  and  O_2
REMARK    2  A    between atoms: O_2  and  C_3
REMARK    3  A    between atoms: C_6  and  N_9
REMARK    4  A    between atoms: C_12  and  N_13
REMARK    5  A    between atoms: C_14  and  C_16
REMARK    6  A    between atoms: C_16  and  C_18
REMARK    7  A    between atoms: C_21  and  O_22
REMARK    8  A    between atoms: O_22  and  C_23
REMARK                            x       y       z     vdW  Elec       q    Type
REMARK                         _______ _______ _______ _____ _____    ______ ____
ROOT
ATOM      1  N   UNL     1      10.140  -2.261  23.798  0.00  0.00    -0.224 NA
ATOM      2  C   UNL     1       9.038  -2.892  24.060  0.00  0.00    +0.173 A 
ATOM      3  S   UNL     1       7.422  -2.215  24.322  0.00  0.00    -0.045 S 
ATOM      4  C   UNL     1       6.749  -3.629  23.534  0.00  0.00    +0.100 A 
ATOM      5  C   UNL     1       7.625  -4.667  23.549  0.00  0.00    +0.113 A 
ATOM      6  N   UNL     1       8.881  -4.260  24.004  0.00  0.00    -0.322 N 
ATOM      7  H   UNL     1       9.658  -4.775  23.613  0.00  0.00    +0.169 HD
ENDROOT
BRANCH   1  11
ATOM      8  C   UNL     1      10.119   1.927  23.129  0.00  0.00    +0.120 A 
ATOM      9  C   UNL     1      10.409   1.430  24.391  0.00  0.00    +0.048 A 
ATOM     10  C   UNL     1      10.410   0.054  24.617  0.00  0.00    +0.031 A 
ATOM     11  C   UNL     1      10.220  -0.871  23.581  0.00  0.00    +0.067 A 
ATOM     12  C   UNL     1       9.933  -0.359  22.320  0.00  0.00    +0.031 A 
ATOM     13  C   UNL     1       9.872   1.027  22.091  0.00  0.00    +0.048 A 
BRANCH   8  15
ATOM     14  C   UNL     1      11.294   3.966  23.397  0.00  0.00    +0.277 C 
ATOM     15  O   UNL     1      10.094   3.290  23.052  0.00  0.00    -0.495 OA
ENDBRANCH   8  15
ENDBRANCH   1  11
BRANCH   5  16
ATOM     16  N   UNL     1       7.418  -5.938  23.083  0.00  0.00    -0.344 N 
ATOM     17  H   UNL     1       8.303  -6.432  22.944  0.00  0.00    +0.144 HD
ATOM     18  H   UNL     1       6.871  -5.937  22.225  0.00  0.00    +0.144 HD
ENDBRANCH   5  16
BRANCH   4  19
ATOM     19  C   UNL     1       5.412  -3.603  22.862  0.00  0.00    +0.203 C 
ATOM     20  O   UNL     1       5.268  -3.061  21.768  0.00  0.00    -0.286 OA
BRANCH  19  21
ATOM     21  C   UNL     1       4.222  -4.216  23.546  0.00  0.00    +0.023 A 
ATOM     22  C   UNL     1       3.686  -5.417  23.069  0.00  0.00    +0.015 A 
ATOM     23  C   UNL     1       2.634  -6.053  23.755  0.00  0.00    +0.046 A 
ATOM     24  C   UNL     1       2.127  -5.501  24.935  0.00  0.00    +0.120 A 
ATOM     25  C   UNL     1       2.628  -4.283  25.382  0.00  0.00    +0.046 A 
ATOM     26  C   UNL     1       3.616  -3.619  24.653  0.00  0.00    +0.015 A 
BRANCH  24  27
ATOM     27  O   UNL     1       1.218  -6.095  25.761  0.00  0.00    -0.495 OA
ATOM     28  C   UNL     1       1.591  -7.365  26.281  0.00  0.00    +0.277 C 
ENDBRANCH  24  27
ENDBRANCH  19  21
ENDBRANCH   4  19
TORSDOF 6
ENDMDL
MODEL 8
REMARK VINA RESULT:      -6.4      3.263      4.005
REMARK  Name = 
REMARK  8 active torsions:
REMARK  status: ('A' for Active; 'I' for Inactive)
REMARK    1  A    between atoms: C_1  and  O_2
REMARK    2  A    between atoms: O_2  and  C_3
REMARK    3  A    between atoms: C_6  and  N_9
REMARK    4  A    between atoms: C_12  and  N_13
REMARK    5  A    between atoms: C_14  and  C_16
REMARK    6  A    between atoms: C_16  and  C_18
REMARK    7  A    between atoms: C_21  and  O_22
REMARK    8  A    between atoms: O_22  and  C_23
REMARK                            x       y       z     vdW  Elec       q    Type
REMARK                         _______ _______ _______ _____ _____    ______ ____
ROOT
ATOM      1  N   UNL     1       9.416  -2.417  22.756  0.00  0.00    -0.224 NA
ATOM      2  C   UNL     1       8.941  -1.269  22.384  0.00  0.00    +0.173 A 
ATOM      3  S   UNL     1       7.432  -0.491  22.887  0.00  0.00    -0.045 S 
ATOM      4  C   UNL     1       8.247   1.057  22.787  0.00  0.00    +0.100 A 
ATOM      5  C   UNL     1       9.347   0.987  21.992  0.00  0.00    +0.113 A 
ATOM      6  N   UNL     1       9.631  -0.335  21.642  0.00  0.00    -0.322 N 
ATOM      7  H   UNL     1      10.612  -0.529  21.495  0.00  0.00    +0.169 HD
ENDROOT
BRANCH   1  11
ATOM      8  C   UNL     1       7.750  -5.084  25.603  0.00  0.00    +0.120 A 
ATOM      9  C   UNL     1       8.766  -4.218  25.979  0.00  0.00    +0.048 A 
ATOM     10  C   UNL     1       9.322  -3.345  25.043  0.00  0.00    +0.031 A 
ATOM     11  C   UNL     1       8.822  -3.235  23.739  0.00  0.00    +0.067 A 
ATOM     12  C   UNL     1       7.802  -4.107  23.376  0.00  0.00    +0.031 A 
ATOM     13  C   UNL     1       7.271  -5.033  24.293  0.00  0.00    +0.048 A 
BRANCH   8  15
ATOM     14  C   UNL     1       6.306  -5.440  27.447  0.00  0.00    +0.277 C 
ATOM     15  O   UNL     1       7.332  -5.926  26.593  0.00  0.00    -0.495 OA
ENDBRANCH   8  15
ENDBRANCH   1  11
BRANCH   5  16
ATOM     16  N   UNL     1      10.185   2.010  21.637  0.00  0.00    -0.344 N 
ATOM     17  H   UNL     1      10.561   1.873  20.696  0.00  0.00    +0.144 HD
ATOM     18  H   UNL     1      10.940   2.124  22.310  0.00  0.00    +0.144 HD
ENDBRANCH   5  16
BRANCH   4  19
ATOM     19  C   UNL     1       7.797   2.245  23.579  0.00  0.00    +0.203 C 
ATOM     20  O   UNL     1       8.606   2.921  24.212  0.00  0.00    -0.286 OA
BRANCH  19  21
ATOM     21  C   UNL     1       6.338   2.598  23.630  0.00  0.00    +0.023 A 
ATOM     22  C   UNL     1       5.713   3.150  22.506  0.00  0.00    +0.015 A 
ATOM     23  C   UNL     1       4.328   3.396  22.506  0.00  0.00    +0.046 A 
ATOM     24  C   UNL     1       3.555   3.070  23.624  0.00  0.00    +0.120 A 
ATOM     25  C   UNL     1       4.182   2.567  24.759  0.00  0.00    +0.046 A 
ATOM     26  C   UNL     1       5.569   2.400  24.779  0.00  0.00    +0.015 A 
BRANCH  24  27
ATOM     27  O   UNL     1       2.192   3.124  23.688  0.00  0.00    -0.495 OA
ATOM     28  C   UNL     1       1.515   3.170  22.439  0.00  0.00    +0.277 C 
ENDBRANCH  24  27
ENDBRANCH  19  21
ENDBRANCH   4  19
TORSDOF 6
ENDMDL
MODEL 9
REMARK VINA RESULT:      -6.3      3.264      5.287
REMARK  Name = 
REMARK  8 active torsions:
REMARK  status: ('A' for Active; 'I' for Inactive)
REMARK    1  A    between atoms: C_1  and  O_2
REMARK    2  A    between atoms: O_2  and  C_3
REMARK    3  A    between atoms: C_6  and  N_9
REMARK    4  A    between atoms: C_12  and  N_13
REMARK    5  A    between atoms: C_14  and  C_16
REMARK    6  A    between atoms: C_16  and  C_18
REMARK    7  A    between atoms: C_21  and  O_22
REMARK    8  A    between atoms: O_22  and  C_23
REMARK                            x       y       z     vdW  Elec       q    Type
REMARK                         _______ _______ _______ _____ _____    ______ ____
ROOT
ATOM      1  N   UNL     1       6.348  -5.163  28.265  0.00  0.00    -0.224 NA
ATOM      2  C   UNL     1       6.882  -5.430  27.114  0.00  0.00    +0.173 A 
ATOM      3  S   UNL     1       6.223  -5.114  25.500  0.00  0.00    -0.045 S 
ATOM      4  C   UNL     1       7.855  -4.799  24.943  0.00  0.00    +0.100 A 
ATOM      5  C   UNL     1       8.776  -5.362  25.767  0.00  0.00    +0.113 A 
ATOM      6  N   UNL     1       8.178  -5.859  26.927  0.00  0.00    -0.322 N 
ATOM      7  H   UNL     1       8.769  -5.840  27.747  0.00  0.00    +0.169 HD
ENDROOT
BRANCH   1  11
ATOM      8  C   UNL     1       2.761  -3.027  29.013  0.00  0.00    +0.120 A 
ATOM      9  C   UNL     1       3.796  -2.418  28.318  0.00  0.00    +0.048 A 
ATOM     10  C   UNL     1       4.980  -3.115  28.077  0.00  0.00    +0.031 A 
ATOM     11  C   UNL     1       5.136  -4.462  28.429  0.00  0.00    +0.067 A 
ATOM     12  C   UNL     1       4.090  -5.061  29.123  0.00  0.00    +0.031 A 
ATOM     13  C   UNL     1       2.913  -4.352  29.424  0.00  0.00    +0.048 A 
BRANCH   8  15
ATOM     14  C   UNL     1       1.326  -1.335  28.184  0.00  0.00    +0.277 C 
ATOM     15  O   UNL     1       1.680  -2.222  29.235  0.00  0.00    -0.495 OA
ENDBRANCH   8  15
ENDBRANCH   1  11
BRANCH   5  16
ATOM     16  N   UNL     1      10.137  -5.374  25.611  0.00  0.00    -0.344 N 
ATOM     17  H   UNL     1      10.402  -5.724  24.688  0.00  0.00    +0.144 HD
ATOM     18  H   UNL     1      10.592  -5.916  26.342  0.00  0.00    +0.144 HD
ENDBRANCH   5  16
BRANCH   4  19
ATOM     19  C   UNL     1       8.136  -3.929  23.758  0.00  0.00    +0.203 C 
ATOM     20  O   UNL     1       7.893  -4.323  22.618  0.00  0.00    -0.286 OA
BRANCH  19  21
ATOM     21  C   UNL     1       8.754  -2.574  23.956  0.00  0.00    +0.023 A 
ATOM     22  C   UNL     1       8.556  -1.886  25.158  0.00  0.00    +0.015 A 
ATOM     23  C   UNL     1       9.207  -0.661  25.396  0.00  0.00    +0.046 A 
ATOM     24  C   UNL     1      10.077  -0.129  24.442  0.00  0.00    +0.120 A 
ATOM     25  C   UNL     1      10.237  -0.788  23.228  0.00  0.00    +0.046 A 
ATOM     26  C   UNL     1       9.527  -1.962  22.967  0.00  0.00    +0.015 A 
BRANCH  24  27
ATOM     27  O   UNL     1      10.873   0.967  24.618  0.00  0.00    -0.495 OA
ATOM     28  C   UNL     1      10.572   2.088  23.797  0.00  0.00    +0.277 C 
ENDBRANCH  24  27
ENDBRANCH  19  21
ENDBRANCH   4  19
TORSDOF 6
ENDMDL
