MODEL 1
REMARK VINA RESULT:      -3.1      0.000      0.000
REMARK  Name = 
REMARK  4 active torsions:
REMARK  status: ('A' for Active; 'I' for Inactive)
REMARK    1  A    between atoms: C_1  and  C_2
REMARK    2  A    between atoms: C_2  and  C_3
REMARK    3  A    between atoms: C_3  and  C_4
REMARK    4  A    between atoms: C_4  and  O_5
REMARK                            x       y       z     vdW  Elec       q    Type
REMARK                         _______ _______ _______ _____ _____    ______ ____
ROOT
ATOM      1  C   UNL     1      12.286   5.989  24.043  0.00  0.00    +0.027 C 
ENDROOT
BRANCH   1   3
ATOM      2  C   UNL     1      10.107   6.676  25.101  0.00  0.00    +0.004 C 
ATOM      3  C   UNL     1      10.766   6.010  23.904  0.00  0.00    -0.001 C 
ENDBRANCH   1   3
BRANCH   1   4
ATOM      4  C   UNL     1      12.942   5.197  22.919  0.00  0.00    +0.156 C 
BRANCH   4   5
ATOM      5  O   UNL     1      14.339   5.093  23.154  0.00  0.00    -0.395 OA
ATOM      6  H   UNL     1      14.459   4.669  24.021  0.00  0.00    +0.209 HD
ENDBRANCH   4   5
ENDBRANCH   1   4
TORSDOF 3
ENDMDL
MODEL 2
REMARK VINA RESULT:      -2.7      6.349      6.789
REMARK  Name = 
REMARK  4 active torsions:
REMARK  status: ('A' for Active; 'I' for Inactive)
REMARK    1  A    between atoms: C_1  and  C_2
REMARK    2  A    between atoms: C_2  and  C_3
REMARK    3  A    between atoms: C_3  and  C_4
REMARK    4  A    between atoms: C_4  and  O_5
REMARK                            x       y       z     vdW  Elec       q    Type
REMARK                         _______ _______ _______ _____ _____    ______ ____
ROOT
ATOM      1  C   UNL     1       9.552  -0.104  21.519  0.00  0.00    +0.027 C 
ENDROOT
BRANCH   1   3
ATOM      2  C   UNL     1       9.939  -1.303  23.699  0.00  0.00    +0.004 C 
ATOM      3  C   UNL     1       9.976  -1.411  22.183  0.00  0.00    -0.001 C 
ENDBRANCH   1   3
BRANCH   1   4
ATOM      4  C   UNL     1      10.011   1.107  22.321  0.00  0.00    +0.156 C 
BRANCH   4   5
ATOM      5  O   UNL     1      10.018   2.260  21.491  0.00  0.00    -0.395 OA
ATOM      6  H   UNL     1       9.407   2.094  20.754  0.00  0.00    +0.209 HD
ENDBRANCH   4   5
ENDBRANCH   1   4
TORSDOF 3
ENDMDL
MODEL 3
REMARK VINA RESULT:      -2.7      6.089      6.367
REMARK  Name = 
REMARK  4 active torsions:
REMARK  status: ('A' for Active; 'I' for Inactive)
REMARK    1  A    between atoms: C_1  and  C_2
REMARK    2  A    between atoms: C_2  and  C_3
REMARK    3  A    between atoms: C_3  and  C_4
REMARK    4  A    between atoms: C_4  and  O_5
REMARK                            x       y       z     vdW  Elec       q    Type
REMARK                         _______ _______ _______ _____ _____    ______ ____
ROOT
ATOM      1  C   UNL     1       9.332   0.660  21.526  0.00  0.00    +0.027 C 
ENDROOT
BRANCH   1   3
ATOM      2  C   UNL     1      10.382   1.570  23.625  0.00  0.00    +0.004 C 
ATOM      3  C   UNL     1      10.100   1.821  22.153  0.00  0.00    -0.001 C 
ENDBRANCH   1   3
BRANCH   1   4
ATOM      4  C   UNL     1       9.573  -0.643  22.277  0.00  0.00    +0.156 C 
BRANCH   4   5
ATOM      5  O   UNL     1      10.253  -1.566  21.437  0.00  0.00    -0.395 OA
ATOM      6  H   UNL     1      10.200  -2.440  21.860  0.00  0.00    +0.209 HD
ENDBRANCH   4   5
ENDBRANCH   1   4
TORSDOF 3
ENDMDL
MODEL 4
REMARK VINA RESULT:      -2.7      5.147      5.398
REMARK  Name = 
REMARK  4 active torsions:
REMARK  status: ('A' for Active; 'I' for Inactive)
REMARK    1  A    between atoms: C_1  and  C_2
REMARK    2  A    between atoms: C_2  and  C_3
REMARK    3  A    between atoms: C_3  and  C_4
REMARK    4  A    between atoms: C_4  and  O_5
REMARK                            x       y       z     vdW  Elec       q    Type
REMARK                         _______ _______ _______ _____ _____    ______ ____
ROOT
ATOM      1  C   UNL     1      10.511   1.983  23.857  0.00  0.00    +0.027 C 
ENDROOT
BRANCH   1   3
ATOM      2  C   UNL     1       9.816  -0.062  25.151  0.00  0.00    +0.004 C 
ATOM      3  C   UNL     1      10.978   0.694  24.528  0.00  0.00    -0.001 C 
ENDBRANCH   1   3
BRANCH   1   4
ATOM      4  C   UNL     1       9.577   1.700  22.687  0.00  0.00    +0.156 C 
BRANCH   4   5
ATOM      5  O   UNL     1      10.130   2.230  21.490  0.00  0.00    -0.395 OA
ATOM      6  H   UNL     1      10.764   1.578  21.147  0.00  0.00    +0.209 HD
ENDBRANCH   4   5
ENDBRANCH   1   4
TORSDOF 3
ENDMDL
MODEL 5
REMARK VINA RESULT:      -2.6      5.276      5.649
REMARK  Name = 
REMARK  4 active torsions:
REMARK  status: ('A' for Active; 'I' for Inactive)
REMARK    1  A    between atoms: C_1  and  C_2
REMARK    2  A    between atoms: C_2  and  C_3
REMARK    3  A    between atoms: C_3  and  C_4
REMARK    4  A    between atoms: C_4  and  O_5
REMARK                            x       y       z     vdW  Elec       q    Type
REMARK                         _______ _______ _______ _____ _____    ______ ____
ROOT
ATOM      1  C   UNL     1      10.294   2.014  23.689  0.00  0.00    +0.027 C 
ENDROOT
BRANCH   1   3
ATOM      2  C   UNL     1       9.732   0.428  21.815  0.00  0.00    +0.004 C 
ATOM      3  C   UNL     1      10.114   1.853  22.181  0.00  0.00    -0.001 C 
ENDBRANCH   1   3
BRANCH   1   4
ATOM      4  C   UNL     1      10.930   0.778  24.313  0.00  0.00    +0.156 C 
BRANCH   4   5
ATOM      5  O   UNL     1      10.285   0.472  25.541  0.00  0.00    -0.395 OA
ATOM      6  H   UNL     1       9.626  -0.219  25.362  0.00  0.00    +0.209 HD
ENDBRANCH   4   5
ENDBRANCH   1   4
TORSDOF 3
ENDMDL
MODEL 6
REMARK VINA RESULT:      -2.6      6.407      6.693
REMARK  Name = 
REMARK  4 active torsions:
REMARK  status: ('A' for Active; 'I' for Inactive)
REMARK    1  A    between atoms: C_1  and  C_2
REMARK    2  A    between atoms: C_2  and  C_3
REMARK    3  A    between atoms: C_3  and  C_4
REMARK    4  A    between atoms: C_4  and  O_5
REMARK                            x       y       z     vdW  Elec       q    Type
REMARK                         _______ _______ _______ _____ _____    ______ ____
ROOT
ATOM      1  C   UNL     1      10.218   0.250  22.993  0.00  0.00    +0.027 C 
ENDROOT
BRANCH   1   3
ATOM      2  C   UNL     1       8.390   1.475  21.770  0.00  0.00    +0.004 C 
ATOM      3  C   UNL     1       9.838   1.015  21.728  0.00  0.00    -0.001 C 
ENDBRANCH   1   3
BRANCH   1   4
ATOM      4  C   UNL     1      10.163  -1.257  22.776  0.00  0.00    +0.156 C 
BRANCH   4   5
ATOM      5  O   UNL     1      10.157  -1.543  21.384  0.00  0.00    -0.395 OA
ATOM      6  H   UNL     1       9.240  -1.742  21.131  0.00  0.00    +0.209 HD
ENDBRANCH   4   5
ENDBRANCH   1   4
TORSDOF 3
ENDMDL
MODEL 7
REMARK VINA RESULT:      -2.5      6.466      6.687
REMARK  Name = 
REMARK  4 active torsions:
REMARK  status: ('A' for Active; 'I' for Inactive)
REMARK    1  A    between atoms: C_1  and  C_2
REMARK    2  A    between atoms: C_2  and  C_3
REMARK    3  A    between atoms: C_3  and  C_4
REMARK    4  A    between atoms: C_4  and  O_5
REMARK                            x       y       z     vdW  Elec       q    Type
REMARK                         _______ _______ _______ _____ _____    ______ ____
ROOT
ATOM      1  C   UNL     1       9.636  -0.422  23.454  0.00  0.00    +0.027 C 
ENDROOT
BRANCH   1   3
ATOM      2  C   UNL     1      10.567   1.857  23.981  0.00  0.00    +0.004 C 
ATOM      3  C   UNL     1      10.623   0.373  24.305  0.00  0.00    -0.001 C 
ENDBRANCH   1   3
BRANCH   1   4
ATOM      4  C   UNL     1      10.304  -1.622  22.794  0.00  0.00    +0.156 C 
BRANCH   4   5
ATOM      5  O   UNL     1      10.134  -1.554  21.385  0.00  0.00    -0.395 OA
ATOM      6  H   UNL     1       9.756  -0.682  21.177  0.00  0.00    +0.209 HD
ENDBRANCH   4   5
ENDBRANCH   1   4
TORSDOF 3
ENDMDL
MODEL 8
REMARK VINA RESULT:      -2.4     10.227     10.487
REMARK  Name = 
REMARK  4 active torsions:
REMARK  status: ('A' for Active; 'I' for Inactive)
REMARK    1  A    between atoms: C_1  and  C_2
REMARK    2  A    between atoms: C_2  and  C_3
REMARK    3  A    between atoms: C_3  and  C_4
REMARK    4  A    between atoms: C_4  and  O_5
REMARK                            x       y       z     vdW  Elec       q    Type
REMARK                         _______ _______ _______ _____ _____    ______ ____
ROOT
ATOM      1  C   UNL     1       8.646  -4.242  24.392  0.00  0.00    +0.027 C 
ENDROOT
BRANCH   1   3
ATOM      2  C   UNL     1       9.414  -2.155  23.211  0.00  0.00    +0.004 C 
ATOM      3  C   UNL     1       9.704  -3.144  24.328  0.00  0.00    -0.001 C 
ENDBRANCH   1   3
BRANCH   1   4
ATOM      4  C   UNL     1       9.047  -5.352  25.354  0.00  0.00    +0.156 C 
BRANCH   4   5
ATOM      5  O   UNL     1      10.458  -5.512  25.345  0.00  0.00    -0.395 OA
ATOM      6  H   UNL     1      10.659  -6.314  24.833  0.00  0.00    +0.209 HD
ENDBRANCH   4   5
ENDBRANCH   1   4
TORSDOF 3
ENDMDL
MODEL 9
REMARK VINA RESULT:      -2.3      5.243      5.746
REMARK  Name = 
REMARK  4 active torsions:
REMARK  status: ('A' for Active; 'I' for Inactive)
REMARK    1  A    between atoms: C_1  and  C_2
REMARK    2  A    between atoms: C_2  and  C_3
REMARK    3  A    between atoms: C_3  and  C_4
REMARK    4  A    between atoms: C_4  and  O_5
REMARK                            x       y       z     vdW  Elec       q    Type
REMARK                         _______ _______ _______ _____ _____    ______ ____
ROOT
ATOM      1  C   UNL     1      10.433   1.855  23.094  0.00  0.00    +0.027 C 
ENDROOT
BRANCH   1   3
ATOM      2  C   UNL     1       9.603   0.042  21.555  0.00  0.00    +0.004 C 
ATOM      3  C   UNL     1       9.636   1.537  21.831  0.00  0.00    -0.001 C 
ENDBRANCH   1   3
BRANCH   1   4
ATOM      4  C   UNL     1       9.592   2.617  24.110  0.00  0.00    +0.156 C 
BRANCH   4   5
ATOM      5  O   UNL     1       9.170   1.738  25.143  0.00  0.00    -0.395 OA
ATOM      6  H   UNL     1       8.785   2.281  25.851  0.00  0.00    +0.209 HD
ENDBRANCH   4   5
ENDBRANCH   1   4
TORSDOF 3
ENDMDL
