MODEL 1
REMARK VINA RESULT:      -6.1      0.000      0.000
REMARK  Name = 
REMARK  7 active torsions:
REMARK  status: ('A' for Active; 'I' for Inactive)
REMARK    1  A    between atoms: C_1  and  C_2
REMARK    2  A    between atoms: C_4  and  C_5
REMARK    3  A    between atoms: C_6  and  C_7
REMARK    4  A    between atoms: C_10  and  C_11
REMARK    5  A    between atoms: C_12  and  N_13
REMARK    6  A    between atoms: N_17  and  C_18
REMARK    7  A    between atoms: C_21  and  C_24
REMARK                            x       y       z     vdW  Elec       q    Type
REMARK                         _______ _______ _______ _____ _____    ______ ____
ROOT
ATOM      1  N   UNL     1       8.424   5.960  24.159  0.00  0.00    -0.299 N 
ATOM      2  H   UNL     1       8.493   6.683  24.861  0.00  0.00    +0.154 HD
ATOM      3  C   UNL     1       9.660   5.325  23.939  0.00  0.00    +0.128 A 
ATOM      4  C   UNL     1      10.778   6.110  23.755  0.00  0.00    +0.063 A 
ATOM      5  C   UNL     1      11.946   5.447  23.464  0.00  0.00    +0.118 A 
ATOM      6  N   UNL     1      12.035   4.108  23.360  0.00  0.00    -0.223 NA
ATOM      7  C   UNL     1      10.904   3.414  23.550  0.00  0.00    +0.221 A 
ATOM      8  N   UNL     1      10.991   2.028  23.395  0.00  0.00    -0.284 N 
ATOM      9  H   UNL     1      11.942   1.775  23.166  0.00  0.00    +0.155 HD
ATOM     10  N   UNL     1       9.735   3.993  23.854  0.00  0.00    -0.199 NA
ENDROOT
BRANCH   1  13
ATOM     11  C   UNL     1       7.065   4.209  26.238  0.00  0.00    +0.046 C 
ATOM     12  C   UNL     1       6.491   4.602  24.905  0.00  0.00    -0.028 A 
ATOM     13  C   UNL     1       7.104   5.480  23.981  0.00  0.00    +0.038 A 
ATOM     14  C   UNL     1       6.385   5.840  22.809  0.00  0.00    -0.028 A 
ATOM     15  C   UNL     1       6.838   6.945  21.893  0.00  0.00    +0.046 C 
ATOM     16  C   UNL     1       5.196   5.145  22.480  0.00  0.00    +0.013 A 
ATOM     17  C   UNL     1       4.667   4.168  23.333  0.00  0.00    -0.024 A 
ATOM     18  C   UNL     1       5.304   3.940  24.543  0.00  0.00    +0.013 A 
BRANCH  17  19
ATOM     19  C   UNL     1       3.478   3.358  23.049  0.00  0.00    +0.019 C 
ATOM     20  C   UNL     1       2.890   3.358  21.854  0.00  0.00    +0.089 C 
BRANCH  20  21
ATOM     21  C   UNL     1       1.566   2.673  21.560  0.00  0.00    +0.091 C 
ATOM     22  N   UNL     1       0.467   2.104  21.317  0.00  0.00    -0.191 NA
ENDBRANCH  20  21
ENDBRANCH  17  19
ENDBRANCH   1  13
BRANCH   8  23
ATOM     23  C   UNL     1      10.005   1.040  23.275  0.00  0.00    +0.034 A 
ATOM     24  C   UNL     1       9.810   0.410  22.036  0.00  0.00    +0.024 A 
ATOM     25  C   UNL     1       8.819  -0.567  21.860  0.00  0.00    +0.020 A 
ATOM     26  C   UNL     1       8.000  -0.940  22.930  0.00  0.00    +0.052 A 
ATOM     27  C   UNL     1       8.197  -0.346  24.173  0.00  0.00    +0.020 A 
ATOM     28  C   UNL     1       9.194   0.621  24.342  0.00  0.00    +0.024 A 
BRANCH  26  29
ATOM     29  C   UNL     1       6.962  -1.911  22.755  0.00  0.00    +0.099 C 
ATOM     30  N   UNL     1       6.120  -2.695  22.602  0.00  0.00    -0.191 NA
ENDBRANCH  26  29
ENDBRANCH   8  23
TORSDOF 5
ENDMDL
MODEL 2
REMARK VINA RESULT:      -6.0      3.974      7.848
REMARK  Name = 
REMARK  7 active torsions:
REMARK  status: ('A' for Active; 'I' for Inactive)
REMARK    1  A    between atoms: C_1  and  C_2
REMARK    2  A    between atoms: C_4  and  C_5
REMARK    3  A    between atoms: C_6  and  C_7
REMARK    4  A    between atoms: C_10  and  C_11
REMARK    5  A    between atoms: C_12  and  N_13
REMARK    6  A    between atoms: N_17  and  C_18
REMARK    7  A    between atoms: C_21  and  C_24
REMARK                            x       y       z     vdW  Elec       q    Type
REMARK                         _______ _______ _______ _____ _____    ______ ____
ROOT
ATOM      1  N   UNL     1       8.387  -2.009  22.073  0.00  0.00    -0.299 N 
ATOM      2  H   UNL     1       8.298  -2.213  21.087  0.00  0.00    +0.154 HD
ATOM      3  C   UNL     1       8.517  -0.630  22.312  0.00  0.00    +0.128 A 
ATOM      4  C   UNL     1       9.424   0.085  21.561  0.00  0.00    +0.063 A 
ATOM      5  C   UNL     1       9.573   1.412  21.885  0.00  0.00    +0.118 A 
ATOM      6  N   UNL     1       8.887   2.017  22.872  0.00  0.00    -0.223 NA
ATOM      7  C   UNL     1       8.024   1.256  23.559  0.00  0.00    +0.221 A 
ATOM      8  N   UNL     1       7.349   1.877  24.612  0.00  0.00    -0.284 N 
ATOM      9  H   UNL     1       7.633   2.845  24.669  0.00  0.00    +0.155 HD
ATOM     10  N   UNL     1       7.816  -0.039  23.286  0.00  0.00    -0.199 NA
ENDROOT
BRANCH   1  13
ATOM     11  C   UNL     1       5.763  -3.412  21.455  0.00  0.00    +0.046 C 
ATOM     12  C   UNL     1       6.622  -3.643  22.667  0.00  0.00    -0.028 A 
ATOM     13  C   UNL     1       7.878  -3.039  22.902  0.00  0.00    +0.038 A 
ATOM     14  C   UNL     1       8.622  -3.442  24.045  0.00  0.00    -0.028 A 
ATOM     15  C   UNL     1      10.059  -3.047  24.252  0.00  0.00    +0.046 C 
ATOM     16  C   UNL     1       8.002  -4.248  25.029  0.00  0.00    +0.013 A 
ATOM     17  C   UNL     1       6.698  -4.729  24.859  0.00  0.00    -0.024 A 
ATOM     18  C   UNL     1       6.046  -4.447  23.667  0.00  0.00    +0.013 A 
BRANCH  17  19
ATOM     19  C   UNL     1       5.955  -5.518  25.847  0.00  0.00    +0.019 C 
ATOM     20  C   UNL     1       6.224  -5.455  27.150  0.00  0.00    +0.089 C 
BRANCH  20  21
ATOM     21  C   UNL     1       5.603  -6.373  28.189  0.00  0.00    +0.091 C 
ATOM     22  N   UNL     1       5.087  -7.136  29.050  0.00  0.00    -0.191 NA
ENDBRANCH  20  21
ENDBRANCH  17  19
ENDBRANCH   1  13
BRANCH   8  23
ATOM     23  C   UNL     1       6.587   1.356  25.668  0.00  0.00    +0.034 A 
ATOM     24  C   UNL     1       7.236   0.926  26.835  0.00  0.00    +0.024 A 
ATOM     25  C   UNL     1       6.520   0.374  27.909  0.00  0.00    +0.020 A 
ATOM     26  C   UNL     1       5.130   0.246  27.835  0.00  0.00    +0.052 A 
ATOM     27  C   UNL     1       4.466   0.693  26.696  0.00  0.00    +0.020 A 
ATOM     28  C   UNL     1       5.188   1.251  25.635  0.00  0.00    +0.024 A 
BRANCH  26  29
ATOM     29  C   UNL     1       4.391  -0.347  28.910  0.00  0.00    +0.099 C 
ATOM     30  N   UNL     1       3.786  -0.819  29.780  0.00  0.00    -0.191 NA
ENDBRANCH  26  29
ENDBRANCH   8  23
TORSDOF 5
ENDMDL
MODEL 3
REMARK VINA RESULT:      -6.0      4.362      9.275
REMARK  Name = 
REMARK  7 active torsions:
REMARK  status: ('A' for Active; 'I' for Inactive)
REMARK    1  A    between atoms: C_1  and  C_2
REMARK    2  A    between atoms: C_4  and  C_5
REMARK    3  A    between atoms: C_6  and  C_7
REMARK    4  A    between atoms: C_10  and  C_11
REMARK    5  A    between atoms: C_12  and  N_13
REMARK    6  A    between atoms: N_17  and  C_18
REMARK    7  A    between atoms: C_21  and  C_24
REMARK                            x       y       z     vdW  Elec       q    Type
REMARK                         _______ _______ _______ _____ _____    ______ ____
ROOT
ATOM      1  N   UNL     1       6.982  -5.248  24.153  0.00  0.00    -0.299 N 
ATOM      2  H   UNL     1       7.427  -6.156  24.130  0.00  0.00    +0.154 HD
ATOM      3  C   UNL     1       5.880  -5.230  25.027  0.00  0.00    +0.128 A 
ATOM      4  C   UNL     1       4.956  -6.248  24.941  0.00  0.00    +0.063 A 
ATOM      5  C   UNL     1       3.857  -6.143  25.758  0.00  0.00    +0.118 A 
ATOM      6  N   UNL     1       3.659  -5.121  26.611  0.00  0.00    -0.223 NA
ATOM      7  C   UNL     1       4.601  -4.168  26.636  0.00  0.00    +0.221 A 
ATOM      8  N   UNL     1       4.369  -3.087  27.489  0.00  0.00    -0.284 N 
ATOM      9  H   UNL     1       3.493  -3.222  27.974  0.00  0.00    +0.155 HD
ATOM     10  N   UNL     1       5.706  -4.215  25.881  0.00  0.00    -0.199 NA
ENDROOT
BRANCH   1  13
ATOM     11  C   UNL     1       9.725  -4.820  25.390  0.00  0.00    +0.046 C 
ATOM     12  C   UNL     1       9.079  -3.944  24.353  0.00  0.00    -0.028 A 
ATOM     13  C   UNL     1       7.835  -4.199  23.731  0.00  0.00    +0.038 A 
ATOM     14  C   UNL     1       7.407  -3.332  22.689  0.00  0.00    -0.028 A 
ATOM     15  C   UNL     1       6.231  -3.653  21.806  0.00  0.00    +0.046 C 
ATOM     16  C   UNL     1       8.105  -2.123  22.459  0.00  0.00    +0.013 A 
ATOM     17  C   UNL     1       9.262  -1.804  23.181  0.00  0.00    -0.024 A 
ATOM     18  C   UNL     1       9.746  -2.734  24.088  0.00  0.00    +0.013 A 
BRANCH  17  19
ATOM     19  C   UNL     1      10.015  -0.552  23.053  0.00  0.00    +0.019 C 
ATOM     20  C   UNL     1       9.811   0.484  23.865  0.00  0.00    +0.089 C 
BRANCH  20  21
ATOM     21  C   UNL     1      10.440   1.853  23.668  0.00  0.00    +0.091 C 
ATOM     22  N   UNL     1      10.963   2.988  23.505  0.00  0.00    -0.191 NA
ENDBRANCH  20  21
ENDBRANCH  17  19
ENDBRANCH   1  13
BRANCH   8  23
ATOM     23  C   UNL     1       4.986  -1.832  27.592  0.00  0.00    +0.034 A 
ATOM     24  C   UNL     1       4.485  -0.895  28.509  0.00  0.00    +0.024 A 
ATOM     25  C   UNL     1       5.052   0.383  28.631  0.00  0.00    +0.020 A 
ATOM     26  C   UNL     1       6.142   0.749  27.836  0.00  0.00    +0.052 A 
ATOM     27  C   UNL     1       6.670  -0.177  26.941  0.00  0.00    +0.020 A 
ATOM     28  C   UNL     1       6.104  -1.453  26.833  0.00  0.00    +0.024 A 
BRANCH  26  29
ATOM     29  C   UNL     1       6.708   2.062  27.927  0.00  0.00    +0.099 C 
ATOM     30  N   UNL     1       7.163   3.125  28.010  0.00  0.00    -0.191 NA
ENDBRANCH  26  29
ENDBRANCH   8  23
TORSDOF 5
ENDMDL
MODEL 4
REMARK VINA RESULT:      -5.8      2.719      5.759
REMARK  Name = 
REMARK  7 active torsions:
REMARK  status: ('A' for Active; 'I' for Inactive)
REMARK    1  A    between atoms: C_1  and  C_2
REMARK    2  A    between atoms: C_4  and  C_5
REMARK    3  A    between atoms: C_6  and  C_7
REMARK    4  A    between atoms: C_10  and  C_11
REMARK    5  A    between atoms: C_12  and  N_13
REMARK    6  A    between atoms: N_17  and  C_18
REMARK    7  A    between atoms: C_21  and  C_24
REMARK                            x       y       z     vdW  Elec       q    Type
REMARK                         _______ _______ _______ _____ _____    ______ ____
ROOT
ATOM      1  N   UNL     1      10.286   2.641  22.873  0.00  0.00    -0.299 N 
ATOM      2  H   UNL     1      10.621   2.519  21.928  0.00  0.00    +0.154 HD
ATOM      3  C   UNL     1      10.579   3.923  23.370  0.00  0.00    +0.128 A 
ATOM      4  C   UNL     1      11.859   4.411  23.217  0.00  0.00    +0.063 A 
ATOM      5  C   UNL     1      12.117   5.633  23.789  0.00  0.00    +0.118 A 
ATOM      6  N   UNL     1      11.199   6.346  24.467  0.00  0.00    -0.223 NA
ATOM      7  C   UNL     1       9.977   5.805  24.575  0.00  0.00    +0.221 A 
ATOM      8  N   UNL     1       9.041   6.527  25.318  0.00  0.00    -0.284 N 
ATOM      9  H   UNL     1       9.463   7.382  25.652  0.00  0.00    +0.155 HD
ATOM     10  N   UNL     1       9.650   4.627  24.027  0.00  0.00    -0.199 NA
ENDROOT
BRANCH   1  13
ATOM     11  C   UNL     1      10.690   0.438  24.927  0.00  0.00    +0.046 C 
ATOM     12  C   UNL     1       9.448   0.666  24.111  0.00  0.00    -0.028 A 
ATOM     13  C   UNL     1       9.247   1.741  23.216  0.00  0.00    +0.038 A 
ATOM     14  C   UNL     1       7.974   1.881  22.599  0.00  0.00    -0.028 A 
ATOM     15  C   UNL     1       7.583   3.114  21.829  0.00  0.00    +0.046 C 
ATOM     16  C   UNL     1       7.030   0.832  22.706  0.00  0.00    +0.013 A 
ATOM     17  C   UNL     1       7.292  -0.304  23.481  0.00  0.00    -0.024 A 
ATOM     18  C   UNL     1       8.479  -0.351  24.196  0.00  0.00    +0.013 A 
BRANCH  17  19
ATOM     19  C   UNL     1       6.401  -1.463  23.604  0.00  0.00    +0.019 C 
ATOM     20  C   UNL     1       6.324  -2.400  22.660  0.00  0.00    +0.089 C 
BRANCH  20  21
ATOM     21  C   UNL     1       5.300  -3.522  22.662  0.00  0.00    +0.091 C 
ATOM     22  N   UNL     1       4.450  -4.454  22.662  0.00  0.00    -0.191 NA
ENDBRANCH  20  21
ENDBRANCH  17  19
ENDBRANCH   1  13
BRANCH   8  23
ATOM     23  C   UNL     1       7.787   6.172  25.836  0.00  0.00    +0.034 A 
ATOM     24  C   UNL     1       6.640   6.373  25.053  0.00  0.00    +0.024 A 
ATOM     25  C   UNL     1       5.361   6.056  25.536  0.00  0.00    +0.020 A 
ATOM     26  C   UNL     1       5.205   5.525  26.820  0.00  0.00    +0.052 A 
ATOM     27  C   UNL     1       6.334   5.293  27.600  0.00  0.00    +0.020 A 
ATOM     28  C   UNL     1       7.606   5.602  27.106  0.00  0.00    +0.024 A 
BRANCH  26  29
ATOM     29  C   UNL     1       3.902   5.231  27.338  0.00  0.00    +0.099 C 
ATOM     30  N   UNL     1       2.848   4.982  27.754  0.00  0.00    -0.191 NA
ENDBRANCH  26  29
ENDBRANCH   8  23
TORSDOF 5
ENDMDL
MODEL 5
REMARK VINA RESULT:      -5.8      2.541      4.118
REMARK  Name = 
REMARK  7 active torsions:
REMARK  status: ('A' for Active; 'I' for Inactive)
REMARK    1  A    between atoms: C_1  and  C_2
REMARK    2  A    between atoms: C_4  and  C_5
REMARK    3  A    between atoms: C_6  and  C_7
REMARK    4  A    between atoms: C_10  and  C_11
REMARK    5  A    between atoms: C_12  and  N_13
REMARK    6  A    between atoms: N_17  and  C_18
REMARK    7  A    between atoms: C_21  and  C_24
REMARK                            x       y       z     vdW  Elec       q    Type
REMARK                         _______ _______ _______ _____ _____    ______ ____
ROOT
ATOM      1  N   UNL     1       6.484   5.033  25.938  0.00  0.00    -0.299 N 
ATOM      2  H   UNL     1       6.366   5.652  26.728  0.00  0.00    +0.154 HD
ATOM      3  C   UNL     1       7.546   5.439  25.111  0.00  0.00    +0.128 A 
ATOM      4  C   UNL     1       7.619   6.763  24.736  0.00  0.00    +0.063 A 
ATOM      5  C   UNL     1       8.627   7.095  23.863  0.00  0.00    +0.118 A 
ATOM      6  N   UNL     1       9.515   6.206  23.382  0.00  0.00    -0.223 NA
ATOM      7  C   UNL     1       9.379   4.937  23.791  0.00  0.00    +0.221 A 
ATOM      8  N   UNL     1      10.274   4.010  23.252  0.00  0.00    -0.284 N 
ATOM      9  H   UNL     1      10.911   4.483  22.625  0.00  0.00    +0.155 HD
ATOM     10  N   UNL     1       8.431   4.547  24.653  0.00  0.00    -0.199 NA
ENDROOT
BRANCH   1  13
ATOM     11  C   UNL     1       6.880   3.524  28.546  0.00  0.00    +0.046 C 
ATOM     12  C   UNL     1       6.169   3.006  27.327  0.00  0.00    -0.028 A 
ATOM     13  C   UNL     1       5.926   3.748  26.149  0.00  0.00    +0.038 A 
ATOM     14  C   UNL     1       5.143   3.153  25.122  0.00  0.00    -0.028 A 
ATOM     15  C   UNL     1       4.626   3.938  23.946  0.00  0.00    +0.046 C 
ATOM     16  C   UNL     1       4.829   1.776  25.196  0.00  0.00    +0.013 A 
ATOM     17  C   UNL     1       5.199   1.006  26.306  0.00  0.00    -0.024 A 
ATOM     18  C   UNL     1       5.830   1.641  27.364  0.00  0.00    +0.013 A 
BRANCH  17  19
ATOM     19  C   UNL     1       4.968  -0.436  26.444  0.00  0.00    +0.019 C 
ATOM     20  C   UNL     1       5.895  -1.257  26.936  0.00  0.00    +0.089 C 
BRANCH  20  21
ATOM     21  C   UNL     1       5.769  -2.771  26.942  0.00  0.00    +0.091 C 
ATOM     22  N   UNL     1       5.664  -4.028  26.947  0.00  0.00    -0.191 NA
ENDBRANCH  20  21
ENDBRANCH  17  19
ENDBRANCH   1  13
BRANCH   8  23
ATOM     23  C   UNL     1      10.279   2.608  23.254  0.00  0.00    +0.034 A 
ATOM     24  C   UNL     1       9.904   1.920  22.090  0.00  0.00    +0.024 A 
ATOM     25  C   UNL     1       9.869   0.517  22.050  0.00  0.00    +0.020 A 
ATOM     26  C   UNL     1      10.214  -0.228  23.181  0.00  0.00    +0.052 A 
ATOM     27  C   UNL     1      10.615   0.437  24.336  0.00  0.00    +0.020 A 
ATOM     28  C   UNL     1      10.657   1.836  24.364  0.00  0.00    +0.024 A 
BRANCH  26  29
ATOM     29  C   UNL     1      10.149  -1.659  23.164  0.00  0.00    +0.099 C 
ATOM     30  N   UNL     1      10.104  -2.818  23.144  0.00  0.00    -0.191 NA
ENDBRANCH  26  29
ENDBRANCH   8  23
TORSDOF 5
ENDMDL
MODEL 6
REMARK VINA RESULT:      -5.7      3.731      5.675
REMARK  Name = 
REMARK  7 active torsions:
REMARK  status: ('A' for Active; 'I' for Inactive)
REMARK    1  A    between atoms: C_1  and  C_2
REMARK    2  A    between atoms: C_4  and  C_5
REMARK    3  A    between atoms: C_6  and  C_7
REMARK    4  A    between atoms: C_10  and  C_11
REMARK    5  A    between atoms: C_12  and  N_13
REMARK    6  A    between atoms: N_17  and  C_18
REMARK    7  A    between atoms: C_21  and  C_24
REMARK                            x       y       z     vdW  Elec       q    Type
REMARK                         _______ _______ _______ _____ _____    ______ ____
ROOT
ATOM      1  N   UNL     1       8.250   1.492  25.124  0.00  0.00    -0.299 N 
ATOM      2  H   UNL     1       8.951   2.026  25.619  0.00  0.00    +0.154 HD
ATOM      3  C   UNL     1       8.744   0.981  23.911  0.00  0.00    +0.128 A 
ATOM      4  C   UNL     1       9.425   1.831  23.068  0.00  0.00    +0.063 A 
ATOM      5  C   UNL     1       9.818   1.307  21.860  0.00  0.00    +0.118 A 
ATOM      6  N   UNL     1       9.573   0.038  21.486  0.00  0.00    -0.223 NA
ATOM      7  C   UNL     1       8.903  -0.728  22.359  0.00  0.00    +0.221 A 
ATOM      8  N   UNL     1       8.611  -2.030  21.947  0.00  0.00    -0.284 N 
ATOM      9  H   UNL     1       8.985  -2.182  21.020  0.00  0.00    +0.155 HD
ATOM     10  N   UNL     1       8.506  -0.288  23.560  0.00  0.00    -0.199 NA
ENDROOT
BRANCH   1  13
ATOM     11  C   UNL     1       8.713  -0.766  27.104  0.00  0.00    +0.046 C 
ATOM     12  C   UNL     1       7.400  -0.086  26.834  0.00  0.00    -0.028 A 
ATOM     13  C   UNL     1       7.216   1.014  25.966  0.00  0.00    +0.038 A 
ATOM     14  C   UNL     1       5.931   1.618  25.899  0.00  0.00    -0.028 A 
ATOM     15  C   UNL     1       5.692   2.931  25.201  0.00  0.00    +0.046 C 
ATOM     16  C   UNL     1       4.827   0.975  26.508  0.00  0.00    +0.013 A 
ATOM     17  C   UNL     1       4.991  -0.201  27.250  0.00  0.00    -0.024 A 
ATOM     18  C   UNL     1       6.277  -0.689  27.429  0.00  0.00    +0.013 A 
BRANCH  17  19
ATOM     19  C   UNL     1       3.902  -0.966  27.866  0.00  0.00    +0.019 C 
ATOM     20  C   UNL     1       4.066  -2.222  28.279  0.00  0.00    +0.089 C 
BRANCH  20  21
ATOM     21  C   UNL     1       2.931  -3.109  28.764  0.00  0.00    +0.091 C 
ATOM     22  N   UNL     1       1.991  -3.846  29.167  0.00  0.00    -0.191 NA
ENDBRANCH  20  21
ENDBRANCH  17  19
ENDBRANCH   1  13
BRANCH   8  23
ATOM     23  C   UNL     1       7.745  -3.001  22.469  0.00  0.00    +0.034 A 
ATOM     24  C   UNL     1       8.224  -3.897  23.438  0.00  0.00    +0.024 A 
ATOM     25  C   UNL     1       7.403  -4.902  23.972  0.00  0.00    +0.020 A 
ATOM     26  C   UNL     1       6.077  -5.027  23.549  0.00  0.00    +0.052 A 
ATOM     27  C   UNL     1       5.577  -4.130  22.610  0.00  0.00    +0.020 A 
ATOM     28  C   UNL     1       6.399  -3.125  22.089  0.00  0.00    +0.024 A 
BRANCH  26  29
ATOM     29  C   UNL     1       5.239  -6.070  24.061  0.00  0.00    +0.099 C 
ATOM     30  N   UNL     1       4.568  -6.917  24.484  0.00  0.00    -0.191 NA
ENDBRANCH  26  29
ENDBRANCH   8  23
TORSDOF 5
ENDMDL
MODEL 7
REMARK VINA RESULT:      -5.7      4.434      8.070
REMARK  Name = 
REMARK  7 active torsions:
REMARK  status: ('A' for Active; 'I' for Inactive)
REMARK    1  A    between atoms: C_1  and  C_2
REMARK    2  A    between atoms: C_4  and  C_5
REMARK    3  A    between atoms: C_6  and  C_7
REMARK    4  A    between atoms: C_10  and  C_11
REMARK    5  A    between atoms: C_12  and  N_13
REMARK    6  A    between atoms: N_17  and  C_18
REMARK    7  A    between atoms: C_21  and  C_24
REMARK                            x       y       z     vdW  Elec       q    Type
REMARK                         _______ _______ _______ _____ _____    ______ ____
ROOT
ATOM      1  N   UNL     1       8.489  -2.824  23.634  0.00  0.00    -0.299 N 
ATOM      2  H   UNL     1       8.698  -3.033  22.667  0.00  0.00    +0.154 HD
ATOM      3  C   UNL     1       8.937  -1.541  23.997  0.00  0.00    +0.128 A 
ATOM      4  C   UNL     1      10.221  -1.173  23.661  0.00  0.00    +0.063 A 
ATOM      5  C   UNL     1      10.639   0.058  24.107  0.00  0.00    +0.118 A 
ATOM      6  N   UNL     1       9.865   0.888  24.832  0.00  0.00    -0.223 NA
ATOM      7  C   UNL     1       8.629   0.458  25.121  0.00  0.00    +0.221 A 
ATOM      8  N   UNL     1       7.847   1.303  25.912  0.00  0.00    -0.284 N 
ATOM      9  H   UNL     1       8.370   2.139  26.130  0.00  0.00    +0.155 HD
ATOM     10  N   UNL     1       8.150  -0.721  24.703  0.00  0.00    -0.199 NA
ENDROOT
BRANCH   1  13
ATOM     11  C   UNL     1       8.766  -4.314  26.267  0.00  0.00    +0.046 C 
ATOM     12  C   UNL     1       7.581  -4.368  25.344  0.00  0.00    -0.028 A 
ATOM     13  C   UNL     1       7.435  -3.610  24.160  0.00  0.00    +0.038 A 
ATOM     14  C   UNL     1       6.207  -3.691  23.449  0.00  0.00    -0.028 A 
ATOM     15  C   UNL     1       5.861  -2.748  22.327  0.00  0.00    +0.046 C 
ATOM     16  C   UNL     1       5.264  -4.686  23.801  0.00  0.00    +0.013 A 
ATOM     17  C   UNL     1       5.479  -5.536  24.892  0.00  0.00    -0.024 A 
ATOM     18  C   UNL     1       6.615  -5.340  25.663  0.00  0.00    +0.013 A 
BRANCH  17  19
ATOM     19  C   UNL     1       4.589  -6.630  25.295  0.00  0.00    +0.019 C 
ATOM     20  C   UNL     1       3.654  -7.118  24.481  0.00  0.00    +0.089 C 
BRANCH  20  21
ATOM     21  C   UNL     1       2.602  -8.129  24.908  0.00  0.00    +0.091 C 
ATOM     22  N   UNL     1       1.729  -8.967  25.261  0.00  0.00    -0.191 NA
ENDBRANCH  20  21
ENDBRANCH  17  19
ENDBRANCH   1  13
BRANCH   8  23
ATOM     23  C   UNL     1       6.642   1.088  26.596  0.00  0.00    +0.034 A 
ATOM     24  C   UNL     1       6.678   0.632  27.923  0.00  0.00    +0.024 A 
ATOM     25  C   UNL     1       5.500   0.378  28.641  0.00  0.00    +0.020 A 
ATOM     26  C   UNL     1       4.253   0.581  28.042  0.00  0.00    +0.052 A 
ATOM     27  C   UNL     1       4.197   1.059  26.736  0.00  0.00    +0.020 A 
ATOM     28  C   UNL     1       5.377   1.319  26.031  0.00  0.00    +0.024 A 
BRANCH  26  29
ATOM     29  C   UNL     1       3.043   0.293  28.753  0.00  0.00    +0.099 C 
ATOM     30  N   UNL     1       2.063   0.050  29.323  0.00  0.00    -0.191 NA
ENDBRANCH  26  29
ENDBRANCH   8  23
TORSDOF 5
ENDMDL
MODEL 8
REMARK VINA RESULT:      -5.7      2.897      5.946
REMARK  Name = 
REMARK  7 active torsions:
REMARK  status: ('A' for Active; 'I' for Inactive)
REMARK    1  A    between atoms: C_1  and  C_2
REMARK    2  A    between atoms: C_4  and  C_5
REMARK    3  A    between atoms: C_6  and  C_7
REMARK    4  A    between atoms: C_10  and  C_11
REMARK    5  A    between atoms: C_12  and  N_13
REMARK    6  A    between atoms: N_17  and  C_18
REMARK    7  A    between atoms: C_21  and  C_24
REMARK                            x       y       z     vdW  Elec       q    Type
REMARK                         _______ _______ _______ _____ _____    ______ ____
ROOT
ATOM      1  N   UNL     1      10.087   2.887  22.932  0.00  0.00    -0.299 N 
ATOM      2  H   UNL     1      10.318   3.142  21.981  0.00  0.00    +0.154 HD
ATOM      3  C   UNL     1       9.846   4.019  23.731  0.00  0.00    +0.128 A 
ATOM      4  C   UNL     1      10.749   5.059  23.687  0.00  0.00    +0.063 A 
ATOM      5  C   UNL     1      10.514   6.106  24.545  0.00  0.00    +0.118 A 
ATOM      6  N   UNL     1       9.470   6.153  25.393  0.00  0.00    -0.223 NA
ATOM      7  C   UNL     1       8.637   5.102  25.380  0.00  0.00    +0.221 A 
ATOM      8  N   UNL     1       7.582   5.134  26.294  0.00  0.00    -0.284 N 
ATOM      9  H   UNL     1       7.623   5.992  26.826  0.00  0.00    +0.155 HD
ATOM     10  N   UNL     1       8.795   4.057  24.557  0.00  0.00    -0.199 NA
ENDROOT
BRANCH   1  13
ATOM     11  C   UNL     1      11.460   0.840  24.708  0.00  0.00    +0.046 C 
ATOM     12  C   UNL     1      10.280   0.581  23.814  0.00  0.00    -0.028 A 
ATOM     13  C   UNL     1       9.605   1.561  23.052  0.00  0.00    +0.038 A 
ATOM     14  C   UNL     1       8.436   1.179  22.338  0.00  0.00    -0.028 A 
ATOM     15  C   UNL     1       7.514   2.186  21.703  0.00  0.00    +0.046 C 
ATOM     16  C   UNL     1       8.113  -0.193  22.215  0.00  0.00    +0.013 A 
ATOM     17  C   UNL     1       8.874  -1.178  22.857  0.00  0.00    -0.024 A 
ATOM     18  C   UNL     1       9.920  -0.772  23.671  0.00  0.00    +0.013 A 
BRANCH  17  19
ATOM     19  C   UNL     1       8.650  -2.623  22.741  0.00  0.00    +0.019 C 
ATOM     20  C   UNL     1       7.482  -3.130  22.350  0.00  0.00    +0.089 C 
BRANCH  20  21
ATOM     21  C   UNL     1       7.149  -4.612  22.377  0.00  0.00    +0.091 C 
ATOM     22  N   UNL     1       6.873  -5.842  22.398  0.00  0.00    -0.191 NA
ENDBRANCH  20  21
ENDBRANCH  17  19
ENDBRANCH   1  13
BRANCH   8  23
ATOM     23  C   UNL     1       6.691   4.140  26.724  0.00  0.00    +0.034 A 
ATOM     24  C   UNL     1       6.981   3.417  27.891  0.00  0.00    +0.024 A 
ATOM     25  C   UNL     1       6.133   2.396  28.348  0.00  0.00    +0.020 A 
ATOM     26  C   UNL     1       4.968   2.081  27.643  0.00  0.00    +0.052 A 
ATOM     27  C   UNL     1       4.650   2.806  26.498  0.00  0.00    +0.020 A 
ATOM     28  C   UNL     1       5.496   3.829  26.055  0.00  0.00    +0.024 A 
BRANCH  26  29
ATOM     29  C   UNL     1       4.112   1.018  28.079  0.00  0.00    +0.099 C 
ATOM     30  N   UNL     1       3.427   0.154  28.440  0.00  0.00    -0.191 NA
ENDBRANCH  26  29
ENDBRANCH   8  23
TORSDOF 5
ENDMDL
MODEL 9
REMARK VINA RESULT:      -5.6      4.429      8.337
REMARK  Name = 
REMARK  7 active torsions:
REMARK  status: ('A' for Active; 'I' for Inactive)
REMARK    1  A    between atoms: C_1  and  C_2
REMARK    2  A    between atoms: C_4  and  C_5
REMARK    3  A    between atoms: C_6  and  C_7
REMARK    4  A    between atoms: C_10  and  C_11
REMARK    5  A    between atoms: C_12  and  N_13
REMARK    6  A    between atoms: N_17  and  C_18
REMARK    7  A    between atoms: C_21  and  C_24
REMARK                            x       y       z     vdW  Elec       q    Type
REMARK                         _______ _______ _______ _____ _____    ______ ____
ROOT
ATOM      1  N   UNL     1       7.963  -3.423  23.020  0.00  0.00    -0.299 N 
ATOM      2  H   UNL     1       7.858  -3.935  22.155  0.00  0.00    +0.154 HD
ATOM      3  C   UNL     1       8.354  -2.091  22.794  0.00  0.00    +0.128 A 
ATOM      4  C   UNL     1       9.399  -1.850  21.929  0.00  0.00    +0.063 A 
ATOM      5  C   UNL     1       9.796  -0.541  21.803  0.00  0.00    +0.118 A 
ATOM      6  N   UNL     1       9.219   0.478  22.467  0.00  0.00    -0.223 NA
ATOM      7  C   UNL     1       8.210   0.164  23.292  0.00  0.00    +0.221 A 
ATOM      8  N   UNL     1       7.646   1.218  24.013  0.00  0.00    -0.284 N 
ATOM      9  H   UNL     1       8.111   2.081  23.768  0.00  0.00    +0.155 HD
ATOM     10  N   UNL     1       7.760  -1.088  23.450  0.00  0.00    -0.199 NA
ENDROOT
BRANCH   1  13
ATOM     11  C   UNL     1       9.354  -4.325  25.567  0.00  0.00    +0.046 C 
ATOM     12  C   UNL     1       7.893  -4.490  25.254  0.00  0.00    -0.028 A 
ATOM     13  C   UNL     1       7.246  -3.997  24.098  0.00  0.00    +0.038 A 
ATOM     14  C   UNL     1       5.836  -4.140  23.997  0.00  0.00    -0.028 A 
ATOM     15  C   UNL     1       5.028  -3.440  22.936  0.00  0.00    +0.046 C 
ATOM     16  C   UNL     1       5.152  -4.964  24.923  0.00  0.00    +0.013 A 
ATOM     17  C   UNL     1       5.825  -5.571  25.990  0.00  0.00    -0.024 A 
ATOM     18  C   UNL     1       7.174  -5.296  26.155  0.00  0.00    +0.013 A 
BRANCH  17  19
ATOM     19  C   UNL     1       5.213  -6.484  26.961  0.00  0.00    +0.019 C 
ATOM     20  C   UNL     1       4.249  -6.091  27.792  0.00  0.00    +0.089 C 
BRANCH  20  21
ATOM     21  C   UNL     1       3.705  -6.946  28.924  0.00  0.00    +0.091 C 
ATOM     22  N   UNL     1       3.253  -7.656  29.863  0.00  0.00    -0.191 NA
ENDBRANCH  20  21
ENDBRANCH  17  19
ENDBRANCH   1  13
BRANCH   8  23
ATOM     23  C   UNL     1       6.775   1.235  25.112  0.00  0.00    +0.034 A 
ATOM     24  C   UNL     1       7.260   0.875  26.378  0.00  0.00    +0.024 A 
ATOM     25  C   UNL     1       6.421   0.852  27.503  0.00  0.00    +0.020 A 
ATOM     26  C   UNL     1       5.072   1.196  27.382  0.00  0.00    +0.052 A 
ATOM     27  C   UNL     1       4.579   1.583  26.139  0.00  0.00    +0.020 A 
ATOM     28  C   UNL     1       5.425   1.612  25.025  0.00  0.00    +0.024 A 
BRANCH  26  29
ATOM     29  C   UNL     1       4.198   1.143  28.516  0.00  0.00    +0.099 C 
ATOM     30  N   UNL     1       3.483   1.094  29.428  0.00  0.00    -0.191 NA
ENDBRANCH  26  29
ENDBRANCH   8  23
TORSDOF 5
ENDMDL
