MODEL 1
REMARK VINA RESULT:      -6.0      0.000      0.000
REMARK  Name = 
REMARK  8 active torsions:
REMARK  status: ('A' for Active; 'I' for Inactive)
REMARK    1  A    between atoms: CA_2  and  C_3
REMARK    2  A    between atoms: CA_2  and  N_5
REMARK    3  A    between atoms: CA_2  and  C_11
REMARK    4  A    between atoms: C_3  and  O_4
REMARK    5  A    between atoms: C_6  and  C_8
REMARK    6  A    between atoms: C_11  and  O_13
REMARK    7  A    between atoms: C_11  and  C_14
REMARK    8  A    between atoms: C_17  and  N_18
REMARK                            x       y       z     vdW  Elec       q    Type
REMARK                         _______ _______ _______ _____ _____    ______ ____
ROOT
ATOM      1  C   UNL     1       9.392  -2.114  23.025  0.00  0.00    +0.167 C 
ENDROOT
BRANCH   1   2
ATOM      2  C   UNL     1       9.795  -0.642  23.031  0.00  0.00    -0.017 A 
ATOM      3  C   UNL     1       9.621   0.170  21.895  0.00  0.00    +0.008 A 
ATOM      4  C   UNL     1       9.903   1.536  21.929  0.00  0.00    +0.023 A 
ATOM      5  C   UNL     1      10.355   2.142  23.095  0.00  0.00    +0.025 A 
ATOM      6  C   UNL     1      10.671   1.327  24.180  0.00  0.00    +0.023 A 
ATOM      7  C   UNL     1      10.382  -0.043  24.155  0.00  0.00    +0.008 A 
BRANCH   5   8
ATOM      8  N   UNL     1      10.695   3.499  23.097  0.00  0.00    -0.358 N 
ATOM      9  H   UNL     1      10.276   4.011  22.326  0.00  0.00    +0.142 HD
ATOM     10  H   UNL     1      10.518   3.955  23.986  0.00  0.00    +0.142 HD
ENDBRANCH   5   8
ENDBRANCH   1   2
BRANCH   1  11
ATOM     11  O   UNL     1      10.425  -2.898  23.644  0.00  0.00    -0.385 OA
ATOM     12  H   UNL     1      10.443  -3.762  23.197  0.00  0.00    +0.210 HD
ENDBRANCH   1  11
BRANCH   1  13
ATOM     13  CA  UNL     1       8.072  -2.420  23.794  0.00  0.00    +0.131 C 
BRANCH  13  14
ATOM     14  N   UNL     1       7.337  -3.509  23.125  0.00  0.00    -0.305 N 
ATOM     15  H   UNL     1       6.546  -3.235  22.546  0.00  0.00    +0.149 HD
ATOM     16  C   UNL     1       7.649  -4.840  23.272  0.00  0.00    +0.246 C 
ATOM     17  O   UNL     1       8.563  -5.197  24.017  0.00  0.00    -0.273 OA
BRANCH  16  18
ATOM     18  C   UNL     1       6.797  -5.839  22.487  0.00  0.00    +0.256 C 
ATOM     19 CL   UNL     1       6.303  -5.118  20.940  0.00  0.00    -0.094 Cl
ATOM     20 CL   UNL     1       5.377  -6.284  23.453  0.00  0.00    -0.094 Cl
ENDBRANCH  16  18
ENDBRANCH  13  14
BRANCH  13  21
ATOM     21  C   UNL     1       7.184  -1.168  23.933  0.00  0.00    +0.181 C 
BRANCH  21  22
ATOM     22  O   UNL     1       6.226  -1.061  22.876  0.00  0.00    -0.393 OA
ATOM     23  H   UNL     1       5.568  -0.375  23.114  0.00  0.00    +0.209 HD
ENDBRANCH  21  22
ENDBRANCH  13  21
ENDBRANCH   1  13
TORSDOF 8
ENDMDL
MODEL 2
REMARK VINA RESULT:      -6.0      1.712      2.548
REMARK  Name = 
REMARK  8 active torsions:
REMARK  status: ('A' for Active; 'I' for Inactive)
REMARK    1  A    between atoms: CA_2  and  C_3
REMARK    2  A    between atoms: CA_2  and  N_5
REMARK    3  A    between atoms: CA_2  and  C_11
REMARK    4  A    between atoms: C_3  and  O_4
REMARK    5  A    between atoms: C_6  and  C_8
REMARK    6  A    between atoms: C_11  and  O_13
REMARK    7  A    between atoms: C_11  and  C_14
REMARK    8  A    between atoms: C_17  and  N_18
REMARK                            x       y       z     vdW  Elec       q    Type
REMARK                         _______ _______ _______ _____ _____    ______ ____
ROOT
ATOM      1  C   UNL     1       9.069  -2.149  25.365  0.00  0.00    +0.167 C 
ENDROOT
BRANCH   1   2
ATOM      2  C   UNL     1       9.431  -1.033  24.389  0.00  0.00    -0.017 A 
ATOM      3  C   UNL     1       9.571  -1.282  23.011  0.00  0.00    +0.008 A 
ATOM      4  C   UNL     1       9.809  -0.245  22.107  0.00  0.00    +0.023 A 
ATOM      5  C   UNL     1       9.905   1.071  22.540  0.00  0.00    +0.025 A 
ATOM      6  C   UNL     1       9.917   1.312  23.913  0.00  0.00    +0.023 A 
ATOM      7  C   UNL     1       9.668   0.278  24.825  0.00  0.00    +0.008 A 
BRANCH   5   8
ATOM      8  N   UNL     1      10.210   2.091  21.633  0.00  0.00    -0.358 N 
ATOM      9  H   UNL     1      11.199   2.131  21.403  0.00  0.00    +0.142 HD
ATOM     10  H   UNL     1       9.635   2.070  20.798  0.00  0.00    +0.142 HD
ENDBRANCH   5   8
ENDBRANCH   1   2
BRANCH   1  11
ATOM     11  O   UNL     1       7.775  -1.892  25.933  0.00  0.00    -0.385 OA
ATOM     12  H   UNL     1       7.438  -2.732  26.286  0.00  0.00    +0.210 HD
ENDBRANCH   1  11
BRANCH   1  13
ATOM     13  CA  UNL     1       9.005  -3.567  24.721  0.00  0.00    +0.131 C 
BRANCH  13  14
ATOM     14  N   UNL     1       7.691  -3.775  24.085  0.00  0.00    -0.305 N 
ATOM     15  H   UNL     1       6.958  -3.112  24.329  0.00  0.00    +0.149 HD
ATOM     16  C   UNL     1       7.417  -4.815  23.229  0.00  0.00    +0.246 C 
ATOM     17  O   UNL     1       8.272  -5.665  22.971  0.00  0.00    -0.273 OA
BRANCH  16  18
ATOM     18  C   UNL     1       6.007  -4.869  22.640  0.00  0.00    +0.256 C 
ATOM     19 CL   UNL     1       6.007  -5.875  21.174  0.00  0.00    -0.094 Cl
ATOM     20 CL   UNL     1       5.464  -3.221  22.270  0.00  0.00    -0.094 Cl
ENDBRANCH  16  18
ENDBRANCH  13  14
BRANCH  13  21
ATOM     21  C   UNL     1       9.297  -4.679  25.748  0.00  0.00    +0.181 C 
BRANCH  21  22
ATOM     22  O   UNL     1      10.264  -5.619  25.271  0.00  0.00    -0.393 OA
ATOM     23  H   UNL     1      10.606  -5.309  24.406  0.00  0.00    +0.209 HD
ENDBRANCH  21  22
ENDBRANCH  13  21
ENDBRANCH   1  13
TORSDOF 8
ENDMDL
MODEL 3
REMARK VINA RESULT:      -5.9      1.975      2.411
REMARK  Name = 
REMARK  8 active torsions:
REMARK  status: ('A' for Active; 'I' for Inactive)
REMARK    1  A    between atoms: CA_2  and  C_3
REMARK    2  A    between atoms: CA_2  and  N_5
REMARK    3  A    between atoms: CA_2  and  C_11
REMARK    4  A    between atoms: C_3  and  O_4
REMARK    5  A    between atoms: C_6  and  C_8
REMARK    6  A    between atoms: C_11  and  O_13
REMARK    7  A    between atoms: C_11  and  C_14
REMARK    8  A    between atoms: C_17  and  N_18
REMARK                            x       y       z     vdW  Elec       q    Type
REMARK                         _______ _______ _______ _____ _____    ______ ____
ROOT
ATOM      1  C   UNL     1       9.426  -1.981  22.833  0.00  0.00    +0.167 C 
ENDROOT
BRANCH   1   2
ATOM      2  C   UNL     1       9.831  -0.512  22.918  0.00  0.00    -0.017 A 
ATOM      3  C   UNL     1       9.674   0.356  21.822  0.00  0.00    +0.008 A 
ATOM      4  C   UNL     1       9.957   1.718  21.928  0.00  0.00    +0.023 A 
ATOM      5  C   UNL     1      10.394   2.264  23.129  0.00  0.00    +0.025 A 
ATOM      6  C   UNL     1      10.694   1.395  24.176  0.00  0.00    +0.023 A 
ATOM      7  C   UNL     1      10.403   0.028  24.079  0.00  0.00    +0.008 A 
BRANCH   5   8
ATOM      8  N   UNL     1      10.736   3.619  23.204  0.00  0.00    -0.358 N 
ATOM      9  H   UNL     1      10.764   4.068  22.293  0.00  0.00    +0.142 HD
ATOM     10  H   UNL     1      10.164   4.141  23.858  0.00  0.00    +0.142 HD
ENDBRANCH   5   8
ENDBRANCH   1   2
BRANCH   1  11
ATOM     11  O   UNL     1      10.320  -2.774  23.631  0.00  0.00    -0.385 OA
ATOM     12  H   UNL     1      10.894  -3.269  23.022  0.00  0.00    +0.210 HD
ENDBRANCH   1  11
BRANCH   1  13
ATOM     13  CA  UNL     1       7.984  -2.278  23.342  0.00  0.00    +0.131 C 
BRANCH  13  14
ATOM     14  N   UNL     1       8.033  -3.199  24.492  0.00  0.00    -0.305 N 
ATOM     15  H   UNL     1       8.807  -3.859  24.514  0.00  0.00    +0.149 HD
ATOM     16  C   UNL     1       7.086  -3.221  25.489  0.00  0.00    +0.246 C 
ATOM     17  O   UNL     1       6.108  -2.473  25.450  0.00  0.00    -0.273 OA
BRANCH  16  18
ATOM     18  C   UNL     1       7.302  -4.225  26.623  0.00  0.00    +0.256 C 
ATOM     19 CL   UNL     1       9.017  -4.688  26.695  0.00  0.00    -0.094 Cl
ATOM     20 CL   UNL     1       6.280  -5.648  26.347  0.00  0.00    -0.094 Cl
ENDBRANCH  16  18
ENDBRANCH  13  14
BRANCH  13  21
ATOM     21  C   UNL     1       7.086  -2.848  22.225  0.00  0.00    +0.181 C 
BRANCH  21  22
ATOM     22  O   UNL     1       5.728  -2.415  22.348  0.00  0.00    -0.393 OA
ATOM     23  H   UNL     1       5.712  -1.553  22.814  0.00  0.00    +0.209 HD
ENDBRANCH  21  22
ENDBRANCH  13  21
ENDBRANCH   1  13
TORSDOF 8
ENDMDL
MODEL 4
REMARK VINA RESULT:      -5.7      2.416      3.152
REMARK  Name = 
REMARK  8 active torsions:
REMARK  status: ('A' for Active; 'I' for Inactive)
REMARK    1  A    between atoms: CA_2  and  C_3
REMARK    2  A    between atoms: CA_2  and  N_5
REMARK    3  A    between atoms: CA_2  and  C_11
REMARK    4  A    between atoms: C_3  and  O_4
REMARK    5  A    between atoms: C_6  and  C_8
REMARK    6  A    between atoms: C_11  and  O_13
REMARK    7  A    between atoms: C_11  and  C_14
REMARK    8  A    between atoms: C_17  and  N_18
REMARK                            x       y       z     vdW  Elec       q    Type
REMARK                         _______ _______ _______ _____ _____    ______ ____
ROOT
ATOM      1  C   UNL     1      10.108  -0.162  24.856  0.00  0.00    +0.167 C 
ENDROOT
BRANCH   1   2
ATOM      2  C   UNL     1       9.927   1.288  24.417  0.00  0.00    -0.017 A 
ATOM      3  C   UNL     1       8.736   1.990  24.681  0.00  0.00    +0.008 A 
ATOM      4  C   UNL     1       8.604   3.343  24.363  0.00  0.00    +0.023 A 
ATOM      5  C   UNL     1       9.655   4.045  23.785  0.00  0.00    +0.025 A 
ATOM      6  C   UNL     1      10.782   3.329  23.384  0.00  0.00    +0.023 A 
ATOM      7  C   UNL     1      10.924   1.974  23.709  0.00  0.00    +0.008 A 
BRANCH   5   8
ATOM      8  N   UNL     1       9.488   5.382  23.412  0.00  0.00    -0.358 N 
ATOM      9  H   UNL     1       8.599   5.768  23.719  0.00  0.00    +0.142 HD
ATOM     10  H   UNL     1      10.264   5.974  23.685  0.00  0.00    +0.142 HD
ENDBRANCH   5   8
ENDBRANCH   1   2
BRANCH   1  11
ATOM     11  O   UNL     1       9.400  -0.385  26.086  0.00  0.00    -0.385 OA
ATOM     12  H   UNL     1       8.842   0.394  26.247  0.00  0.00    +0.210 HD
ENDBRANCH   1  11
BRANCH   1  13
ATOM     13  CA  UNL     1       9.576  -1.211  23.834  0.00  0.00    +0.131 C 
BRANCH  13  14
ATOM     14  N   UNL     1       9.322  -2.496  24.512  0.00  0.00    -0.305 N 
ATOM     15  H   UNL     1       9.830  -2.660  25.378  0.00  0.00    +0.149 HD
ATOM     16  C   UNL     1       8.479  -3.463  24.018  0.00  0.00    +0.246 C 
ATOM     17  O   UNL     1       7.903  -3.310  22.940  0.00  0.00    -0.273 OA
BRANCH  16  18
ATOM     18  C   UNL     1       8.312  -4.728  24.862  0.00  0.00    +0.256 C 
ATOM     19 CL   UNL     1       7.080  -4.456  26.113  0.00  0.00    -0.094 Cl
ATOM     20 CL   UNL     1       9.871  -5.150  25.597  0.00  0.00    -0.094 Cl
ENDBRANCH  16  18
ENDBRANCH  13  14
BRANCH  13  21
ATOM     21  C   UNL     1      10.543  -1.401  22.648  0.00  0.00    +0.181 C 
BRANCH  21  22
ATOM     22  O   UNL     1       9.854  -1.547  21.403  0.00  0.00    -0.393 OA
ATOM     23  H   UNL     1       8.962  -1.916  21.577  0.00  0.00    +0.209 HD
ENDBRANCH  21  22
ENDBRANCH  13  21
ENDBRANCH   1  13
TORSDOF 8
ENDMDL
MODEL 5
REMARK VINA RESULT:      -5.7      2.349      3.365
REMARK  Name = 
REMARK  8 active torsions:
REMARK  status: ('A' for Active; 'I' for Inactive)
REMARK    1  A    between atoms: CA_2  and  C_3
REMARK    2  A    between atoms: CA_2  and  N_5
REMARK    3  A    between atoms: CA_2  and  C_11
REMARK    4  A    between atoms: C_3  and  O_4
REMARK    5  A    between atoms: C_6  and  C_8
REMARK    6  A    between atoms: C_11  and  O_13
REMARK    7  A    between atoms: C_11  and  C_14
REMARK    8  A    between atoms: C_17  and  N_18
REMARK                            x       y       z     vdW  Elec       q    Type
REMARK                         _______ _______ _______ _____ _____    ______ ____
ROOT
ATOM      1  C   UNL     1       9.463  -1.990  22.710  0.00  0.00    +0.167 C 
ENDROOT
BRANCH   1   2
ATOM      2  C   UNL     1       9.861  -0.522  22.838  0.00  0.00    -0.017 A 
ATOM      3  C   UNL     1       9.683   0.380  21.773  0.00  0.00    +0.008 A 
ATOM      4  C   UNL     1       9.960   1.740  21.920  0.00  0.00    +0.023 A 
ATOM      5  C   UNL     1      10.411   2.250  23.131  0.00  0.00    +0.025 A 
ATOM      6  C   UNL     1      10.731   1.348  24.145  0.00  0.00    +0.023 A 
ATOM      7  C   UNL     1      10.446  -0.016  24.007  0.00  0.00    +0.008 A 
BRANCH   5   8
ATOM      8  N   UNL     1      10.747   3.603  23.246  0.00  0.00    -0.358 N 
ATOM      9  H   UNL     1      11.098   3.995  22.377  0.00  0.00    +0.142 HD
ATOM     10  H   UNL     1      10.001   4.169  23.635  0.00  0.00    +0.142 HD
ENDBRANCH   5   8
ENDBRANCH   1   2
BRANCH   1  11
ATOM     11  O   UNL     1      10.181  -2.769  23.680  0.00  0.00    -0.385 OA
ATOM     12  H   UNL     1      11.057  -2.965  23.307  0.00  0.00    +0.210 HD
ENDBRANCH   1  11
BRANCH   1  13
ATOM     13  CA  UNL     1       7.947  -2.265  22.944  0.00  0.00    +0.131 C 
BRANCH  13  14
ATOM     14  N   UNL     1       7.627  -2.148  24.379  0.00  0.00    -0.305 N 
ATOM     15  H   UNL     1       7.954  -2.901  24.980  0.00  0.00    +0.149 HD
ATOM     16  C   UNL     1       6.898  -1.112  24.913  0.00  0.00    +0.246 C 
ATOM     17  O   UNL     1       6.439  -0.223  24.193  0.00  0.00    -0.273 OA
BRANCH  16  18
ATOM     18  C   UNL     1       6.677  -1.134  26.427  0.00  0.00    +0.256 C 
ATOM     19 CL   UNL     1       8.099  -0.458  27.250  0.00  0.00    -0.094 Cl
ATOM     20 CL   UNL     1       6.382  -2.803  26.951  0.00  0.00    -0.094 Cl
ENDBRANCH  16  18
ENDBRANCH  13  14
BRANCH  13  21
ATOM     21  C   UNL     1       7.522  -3.644  22.401  0.00  0.00    +0.181 C 
BRANCH  21  22
ATOM     22  O   UNL     1       7.899  -4.712  23.275  0.00  0.00    -0.393 OA
ATOM     23  H   UNL     1       8.874  -4.811  23.250  0.00  0.00    +0.209 HD
ENDBRANCH  21  22
ENDBRANCH  13  21
ENDBRANCH   1  13
TORSDOF 8
ENDMDL
MODEL 6
REMARK VINA RESULT:      -5.6      4.769      7.160
REMARK  Name = 
REMARK  8 active torsions:
REMARK  status: ('A' for Active; 'I' for Inactive)
REMARK    1  A    between atoms: CA_2  and  C_3
REMARK    2  A    between atoms: CA_2  and  N_5
REMARK    3  A    between atoms: CA_2  and  C_11
REMARK    4  A    between atoms: C_3  and  O_4
REMARK    5  A    between atoms: C_6  and  C_8
REMARK    6  A    between atoms: C_11  and  O_13
REMARK    7  A    between atoms: C_11  and  C_14
REMARK    8  A    between atoms: C_17  and  N_18
REMARK                            x       y       z     vdW  Elec       q    Type
REMARK                         _______ _______ _______ _____ _____    ______ ____
ROOT
ATOM      1  C   UNL     1      10.575   2.025  22.570  0.00  0.00    +0.167 C 
ENDROOT
BRANCH   1   2
ATOM      2  C   UNL     1      10.180   0.748  23.307  0.00  0.00    -0.017 A 
ATOM      3  C   UNL     1       9.860   0.762  24.677  0.00  0.00    +0.008 A 
ATOM      4  C   UNL     1       9.408  -0.386  25.329  0.00  0.00    +0.023 A 
ATOM      5  C   UNL     1       9.250  -1.582  24.640  0.00  0.00    +0.025 A 
ATOM      6  C   UNL     1       9.703  -1.647  23.323  0.00  0.00    +0.023 A 
ATOM      7  C   UNL     1      10.147  -0.496  22.660  0.00  0.00    +0.008 A 
BRANCH   5   8
ATOM      8  N   UNL     1       8.860  -2.741  25.319  0.00  0.00    -0.358 N 
ATOM      9  H   UNL     1       8.223  -2.550  26.088  0.00  0.00    +0.142 HD
ATOM     10  H   UNL     1       8.497  -3.462  24.706  0.00  0.00    +0.142 HD
ENDBRANCH   5   8
ENDBRANCH   1   2
BRANCH   1  11
ATOM     11  O   UNL     1       9.713   2.213  21.436  0.00  0.00    -0.385 OA
ATOM     12  H   UNL     1       9.527   1.335  21.063  0.00  0.00    +0.210 HD
ENDBRANCH   1  11
BRANCH   1  13
ATOM     13  CA  UNL     1      10.475   3.319  23.432  0.00  0.00    +0.131 C 
BRANCH  13  14
ATOM     14  N   UNL     1       9.280   4.092  23.047  0.00  0.00    -0.305 N 
ATOM     15  H   UNL     1       9.249   4.434  22.089  0.00  0.00    +0.149 HD
ATOM     16  C   UNL     1       8.253   4.387  23.913  0.00  0.00    +0.246 C 
ATOM     17  O   UNL     1       8.300   4.036  25.093  0.00  0.00    -0.273 OA
BRANCH  16  18
ATOM     18  C   UNL     1       7.076   5.180  23.342  0.00  0.00    +0.256 C 
ATOM     19 CL   UNL     1       5.909   4.067  22.597  0.00  0.00    -0.094 Cl
ATOM     20 CL   UNL     1       7.680   6.346  22.149  0.00  0.00    -0.094 Cl
ENDBRANCH  16  18
ENDBRANCH  13  14
BRANCH  13  21
ATOM     21  C   UNL     1      11.745   4.185  23.320  0.00  0.00    +0.181 C 
BRANCH  21  22
ATOM     22  O   UNL     1      11.470   5.486  22.791  0.00  0.00    -0.393 OA
ATOM     23  H   UNL     1      12.319   5.945  22.623  0.00  0.00    +0.209 HD
ENDBRANCH  21  22
ENDBRANCH  13  21
ENDBRANCH   1  13
TORSDOF 8
ENDMDL
MODEL 7
REMARK VINA RESULT:      -5.4      2.235      2.715
REMARK  Name = 
REMARK  8 active torsions:
REMARK  status: ('A' for Active; 'I' for Inactive)
REMARK    1  A    between atoms: CA_2  and  C_3
REMARK    2  A    between atoms: CA_2  and  N_5
REMARK    3  A    between atoms: CA_2  and  C_11
REMARK    4  A    between atoms: C_3  and  O_4
REMARK    5  A    between atoms: C_6  and  C_8
REMARK    6  A    between atoms: C_11  and  O_13
REMARK    7  A    between atoms: C_11  and  C_14
REMARK    8  A    between atoms: C_17  and  N_18
REMARK                            x       y       z     vdW  Elec       q    Type
REMARK                         _______ _______ _______ _____ _____    ______ ____
ROOT
ATOM      1  C   UNL     1       9.339  -1.588  22.594  0.00  0.00    +0.167 C 
ENDROOT
BRANCH   1   2
ATOM      2  C   UNL     1       8.883  -0.145  22.398  0.00  0.00    -0.017 A 
ATOM      3  C   UNL     1       7.555   0.244  22.655  0.00  0.00    +0.008 A 
ATOM      4  C   UNL     1       7.160   1.580  22.565  0.00  0.00    +0.023 A 
ATOM      5  C   UNL     1       8.072   2.573  22.229  0.00  0.00    +0.025 A 
ATOM      6  C   UNL     1       9.350   2.184  21.830  0.00  0.00    +0.023 A 
ATOM      7  C   UNL     1       9.755   0.846  21.927  0.00  0.00    +0.008 A 
BRANCH   5   8
ATOM      8  N   UNL     1       7.649   3.897  22.079  0.00  0.00    -0.358 N 
ATOM      9  H   UNL     1       7.003   4.018  21.305  0.00  0.00    +0.142 HD
ATOM     10  H   UNL     1       7.284   4.301  22.935  0.00  0.00    +0.142 HD
ENDBRANCH   5   8
ENDBRANCH   1   2
BRANCH   1  11
ATOM     11  O   UNL     1      10.528  -1.825  21.824  0.00  0.00    -0.385 OA
ATOM     12  H   UNL     1      10.454  -2.714  21.438  0.00  0.00    +0.210 HD
ENDBRANCH   1  11
BRANCH   1  13
ATOM     13  CA  UNL     1       9.676  -1.958  24.070  0.00  0.00    +0.131 C 
BRANCH  13  14
ATOM     14  N   UNL     1       8.704  -2.942  24.580  0.00  0.00    -0.305 N 
ATOM     15  H   UNL     1       7.758  -2.605  24.741  0.00  0.00    +0.149 HD
ATOM     16  C   UNL     1       9.024  -4.248  24.869  0.00  0.00    +0.246 C 
ATOM     17  O   UNL     1      10.178  -4.660  24.741  0.00  0.00    -0.273 OA
BRANCH  16  18
ATOM     18  C   UNL     1       7.887  -5.141  25.369  0.00  0.00    +0.256 C 
ATOM     19 CL   UNL     1       6.508  -5.037  24.252  0.00  0.00    -0.094 Cl
ATOM     20 CL   UNL     1       7.414  -4.629  27.000  0.00  0.00    -0.094 Cl
ENDBRANCH  16  18
ENDBRANCH  13  14
BRANCH  13  21
ATOM     21  C   UNL     1       9.722  -0.714  24.979  0.00  0.00    +0.181 C 
BRANCH  21  22
ATOM     22  O   UNL     1       9.037  -0.921  26.218  0.00  0.00    -0.393 OA
ATOM     23  H   UNL     1       8.129  -1.235  26.028  0.00  0.00    +0.209 HD
ENDBRANCH  21  22
ENDBRANCH  13  21
ENDBRANCH   1  13
TORSDOF 8
ENDMDL
MODEL 8
REMARK VINA RESULT:      -5.4      1.924      2.534
REMARK  Name = 
REMARK  8 active torsions:
REMARK  status: ('A' for Active; 'I' for Inactive)
REMARK    1  A    between atoms: CA_2  and  C_3
REMARK    2  A    between atoms: CA_2  and  N_5
REMARK    3  A    between atoms: CA_2  and  C_11
REMARK    4  A    between atoms: C_3  and  O_4
REMARK    5  A    between atoms: C_6  and  C_8
REMARK    6  A    between atoms: C_11  and  O_13
REMARK    7  A    between atoms: C_11  and  C_14
REMARK    8  A    between atoms: C_17  and  N_18
REMARK                            x       y       z     vdW  Elec       q    Type
REMARK                         _______ _______ _______ _____ _____    ______ ____
ROOT
ATOM      1  C   UNL     1       7.438  -0.803  23.681  0.00  0.00    +0.167 C 
ENDROOT
BRANCH   1   2
ATOM      2  C   UNL     1       7.954   0.623  23.509  0.00  0.00    -0.017 A 
ATOM      3  C   UNL     1       7.581   1.408  22.402  0.00  0.00    +0.008 A 
ATOM      4  C   UNL     1       7.976   2.742  22.293  0.00  0.00    +0.023 A 
ATOM      5  C   UNL     1       8.745   3.342  23.282  0.00  0.00    +0.025 A 
ATOM      6  C   UNL     1       9.244   2.538  24.305  0.00  0.00    +0.023 A 
ATOM      7  C   UNL     1       8.842   1.201  24.427  0.00  0.00    +0.008 A 
BRANCH   5   8
ATOM      8  N   UNL     1       9.189   4.659  23.128  0.00  0.00    -0.358 N 
ATOM      9  H   UNL     1       9.426   4.884  22.166  0.00  0.00    +0.142 HD
ATOM     10  H   UNL     1       8.556   5.345  23.525  0.00  0.00    +0.142 HD
ENDBRANCH   5   8
ENDBRANCH   1   2
BRANCH   1  11
ATOM     11  O   UNL     1       6.001  -0.798  23.683  0.00  0.00    -0.385 OA
ATOM     12  H   UNL     1       5.707  -1.189  22.843  0.00  0.00    +0.210 HD
ENDBRANCH   1  11
BRANCH   1  13
ATOM     13  CA  UNL     1       7.884  -1.785  22.556  0.00  0.00    +0.131 C 
BRANCH  13  14
ATOM     14  N   UNL     1       7.469  -3.160  22.890  0.00  0.00    -0.305 N 
ATOM     15  H   UNL     1       8.107  -3.698  23.473  0.00  0.00    +0.149 HD
ATOM     16  C   UNL     1       6.308  -3.736  22.434  0.00  0.00    +0.246 C 
ATOM     17  O   UNL     1       5.552  -3.124  21.676  0.00  0.00    -0.273 OA
BRANCH  16  18
ATOM     18  C   UNL     1       6.019  -5.166  22.897  0.00  0.00    +0.256 C 
ATOM     19 CL   UNL     1       6.754  -6.322  21.765  0.00  0.00    -0.094 Cl
ATOM     20 CL   UNL     1       4.264  -5.408  22.990  0.00  0.00    -0.094 Cl
ENDBRANCH  16  18
ENDBRANCH  13  14
BRANCH  13  21
ATOM     21  C   UNL     1       9.403  -1.719  22.304  0.00  0.00    +0.181 C 
BRANCH  21  22
ATOM     22  O   UNL     1       9.719  -1.119  21.044  0.00  0.00    -0.393 OA
ATOM     23  H   UNL     1       9.884  -0.163  21.182  0.00  0.00    +0.209 HD
ENDBRANCH  21  22
ENDBRANCH  13  21
ENDBRANCH   1  13
TORSDOF 8
ENDMDL
MODEL 9
REMARK VINA RESULT:      -5.4      2.586      3.029
REMARK  Name = 
REMARK  8 active torsions:
REMARK  status: ('A' for Active; 'I' for Inactive)
REMARK    1  A    between atoms: CA_2  and  C_3
REMARK    2  A    between atoms: CA_2  and  N_5
REMARK    3  A    between atoms: CA_2  and  C_11
REMARK    4  A    between atoms: C_3  and  O_4
REMARK    5  A    between atoms: C_6  and  C_8
REMARK    6  A    between atoms: C_11  and  O_13
REMARK    7  A    between atoms: C_11  and  C_14
REMARK    8  A    between atoms: C_17  and  N_18
REMARK                            x       y       z     vdW  Elec       q    Type
REMARK                         _______ _______ _______ _____ _____    ______ ____
ROOT
ATOM      1  C   UNL     1       8.629  -2.160  22.486  0.00  0.00    +0.167 C 
ENDROOT
BRANCH   1   2
ATOM      2  C   UNL     1       8.502  -0.641  22.420  0.00  0.00    -0.017 A 
ATOM      3  C   UNL     1       9.523   0.156  21.868  0.00  0.00    +0.008 A 
ATOM      4  C   UNL     1       9.368   1.535  21.722  0.00  0.00    +0.023 A 
ATOM      5  C   UNL     1       8.192   2.166  22.109  0.00  0.00    +0.025 A 
ATOM      6  C   UNL     1       7.236   1.414  22.790  0.00  0.00    +0.023 A 
ATOM      7  C   UNL     1       7.381   0.028  22.930  0.00  0.00    +0.008 A 
BRANCH   5   8
ATOM      8  N   UNL     1       8.075   3.557  22.018  0.00  0.00    -0.358 N 
ATOM      9  H   UNL     1       7.454   3.851  21.268  0.00  0.00    +0.142 HD
ATOM     10  H   UNL     1       7.829   3.997  22.898  0.00  0.00    +0.142 HD
ENDBRANCH   5   8
ENDBRANCH   1   2
BRANCH   1  11
ATOM     11  O   UNL     1       9.728  -2.514  23.342  0.00  0.00    -0.385 OA
ATOM     12  H   UNL     1      10.547  -2.253  22.889  0.00  0.00    +0.210 HD
ENDBRANCH   1  11
BRANCH   1  13
ATOM     13  CA  UNL     1       7.369  -2.884  23.047  0.00  0.00    +0.131 C 
BRANCH  13  14
ATOM     14  N   UNL     1       7.755  -3.806  24.132  0.00  0.00    -0.305 N 
ATOM     15  H   UNL     1       8.700  -4.182  24.094  0.00  0.00    +0.149 HD
ATOM     16  C   UNL     1       6.905  -4.190  25.142  0.00  0.00    +0.246 C 
ATOM     17  O   UNL     1       5.738  -3.795  25.171  0.00  0.00    -0.273 OA
BRANCH  16  18
ATOM     18  C   UNL     1       7.476  -5.135  26.201  0.00  0.00    +0.256 C 
ATOM     19 CL   UNL     1       6.507  -5.026  27.686  0.00  0.00    -0.094 Cl
ATOM     20 CL   UNL     1       9.166  -4.703  26.521  0.00  0.00    -0.094 Cl
ENDBRANCH  16  18
ENDBRANCH  13  14
BRANCH  13  21
ATOM     21  C   UNL     1       6.597  -3.634  21.943  0.00  0.00    +0.181 C 
BRANCH  21  22
ATOM     22  O   UNL     1       5.180  -3.560  22.126  0.00  0.00    -0.393 OA
ATOM     23  H   UNL     1       4.866  -2.687  21.811  0.00  0.00    +0.209 HD
ENDBRANCH  21  22
ENDBRANCH  13  21
ENDBRANCH   1  13
TORSDOF 8
ENDMDL
