MODEL 1
REMARK VINA RESULT:      -7.3      0.000      0.000
REMARK  Name = 
REMARK  19 active torsions:
REMARK  status: ('A' for Active; 'I' for Inactive)
REMARK    1  A    between atoms: C_1  and  C_2
REMARK    2  A    between atoms: C_2  and  C_3
REMARK    3  A    between atoms: C_2  and  C_4
REMARK    4  A    between atoms: C_4  and  C_5
REMARK    5  A    between atoms: C_5  and  N_7
REMARK    6  A    between atoms: C_5  and  C_27
REMARK    7  A    between atoms: N_7  and  P_8
REMARK    8  A    between atoms: P_8  and  O_9
REMARK    9  A    between atoms: P_8  and  O_11
REMARK   10  A    between atoms: O_11  and  C_12
REMARK   11  A    between atoms: C_15  and  C_17
REMARK   12  A    between atoms: C_18  and  O_20
REMARK   13  A    between atoms: C_21  and  O_23
REMARK   14  A    between atoms: C_24  and  O_26
REMARK   15  A    between atoms: N_29  and  CA_30
REMARK   16  A    between atoms: CA_30  and  CB_32
REMARK   17  A    between atoms: CA_30  and  C_42
REMARK   18  A    between atoms: CB_32  and  CG_33
REMARK   19  A    between atoms: C_42  and  O_43
REMARK                            x       y       z     vdW  Elec       q    Type
REMARK                         _______ _______ _______ _____ _____    ______ ____
ROOT
ATOM      1  C   UNK A   0       8.131  -3.231  22.642  0.00  0.00    +0.150 C 
ENDROOT
BRANCH   1   2
ATOM      2  C   UNK A   0       8.366  -3.373  24.186  0.00  0.00    +0.231 C 
ATOM      3  N   TRP A   1       7.747  -2.400  24.923  0.00  0.00    -0.301 N 
ATOM      4  H   TRP A   1       7.200  -1.687  24.448  0.00  0.00    +0.150 HD
ATOM      5  O   UNK A   0       8.987  -4.309  24.700  0.00  0.00    -0.274 OA
BRANCH   3   6
ATOM      6  CA  TRP A   1       7.763  -2.298  26.384  0.00  0.00    +0.186 C 
BRANCH   6   7
ATOM      7  C   TRP A   1       8.088  -0.829  26.706  0.00  0.00    +0.326 C 
ATOM      8  OXT TRP A   1       7.347  -0.110  27.371  0.00  0.00    -0.249 OA
BRANCH   7   9
ATOM      9  O   TRP A   1       9.233  -0.354  26.167  0.00  0.00    -0.479 OA
ATOM     10  H   TRP A   1       9.163  -0.029  25.251  0.00  0.00    +0.295 HD
ENDBRANCH   7   9
ENDBRANCH   6   7
BRANCH   6  11
ATOM     11  CB  TRP A   1       6.471  -2.755  27.086  0.00  0.00    +0.071 C 
BRANCH  11  12
ATOM     12  CG  TRP A   1       6.125  -4.196  26.868  0.00  0.00    -0.020 A 
ATOM     13  CD2 TRP A   1       5.245  -4.716  25.867  0.00  0.00    +0.003 A 
ATOM     14  CE2 TRP A   1       5.180  -6.098  26.039  0.00  0.00    +0.047 A 
ATOM     15  CZ2 TRP A   1       4.385  -6.925  25.238  0.00  0.00    +0.026 A 
ATOM     16  CH2 TRP A   1       3.625  -6.317  24.233  0.00  0.00    +0.002 A 
ATOM     17  CZ3 TRP A   1       3.674  -4.942  24.029  0.00  0.00    +0.001 A 
ATOM     18  NE1 TRP A   1       6.012  -6.413  27.088  0.00  0.00    -0.360 N 
ATOM     19  HE1 TRP A   1       6.163  -7.350  27.438  0.00  0.00    +0.165 HD
ATOM     20  CE3 TRP A   1       4.488  -4.136  24.829  0.00  0.00    +0.010 A 
ATOM     21  CD1 TRP A   1       6.595  -5.279  27.590  0.00  0.00    +0.087 A 
ENDBRANCH  11  12
ENDBRANCH   6  11
ENDBRANCH   3   6
ENDBRANCH   1   2
BRANCH   1  22
ATOM     22  N   UNK A   0       8.116  -1.817  22.264  0.00  0.00    -0.211 NA
ATOM     23  H   UNK A   0       7.402  -1.313  22.768  0.00  0.00    +0.134 HD
BRANCH  22  24
ATOM     24  P   UNK A   0       9.531  -1.027  22.171  0.00  0.00    +0.408 P 
ATOM     25  O   UNK A   0      10.785  -1.808  22.377  0.00  0.00    -0.240 OA
BRANCH  24  26
ATOM     26  O   UNK A   0       9.454  -0.424  20.689  0.00  0.00    -0.312 OA
ATOM     27  H   UNK A   0       9.338  -1.188  20.083  0.00  0.00    +0.221 HD
ENDBRANCH  24  26
BRANCH  24  28
ATOM     28  O   UNK A   0       9.372   0.282  23.096  0.00  0.00    -0.264 OA
BRANCH  28  29
ATOM     29  C   UNK A   0       9.785   1.515  22.527  0.00  0.00    +0.292 C 
ATOM     30  C   UNK A   0      10.277   2.497  23.618  0.00  0.00    +0.202 C 
ATOM     31  C   UNK A   0       9.096   3.127  24.390  0.00  0.00    +0.179 C 
ATOM     32  C   UNK A   0       7.993   3.634  23.442  0.00  0.00    +0.174 C 
ATOM     33  C   UNK A   0       7.615   2.591  22.380  0.00  0.00    +0.149 C 
ATOM     34  C   UNK A   0       6.721   1.472  22.898  0.00  0.00    +0.041 C 
ATOM     35  O   UNK A   0       8.785   2.121  21.707  0.00  0.00    -0.343 OA
BRANCH  32  36
ATOM     36  O   UNK A   0       8.458   4.831  22.793  0.00  0.00    -0.387 OA
ATOM     37  H   UNK A   0       9.282   5.107  23.241  0.00  0.00    +0.210 HD
ENDBRANCH  32  36
BRANCH  31  38
ATOM     38  O   UNK A   0       8.538   2.237  25.360  0.00  0.00    -0.386 OA
ATOM     39  H   UNK A   0       8.728   2.566  26.255  0.00  0.00    +0.210 HD
ENDBRANCH  31  38
BRANCH  30  40
ATOM     40  O   UNK A   0      11.101   3.510  23.012  0.00  0.00    -0.384 OA
ATOM     41  H   UNK A   0      11.998   3.151  22.886  0.00  0.00    +0.210 HD
ENDBRANCH  30  40
ENDBRANCH  28  29
ENDBRANCH  24  28
ENDBRANCH  22  24
ENDBRANCH   1  22
BRANCH   1  42
ATOM     42  C   UNK A   0       6.859  -3.975  22.178  0.00  0.00    +0.031 C 
BRANCH  42  44
ATOM     43  C   UNK A   0       7.066  -6.457  22.755  0.00  0.00    +0.007 C 
ATOM     44  C   UNK A   0       7.091  -5.408  21.645  0.00  0.00    -0.015 C 
ATOM     45  C   UNK A   0       6.057  -5.754  20.571  0.00  0.00    +0.007 C 
ENDBRANCH  42  44
ENDBRANCH   1  42
TORSDOF 16
ENDMDL
MODEL 2
REMARK VINA RESULT:      -7.0      3.248      8.208
REMARK  Name = 
REMARK  19 active torsions:
REMARK  status: ('A' for Active; 'I' for Inactive)
REMARK    1  A    between atoms: C_1  and  C_2
REMARK    2  A    between atoms: C_2  and  C_3
REMARK    3  A    between atoms: C_2  and  C_4
REMARK    4  A    between atoms: C_4  and  C_5
REMARK    5  A    between atoms: C_5  and  N_7
REMARK    6  A    between atoms: C_5  and  C_27
REMARK    7  A    between atoms: N_7  and  P_8
REMARK    8  A    between atoms: P_8  and  O_9
REMARK    9  A    between atoms: P_8  and  O_11
REMARK   10  A    between atoms: O_11  and  C_12
REMARK   11  A    between atoms: C_15  and  C_17
REMARK   12  A    between atoms: C_18  and  O_20
REMARK   13  A    between atoms: C_21  and  O_23
REMARK   14  A    between atoms: C_24  and  O_26
REMARK   15  A    between atoms: N_29  and  CA_30
REMARK   16  A    between atoms: CA_30  and  CB_32
REMARK   17  A    between atoms: CA_30  and  C_42
REMARK   18  A    between atoms: CB_32  and  CG_33
REMARK   19  A    between atoms: C_42  and  O_43
REMARK                            x       y       z     vdW  Elec       q    Type
REMARK                         _______ _______ _______ _____ _____    ______ ____
ROOT
ATOM      1  C   UNK A   0       6.195  -0.287  25.447  0.00  0.00    +0.150 C 
ENDROOT
BRANCH   1   2
ATOM      2  C   UNK A   0       7.367  -1.296  25.708  0.00  0.00    +0.231 C 
ATOM      3  N   TRP A   1       7.584  -2.160  24.669  0.00  0.00    -0.301 N 
ATOM      4  H   TRP A   1       7.003  -2.095  23.837  0.00  0.00    +0.150 HD
ATOM      5  O   UNK A   0       8.079  -1.272  26.717  0.00  0.00    -0.274 OA
BRANCH   3   6
ATOM      6  CA  TRP A   1       8.628  -3.186  24.616  0.00  0.00    +0.186 C 
BRANCH   6   7
ATOM      7  C   TRP A   1       8.019  -4.377  23.857  0.00  0.00    +0.326 C 
ATOM      8  OXT TRP A   1       6.947  -4.316  23.263  0.00  0.00    -0.249 OA
BRANCH   7   9
ATOM      9  O   TRP A   1       8.725  -5.530  23.921  0.00  0.00    -0.479 OA
ATOM     10  H   TRP A   1       9.666  -5.460  23.678  0.00  0.00    +0.295 HD
ENDBRANCH   7   9
ENDBRANCH   6   7
BRANCH   6  11
ATOM     11  CB  TRP A   1       9.957  -2.733  23.981  0.00  0.00    +0.071 C 
BRANCH  11  12
ATOM     12  CG  TRP A   1       9.821  -1.616  22.993  0.00  0.00    -0.020 A 
ATOM     13  CD2 TRP A   1      10.143  -0.240  23.217  0.00  0.00    +0.003 A 
ATOM     14  CE2 TRP A   1       9.837   0.461  22.052  0.00  0.00    +0.047 A 
ATOM     15  CZ2 TRP A   1      10.008   1.844  21.933  0.00  0.00    +0.026 A 
ATOM     16  CH2 TRP A   1      10.501   2.534  23.045  0.00  0.00    +0.002 A 
ATOM     17  CZ3 TRP A   1      10.826   1.864  24.219  0.00  0.00    +0.001 A 
ATOM     18  NE1 TRP A   1       9.371  -0.457  21.141  0.00  0.00    -0.360 N 
ATOM     19  HE1 TRP A   1       9.071  -0.231  20.202  0.00  0.00    +0.165 HD
ATOM     20  CE3 TRP A   1      10.663   0.479  24.312  0.00  0.00    +0.010 A 
ATOM     21  CD1 TRP A   1       9.366  -1.713  21.690  0.00  0.00    +0.087 A 
ENDBRANCH  11  12
ENDBRANCH   6  11
ENDBRANCH   3   6
ENDBRANCH   1   2
BRANCH   1  22
ATOM     22  N   UNK A   0       4.920  -1.005  25.385  0.00  0.00    -0.211 NA
ATOM     23  H   UNK A   0       4.876  -1.597  24.569  0.00  0.00    +0.134 HD
BRANCH  22  24
ATOM     24  P   UNK A   0       4.363  -1.711  26.736  0.00  0.00    +0.408 P 
ATOM     25  O   UNK A   0       4.856  -1.200  28.048  0.00  0.00    -0.240 OA
BRANCH  24  26
ATOM     26  O   UNK A   0       2.785  -1.488  26.576  0.00  0.00    -0.312 OA
ATOM     27  H   UNK A   0       2.350  -2.223  27.061  0.00  0.00    +0.221 HD
ENDBRANCH  24  26
BRANCH  24  28
ATOM     28  O   UNK A   0       4.524  -3.297  26.509  0.00  0.00    -0.264 OA
BRANCH  28  29
ATOM     29  C   UNK A   0       5.222  -4.015  27.515  0.00  0.00    +0.292 C 
ATOM     30  C   UNK A   0       6.297  -4.942  26.897  0.00  0.00    +0.202 C 
ATOM     31  C   UNK A   0       5.666  -6.211  26.281  0.00  0.00    +0.179 C 
ATOM     32  C   UNK A   0       4.644  -6.864  27.229  0.00  0.00    +0.174 C 
ATOM     33  C   UNK A   0       3.655  -5.843  27.810  0.00  0.00    +0.149 C 
ATOM     34  C   UNK A   0       2.558  -5.420  26.843  0.00  0.00    +0.041 C 
ATOM     35  O   UNK A   0       4.361  -4.744  28.389  0.00  0.00    -0.343 OA
BRANCH  32  36
ATOM     36  O   UNK A   0       5.356  -7.506  28.302  0.00  0.00    -0.387 OA
ATOM     37  H   UNK A   0       6.255  -7.123  28.328  0.00  0.00    +0.210 HD
ENDBRANCH  32  36
BRANCH  31  38
ATOM     38  O   UNK A   0       5.065  -5.961  25.008  0.00  0.00    -0.386 OA
ATOM     39  H   UNK A   0       4.615  -5.099  25.021  0.00  0.00    +0.210 HD
ENDBRANCH  31  38
BRANCH  30  40
ATOM     40  O   UNK A   0       7.270  -5.280  27.902  0.00  0.00    -0.384 OA
ATOM     41  H   UNK A   0       6.911  -5.048  28.778  0.00  0.00    +0.210 HD
ENDBRANCH  30  40
ENDBRANCH  28  29
ENDBRANCH  24  28
ENDBRANCH  22  24
ENDBRANCH   1  22
BRANCH   1  42
ATOM     42  C   UNK A   0       6.442   0.579  24.192  0.00  0.00    +0.031 C 
BRANCH  42  44
ATOM     43  C   UNK A   0       6.709   3.038  23.545  0.00  0.00    +0.007 C 
ATOM     44  C   UNK A   0       7.199   1.904  24.444  0.00  0.00    -0.015 C 
ATOM     45  C   UNK A   0       7.088   2.313  25.914  0.00  0.00    +0.007 C 
ENDBRANCH  42  44
ENDBRANCH   1  42
TORSDOF 16
ENDMDL
MODEL 3
REMARK VINA RESULT:      -7.0      2.952      7.895
REMARK  Name = 
REMARK  19 active torsions:
REMARK  status: ('A' for Active; 'I' for Inactive)
REMARK    1  A    between atoms: C_1  and  C_2
REMARK    2  A    between atoms: C_2  and  C_3
REMARK    3  A    between atoms: C_2  and  C_4
REMARK    4  A    between atoms: C_4  and  C_5
REMARK    5  A    between atoms: C_5  and  N_7
REMARK    6  A    between atoms: C_5  and  C_27
REMARK    7  A    between atoms: N_7  and  P_8
REMARK    8  A    between atoms: P_8  and  O_9
REMARK    9  A    between atoms: P_8  and  O_11
REMARK   10  A    between atoms: O_11  and  C_12
REMARK   11  A    between atoms: C_15  and  C_17
REMARK   12  A    between atoms: C_18  and  O_20
REMARK   13  A    between atoms: C_21  and  O_23
REMARK   14  A    between atoms: C_24  and  O_26
REMARK   15  A    between atoms: N_29  and  CA_30
REMARK   16  A    between atoms: CA_30  and  CB_32
REMARK   17  A    between atoms: CA_30  and  C_42
REMARK   18  A    between atoms: CB_32  and  CG_33
REMARK   19  A    between atoms: C_42  and  O_43
REMARK                            x       y       z     vdW  Elec       q    Type
REMARK                         _______ _______ _______ _____ _____    ______ ____
ROOT
ATOM      1  C   UNK A   0       6.126  -0.103  25.910  0.00  0.00    +0.150 C 
ENDROOT
BRANCH   1   2
ATOM      2  C   UNK A   0       7.620  -0.564  26.027  0.00  0.00    +0.231 C 
ATOM      3  N   TRP A   1       8.298  -0.525  24.839  0.00  0.00    -0.301 N 
ATOM      4  H   TRP A   1       7.815  -0.213  24.000  0.00  0.00    +0.150 HD
ATOM      5  O   UNK A   0       8.162  -0.864  27.096  0.00  0.00    -0.274 OA
BRANCH   3   6
ATOM      6  CA  TRP A   1       9.710  -0.865  24.650  0.00  0.00    +0.186 C 
BRANCH   6   7
ATOM      7  C   TRP A   1       9.742  -2.353  24.258  0.00  0.00    +0.326 C 
ATOM      8  OXT TRP A   1      10.326  -2.770  23.261  0.00  0.00    -0.249 OA
BRANCH   7   9
ATOM      9  O   TRP A   1       9.039  -3.182  25.062  0.00  0.00    -0.479 OA
ATOM     10  H   TRP A   1       9.425  -4.068  25.192  0.00  0.00    +0.295 HD
ENDBRANCH   7   9
ENDBRANCH   6   7
BRANCH   6  11
ATOM     11  CB  TRP A   1      10.460   0.004  23.623  0.00  0.00    +0.071 C 
BRANCH  11  12
ATOM     12  CG  TRP A   1       9.577   0.891  22.800  0.00  0.00    -0.020 A 
ATOM     13  CD2 TRP A   1       9.051   2.162  23.190  0.00  0.00    +0.003 A 
ATOM     14  CE2 TRP A   1       8.256   2.629  22.145  0.00  0.00    +0.047 A 
ATOM     15  CZ2 TRP A   1       7.564   3.843  22.202  0.00  0.00    +0.026 A 
ATOM     16  CH2 TRP A   1       7.682   4.602  23.371  0.00  0.00    +0.002 A 
ATOM     17  CZ3 TRP A   1       8.475   4.170  24.429  0.00  0.00    +0.001 A 
ATOM     18  NE1 TRP A   1       8.318   1.690  21.142  0.00  0.00    -0.360 N 
ATOM     19  HE1 TRP A   1       7.834   1.763  20.257  0.00  0.00    +0.165 HD
ATOM     20  CE3 TRP A   1       9.172   2.962  24.345  0.00  0.00    +0.010 A 
ATOM     21  CD1 TRP A   1       9.118   0.642  21.519  0.00  0.00    +0.087 A 
ENDBRANCH  11  12
ENDBRANCH   6  11
ENDBRANCH   3   6
ENDBRANCH   1   2
BRANCH   1  22
ATOM     22  N   UNK A   0       5.379  -1.032  25.061  0.00  0.00    -0.211 NA
ATOM     23  H   UNK A   0       5.723  -1.014  24.112  0.00  0.00    +0.134 HD
BRANCH  22  24
ATOM     24  P   UNK A   0       5.085  -2.527  25.621  0.00  0.00    +0.408 P 
ATOM     25  O   UNK A   0       5.234  -2.768  27.086  0.00  0.00    -0.240 OA
BRANCH  24  26
ATOM     26  O   UNK A   0       3.574  -2.748  25.141  0.00  0.00    -0.312 OA
ATOM     27  H   UNK A   0       3.222  -3.500  25.666  0.00  0.00    +0.221 HD
ENDBRANCH  24  26
BRANCH  24  28
ATOM     28  O   UNK A   0       5.911  -3.530  24.670  0.00  0.00    -0.264 OA
BRANCH  28  29
ATOM     29  C   UNK A   0       5.147  -4.376  23.824  0.00  0.00    +0.292 C 
ATOM     30  C   UNK A   0       5.813  -5.766  23.674  0.00  0.00    +0.202 C 
ATOM     31  C   UNK A   0       7.020  -5.716  22.710  0.00  0.00    +0.179 C 
ATOM     32  C   UNK A   0       6.689  -4.958  21.412  0.00  0.00    +0.174 C 
ATOM     33  C   UNK A   0       5.997  -3.614  21.683  0.00  0.00    +0.149 C 
ATOM     34  C   UNK A   0       6.941  -2.511  22.142  0.00  0.00    +0.041 C 
ATOM     35  O   UNK A   0       4.874  -3.800  22.547  0.00  0.00    -0.343 OA
BRANCH  32  36
ATOM     36  O   UNK A   0       5.831  -5.784  20.603  0.00  0.00    -0.387 OA
ATOM     37  H   UNK A   0       6.385  -6.485  20.209  0.00  0.00    +0.210 HD
ENDBRANCH  32  36
BRANCH  31  38
ATOM     38  O   UNK A   0       8.186  -5.158  23.321  0.00  0.00    -0.386 OA
ATOM     39  H   UNK A   0       8.179  -5.348  24.275  0.00  0.00    +0.210 HD
ENDBRANCH  31  38
BRANCH  30  40
ATOM     40  O   UNK A   0       4.831  -6.720  23.230  0.00  0.00    -0.384 OA
ATOM     41  H   UNK A   0       4.640  -7.337  23.959  0.00  0.00    +0.210 HD
ENDBRANCH  30  40
ENDBRANCH  28  29
ENDBRANCH  24  28
ENDBRANCH  22  24
ENDBRANCH   1  22
BRANCH   1  42
ATOM     42  C   UNK A   0       6.005   1.360  25.427  0.00  0.00    +0.031 C 
BRANCH  42  44
ATOM     43  C   UNK A   0       6.851   2.756  27.395  0.00  0.00    +0.007 C 
ATOM     44  C   UNK A   0       5.650   2.390  26.524  0.00  0.00    -0.015 C 
ATOM     45  C   UNK A   0       5.049   3.651  25.900  0.00  0.00    +0.007 C 
ENDBRANCH  42  44
ENDBRANCH   1  42
TORSDOF 16
ENDMDL
MODEL 4
REMARK VINA RESULT:      -6.8      2.767      8.138
REMARK  Name = 
REMARK  19 active torsions:
REMARK  status: ('A' for Active; 'I' for Inactive)
REMARK    1  A    between atoms: C_1  and  C_2
REMARK    2  A    between atoms: C_2  and  C_3
REMARK    3  A    between atoms: C_2  and  C_4
REMARK    4  A    between atoms: C_4  and  C_5
REMARK    5  A    between atoms: C_5  and  N_7
REMARK    6  A    between atoms: C_5  and  C_27
REMARK    7  A    between atoms: N_7  and  P_8
REMARK    8  A    between atoms: P_8  and  O_9
REMARK    9  A    between atoms: P_8  and  O_11
REMARK   10  A    between atoms: O_11  and  C_12
REMARK   11  A    between atoms: C_15  and  C_17
REMARK   12  A    between atoms: C_18  and  O_20
REMARK   13  A    between atoms: C_21  and  O_23
REMARK   14  A    between atoms: C_24  and  O_26
REMARK   15  A    between atoms: N_29  and  CA_30
REMARK   16  A    between atoms: CA_30  and  CB_32
REMARK   17  A    between atoms: CA_30  and  C_42
REMARK   18  A    between atoms: CB_32  and  CG_33
REMARK   19  A    between atoms: C_42  and  O_43
REMARK                            x       y       z     vdW  Elec       q    Type
REMARK                         _______ _______ _______ _____ _____    ______ ____
ROOT
ATOM      1  C   UNK A   0       6.324  -0.326  24.961  0.00  0.00    +0.150 C 
ENDROOT
BRANCH   1   2
ATOM      2  C   UNK A   0       7.413  -0.486  23.844  0.00  0.00    +0.231 C 
ATOM      3  N   TRP A   1       8.685  -0.238  24.284  0.00  0.00    -0.301 N 
ATOM      4  H   TRP A   1       8.835   0.018  25.256  0.00  0.00    +0.150 HD
ATOM      5  O   UNK A   0       7.165  -0.868  22.696  0.00  0.00    -0.274 OA
BRANCH   3   6
ATOM      6  CA  TRP A   1       9.902  -0.341  23.475  0.00  0.00    +0.186 C 
BRANCH   6   7
ATOM      7  C   TRP A   1       9.927  -1.775  22.920  0.00  0.00    +0.326 C 
ATOM      8  OXT TRP A   1      10.098  -2.764  23.628  0.00  0.00    -0.249 OA
BRANCH   7   9
ATOM      9  O   TRP A   1       9.791  -1.883  21.579  0.00  0.00    -0.479 OA
ATOM     10  H   TRP A   1      10.324  -1.260  21.051  0.00  0.00    +0.295 HD
ENDBRANCH   7   9
ENDBRANCH   6   7
BRANCH   6  11
ATOM     11  CB  TRP A   1      10.028   0.701  22.347  0.00  0.00    +0.071 C 
BRANCH  11  12
ATOM     12  CG  TRP A   1       9.800   2.116  22.783  0.00  0.00    -0.020 A 
ATOM     13  CD2 TRP A   1       8.596   2.870  22.620  0.00  0.00    +0.003 A 
ATOM     14  CE2 TRP A   1       8.824   4.146  23.133  0.00  0.00    +0.047 A 
ATOM     15  CZ2 TRP A   1       7.856   5.156  23.112  0.00  0.00    +0.026 A 
ATOM     16  CH2 TRP A   1       6.616   4.853  22.540  0.00  0.00    +0.002 A 
ATOM     17  CZ3 TRP A   1       6.352   3.588  22.028  0.00  0.00    +0.001 A 
ATOM     18  NE1 TRP A   1      10.111   4.161  23.617  0.00  0.00    -0.360 N 
ATOM     19  HE1 TRP A   1      10.552   4.962  24.049  0.00  0.00    +0.165 HD
ATOM     20  CE3 TRP A   1       7.327   2.588  22.074  0.00  0.00    +0.010 A 
ATOM     21  CD1 TRP A   1      10.707   2.942  23.422  0.00  0.00    +0.087 A 
ENDBRANCH  11  12
ENDBRANCH   6  11
ENDBRANCH   3   6
ENDBRANCH   1   2
BRANCH   1  22
ATOM     22  N   UNK A   0       5.358  -1.423  24.880  0.00  0.00    -0.211 NA
ATOM     23  H   UNK A   0       5.269  -1.760  23.933  0.00  0.00    +0.134 HD
BRANCH  22  24
ATOM     24  P   UNK A   0       5.434  -2.605  25.990  0.00  0.00    +0.408 P 
ATOM     25  O   UNK A   0       6.697  -2.752  26.771  0.00  0.00    -0.240 OA
BRANCH  24  26
ATOM     26  O   UNK A   0       4.201  -2.223  26.937  0.00  0.00    -0.312 OA
ATOM     27  H   UNK A   0       4.469  -1.417  27.432  0.00  0.00    +0.221 HD
ENDBRANCH  24  26
BRANCH  24  28
ATOM     28  O   UNK A   0       4.918  -3.941  25.255  0.00  0.00    -0.264 OA
BRANCH  28  29
ATOM     29  C   UNK A   0       5.911  -4.888  24.889  0.00  0.00    +0.292 C 
ATOM     30  C   UNK A   0       6.847  -4.321  23.794  0.00  0.00    +0.202 C 
ATOM     31  C   UNK A   0       6.171  -4.336  22.405  0.00  0.00    +0.179 C 
ATOM     32  C   UNK A   0       5.489  -5.685  22.110  0.00  0.00    +0.174 C 
ATOM     33  C   UNK A   0       4.619  -6.165  23.280  0.00  0.00    +0.149 C 
ATOM     34  C   UNK A   0       3.275  -5.456  23.386  0.00  0.00    +0.041 C 
ATOM     35  O   UNK A   0       5.370  -6.149  24.496  0.00  0.00    -0.343 OA
BRANCH  32  36
ATOM     36  O   UNK A   0       6.508  -6.665  21.837  0.00  0.00    -0.387 OA
ATOM     37  H   UNK A   0       6.859  -6.970  22.697  0.00  0.00    +0.210 HD
ENDBRANCH  32  36
BRANCH  31  38
ATOM     38  O   UNK A   0       5.235  -3.267  22.240  0.00  0.00    -0.386 OA
ATOM     39  H   UNK A   0       4.496  -3.562  21.681  0.00  0.00    +0.210 HD
ENDBRANCH  31  38
BRANCH  30  40
ATOM     40  O   UNK A   0       8.075  -5.072  23.782  0.00  0.00    -0.384 OA
ATOM     41  H   UNK A   0       8.807  -4.473  23.547  0.00  0.00    +0.210 HD
ENDBRANCH  30  40
ENDBRANCH  28  29
ENDBRANCH  24  28
ENDBRANCH  22  24
ENDBRANCH   1  22
BRANCH   1  42
ATOM     42  C   UNK A   0       5.643   1.060  24.914  0.00  0.00    +0.031 C 
BRANCH  42  44
ATOM     43  C   UNK A   0       5.571   3.449  25.821  0.00  0.00    +0.007 C 
ATOM     44  C   UNK A   0       6.427   2.203  25.600  0.00  0.00    -0.015 C 
ATOM     45  C   UNK A   0       7.015   1.727  26.929  0.00  0.00    +0.007 C 
ENDBRANCH  42  44
ENDBRANCH   1  42
TORSDOF 16
ENDMDL
MODEL 5
REMARK VINA RESULT:      -6.7      2.126      4.184
REMARK  Name = 
REMARK  19 active torsions:
REMARK  status: ('A' for Active; 'I' for Inactive)
REMARK    1  A    between atoms: C_1  and  C_2
REMARK    2  A    between atoms: C_2  and  C_3
REMARK    3  A    between atoms: C_2  and  C_4
REMARK    4  A    between atoms: C_4  and  C_5
REMARK    5  A    between atoms: C_5  and  N_7
REMARK    6  A    between atoms: C_5  and  C_27
REMARK    7  A    between atoms: N_7  and  P_8
REMARK    8  A    between atoms: P_8  and  O_9
REMARK    9  A    between atoms: P_8  and  O_11
REMARK   10  A    between atoms: O_11  and  C_12
REMARK   11  A    between atoms: C_15  and  C_17
REMARK   12  A    between atoms: C_18  and  O_20
REMARK   13  A    between atoms: C_21  and  O_23
REMARK   14  A    between atoms: C_24  and  O_26
REMARK   15  A    between atoms: N_29  and  CA_30
REMARK   16  A    between atoms: CA_30  and  CB_32
REMARK   17  A    between atoms: CA_30  and  C_42
REMARK   18  A    between atoms: CB_32  and  CG_33
REMARK   19  A    between atoms: C_42  and  O_43
REMARK                            x       y       z     vdW  Elec       q    Type
REMARK                         _______ _______ _______ _____ _____    ______ ____
ROOT
ATOM      1  C   UNK A   0       5.848  -1.129  26.206  0.00  0.00    +0.150 C 
ENDROOT
BRANCH   1   2
ATOM      2  C   UNK A   0       6.035  -1.891  24.848  0.00  0.00    +0.231 C 
ATOM      3  N   TRP A   1       7.319  -2.310  24.631  0.00  0.00    -0.301 N 
ATOM      4  H   TRP A   1       8.032  -2.113  25.328  0.00  0.00    +0.150 HD
ATOM      5  O   UNK A   0       5.105  -2.157  24.079  0.00  0.00    -0.274 OA
BRANCH   3   6
ATOM      6  CA  TRP A   1       7.782  -3.073  23.469  0.00  0.00    +0.186 C 
BRANCH   6   7
ATOM      7  C   TRP A   1       9.219  -2.598  23.191  0.00  0.00    +0.326 C 
ATOM      8  OXT TRP A   1      10.191  -2.996  23.828  0.00  0.00    -0.249 OA
BRANCH   7   9
ATOM      9  O   TRP A   1       9.347  -1.668  22.218  0.00  0.00    -0.479 OA
ATOM     10  H   TRP A   1      10.253  -1.526  21.888  0.00  0.00    +0.295 HD
ENDBRANCH   7   9
ENDBRANCH   6   7
BRANCH   6  11
ATOM     11  CB  TRP A   1       7.716  -4.604  23.623  0.00  0.00    +0.071 C 
BRANCH  11  12
ATOM     12  CG  TRP A   1       7.506  -5.076  25.030  0.00  0.00    -0.020 A 
ATOM     13  CD2 TRP A   1       6.259  -5.449  25.623  0.00  0.00    +0.003 A 
ATOM     14  CE2 TRP A   1       6.509  -5.791  26.951  0.00  0.00    +0.047 A 
ATOM     15  CZ2 TRP A   1       5.499  -6.184  27.835  0.00  0.00    +0.026 A 
ATOM     16  CH2 TRP A   1       4.189  -6.221  27.347  0.00  0.00    +0.002 A 
ATOM     17  CZ3 TRP A   1       3.906  -5.895  26.025  0.00  0.00    +0.001 A 
ATOM     18  NE1 TRP A   1       7.863  -5.658  27.153  0.00  0.00    -0.360 N 
ATOM     19  HE1 TRP A   1       8.332  -5.841  28.030  0.00  0.00    +0.165 HD
ATOM     20  CE3 TRP A   1       4.932  -5.521  25.153  0.00  0.00    +0.010 A 
ATOM     21  CD1 TRP A   1       8.477  -5.238  26.002  0.00  0.00    +0.087 A 
ENDBRANCH  11  12
ENDBRANCH   6  11
ENDBRANCH   3   6
ENDBRANCH   1   2
BRANCH   1  22
ATOM     22  N   UNK A   0       6.996  -0.255  26.453  0.00  0.00    -0.211 NA
ATOM     23  H   UNK A   0       7.794  -0.539  25.904  0.00  0.00    +0.134 HD
BRANCH  22  24
ATOM     24  P   UNK A   0       6.756   1.351  26.475  0.00  0.00    +0.408 P 
ATOM     25  O   UNK A   0       5.351   1.849  26.428  0.00  0.00    -0.240 OA
BRANCH  24  26
ATOM     26  O   UNK A   0       7.476   1.754  27.847  0.00  0.00    -0.312 OA
ATOM     27  H   UNK A   0       6.761   1.979  28.481  0.00  0.00    +0.221 HD
ENDBRANCH  24  26
BRANCH  24  28
ATOM     28  O   UNK A   0       7.743   1.964  25.360  0.00  0.00    -0.264 OA
BRANCH  28  29
ATOM     29  C   UNK A   0       8.456   1.032  24.562  0.00  0.00    +0.292 C 
ATOM     30  C   UNK A   0       9.774   1.645  24.029  0.00  0.00    +0.202 C 
ATOM     31  C   UNK A   0       9.516   2.613  22.853  0.00  0.00    +0.179 C 
ATOM     32  C   UNK A   0       8.555   2.011  21.811  0.00  0.00    +0.174 C 
ATOM     33  C   UNK A   0       7.305   1.399  22.458  0.00  0.00    +0.149 C 
ATOM     34  C   UNK A   0       6.265   2.424  22.892  0.00  0.00    +0.041 C 
ATOM     35  O   UNK A   0       7.677   0.490  23.495  0.00  0.00    -0.343 OA
BRANCH  32  36
ATOM     36  O   UNK A   0       9.258   0.996  21.071  0.00  0.00    -0.387 OA
ATOM     37  H   UNK A   0       9.774   1.445  20.374  0.00  0.00    +0.210 HD
ENDBRANCH  32  36
BRANCH  31  38
ATOM     38  O   UNK A   0       9.031   3.886  23.289  0.00  0.00    -0.386 OA
ATOM     39  H   UNK A   0       8.709   4.394  22.524  0.00  0.00    +0.210 HD
ENDBRANCH  31  38
BRANCH  30  40
ATOM     40  O   UNK A   0      10.670   0.586  23.643  0.00  0.00    -0.384 OA
ATOM     41  H   UNK A   0      10.232   0.032  22.972  0.00  0.00    +0.210 HD
ENDBRANCH  30  40
ENDBRANCH  28  29
ENDBRANCH  24  28
ENDBRANCH  22  24
ENDBRANCH   1  22
BRANCH   1  42
ATOM     42  C   UNK A   0       5.582  -2.094  27.382  0.00  0.00    +0.031 C 
BRANCH  42  44
ATOM     43  C   UNK A   0       3.802  -2.922  29.020  0.00  0.00    +0.007 C 
ATOM     44  C   UNK A   0       4.103  -2.496  27.584  0.00  0.00    -0.015 C 
ATOM     45  C   UNK A   0       3.175  -1.352  27.170  0.00  0.00    +0.007 C 
ENDBRANCH  42  44
ENDBRANCH   1  42
TORSDOF 16
ENDMDL
MODEL 6
REMARK VINA RESULT:      -6.6      2.806      8.003
REMARK  Name = 
REMARK  19 active torsions:
REMARK  status: ('A' for Active; 'I' for Inactive)
REMARK    1  A    between atoms: C_1  and  C_2
REMARK    2  A    between atoms: C_2  and  C_3
REMARK    3  A    between atoms: C_2  and  C_4
REMARK    4  A    between atoms: C_4  and  C_5
REMARK    5  A    between atoms: C_5  and  N_7
REMARK    6  A    between atoms: C_5  and  C_27
REMARK    7  A    between atoms: N_7  and  P_8
REMARK    8  A    between atoms: P_8  and  O_9
REMARK    9  A    between atoms: P_8  and  O_11
REMARK   10  A    between atoms: O_11  and  C_12
REMARK   11  A    between atoms: C_15  and  C_17
REMARK   12  A    between atoms: C_18  and  O_20
REMARK   13  A    between atoms: C_21  and  O_23
REMARK   14  A    between atoms: C_24  and  O_26
REMARK   15  A    between atoms: N_29  and  CA_30
REMARK   16  A    between atoms: CA_30  and  CB_32
REMARK   17  A    between atoms: CA_30  and  C_42
REMARK   18  A    between atoms: CB_32  and  CG_33
REMARK   19  A    between atoms: C_42  and  O_43
REMARK                            x       y       z     vdW  Elec       q    Type
REMARK                         _______ _______ _______ _____ _____    ______ ____
ROOT
ATOM      1  C   UNK A   0       8.931   0.366  24.176  0.00  0.00    +0.150 C 
ENDROOT
BRANCH   1   2
ATOM      2  C   UNK A   0       7.583   0.646  24.927  0.00  0.00    +0.231 C 
ATOM      3  N   TRP A   1       7.728   1.449  26.027  0.00  0.00    -0.301 N 
ATOM      4  H   TRP A   1       8.652   1.796  26.271  0.00  0.00    +0.150 HD
ATOM      5  O   UNK A   0       6.483   0.247  24.532  0.00  0.00    -0.274 OA
BRANCH   3   6
ATOM      6  CA  TRP A   1       6.644   1.904  26.900  0.00  0.00    +0.186 C 
BRANCH   6   7
ATOM      7  C   TRP A   1       7.014   1.440  28.319  0.00  0.00    +0.326 C 
ATOM      8  OXT TRP A   1       6.387   1.779  29.319  0.00  0.00    -0.249 OA
BRANCH   7   9
ATOM      9  O   TRP A   1       8.117   0.662  28.408  0.00  0.00    -0.479 OA
ATOM     10  H   TRP A   1       8.213  -0.012  27.710  0.00  0.00    +0.295 HD
ENDBRANCH   7   9
ENDBRANCH   6   7
BRANCH   6  11
ATOM     11  CB  TRP A   1       6.363   3.418  26.857  0.00  0.00    +0.071 C 
BRANCH  11  12
ATOM     12  CG  TRP A   1       6.469   4.029  25.494  0.00  0.00    -0.020 A 
ATOM     13  CD2 TRP A   1       7.538   4.848  25.012  0.00  0.00    +0.003 A 
ATOM     14  CE2 TRP A   1       7.222   5.231  23.710  0.00  0.00    +0.047 A 
ATOM     15  CZ2 TRP A   1       8.046   6.062  22.943  0.00  0.00    +0.026 A 
ATOM     16  CH2 TRP A   1       9.229   6.523  23.531  0.00  0.00    +0.002 A 
ATOM     17  CZ3 TRP A   1       9.578   6.152  24.825  0.00  0.00    +0.001 A 
ATOM     18  NE1 TRP A   1       6.018   4.645  23.399  0.00  0.00    -0.360 N 
ATOM     19  HE1 TRP A   1       5.541   4.749  22.513  0.00  0.00    +0.165 HD
ATOM     20  CE3 TRP A   1       8.749   5.307  25.568  0.00  0.00    +0.010 A 
ATOM     21  CD1 TRP A   1       5.557   3.910  24.460  0.00  0.00    +0.087 A 
ENDBRANCH  11  12
ENDBRANCH   6  11
ENDBRANCH   3   6
ENDBRANCH   1   2
BRANCH   1  22
ATOM     22  N   UNK A   0       9.433  -0.964  24.524  0.00  0.00    -0.211 NA
ATOM     23  H   UNK A   0       9.134  -1.235  25.449  0.00  0.00    +0.134 HD
BRANCH  22  24
ATOM     24  P   UNK A   0       9.306  -2.151  23.423  0.00  0.00    +0.408 P 
ATOM     25  O   UNK A   0       9.882  -1.913  22.067  0.00  0.00    -0.240 OA
BRANCH  24  26
ATOM     26  O   UNK A   0      10.052  -3.353  24.174  0.00  0.00    -0.312 OA
ATOM     27  H   UNK A   0      10.055  -4.111  23.550  0.00  0.00    +0.221 HD
ENDBRANCH  24  26
BRANCH  24  28
ATOM     28  O   UNK A   0       7.766  -2.618  23.446  0.00  0.00    -0.264 OA
BRANCH  28  29
ATOM     29  C   UNK A   0       7.365  -3.533  22.437  0.00  0.00    +0.292 C 
ATOM     30  C   UNK A   0       5.898  -3.285  22.009  0.00  0.00    +0.202 C 
ATOM     31  C   UNK A   0       4.900  -3.836  23.053  0.00  0.00    +0.179 C 
ATOM     32  C   UNK A   0       5.265  -5.264  23.501  0.00  0.00    +0.174 C 
ATOM     33  C   UNK A   0       6.751  -5.398  23.862  0.00  0.00    +0.149 C 
ATOM     34  C   UNK A   0       7.113  -4.828  25.227  0.00  0.00    +0.041 C 
ATOM     35  O   UNK A   0       7.567  -4.898  22.801  0.00  0.00    -0.343 OA
BRANCH  32  36
ATOM     36  O   UNK A   0       4.948  -6.176  22.433  0.00  0.00    -0.387 OA
ATOM     37  H   UNK A   0       5.173  -7.076  22.739  0.00  0.00    +0.210 HD
ENDBRANCH  32  36
BRANCH  31  38
ATOM     38  O   UNK A   0       4.774  -2.982  24.193  0.00  0.00    -0.386 OA
ATOM     39  H   UNK A   0       4.524  -2.087  23.906  0.00  0.00    +0.210 HD
ENDBRANCH  31  38
BRANCH  30  40
ATOM     40  O   UNK A   0       5.673  -3.874  20.715  0.00  0.00    -0.384 OA
ATOM     41  H   UNK A   0       6.346  -4.562  20.561  0.00  0.00    +0.210 HD
ENDBRANCH  30  40
ENDBRANCH  28  29
ENDBRANCH  24  28
ENDBRANCH  22  24
ENDBRANCH   1  22
BRANCH   1  42
ATOM     42  C   UNK A   0       9.978   1.473  24.430  0.00  0.00    +0.031 C 
BRANCH  42  44
ATOM     43  C   UNK A   0      11.371   3.364  23.420  0.00  0.00    +0.007 C 
ATOM     44  C   UNK A   0      10.082   2.550  23.325  0.00  0.00    -0.015 C 
ATOM     45  C   UNK A   0       9.966   1.910  21.941  0.00  0.00    +0.007 C 
ENDBRANCH  42  44
ENDBRANCH   1  42
TORSDOF 16
ENDMDL
MODEL 7
REMARK VINA RESULT:      -6.5      3.302      8.852
REMARK  Name = 
REMARK  19 active torsions:
REMARK  status: ('A' for Active; 'I' for Inactive)
REMARK    1  A    between atoms: C_1  and  C_2
REMARK    2  A    between atoms: C_2  and  C_3
REMARK    3  A    between atoms: C_2  and  C_4
REMARK    4  A    between atoms: C_4  and  C_5
REMARK    5  A    between atoms: C_5  and  N_7
REMARK    6  A    between atoms: C_5  and  C_27
REMARK    7  A    between atoms: N_7  and  P_8
REMARK    8  A    between atoms: P_8  and  O_9
REMARK    9  A    between atoms: P_8  and  O_11
REMARK   10  A    between atoms: O_11  and  C_12
REMARK   11  A    between atoms: C_15  and  C_17
REMARK   12  A    between atoms: C_18  and  O_20
REMARK   13  A    between atoms: C_21  and  O_23
REMARK   14  A    between atoms: C_24  and  O_26
REMARK   15  A    between atoms: N_29  and  CA_30
REMARK   16  A    between atoms: CA_30  and  CB_32
REMARK   17  A    between atoms: CA_30  and  C_42
REMARK   18  A    between atoms: CB_32  and  CG_33
REMARK   19  A    between atoms: C_42  and  O_43
REMARK                            x       y       z     vdW  Elec       q    Type
REMARK                         _______ _______ _______ _____ _____    ______ ____
ROOT
ATOM      1  C   UNK A   0       8.283  -3.175  23.192  0.00  0.00    +0.150 C 
ENDROOT
BRANCH   1   2
ATOM      2  C   UNK A   0       8.622  -1.754  22.622  0.00  0.00    +0.231 C 
ATOM      3  N   TRP A   1       8.237  -0.730  23.445  0.00  0.00    -0.301 N 
ATOM      4  H   TRP A   1       7.783  -0.945  24.329  0.00  0.00    +0.150 HD
ATOM      5  O   UNK A   0       9.240  -1.568  21.569  0.00  0.00    -0.274 OA
BRANCH   3   6
ATOM      6  CA  TRP A   1       8.452   0.696  23.190  0.00  0.00    +0.186 C 
BRANCH   6   7
ATOM      7  C   TRP A   1       7.114   1.243  22.663  0.00  0.00    +0.326 C 
ATOM      8  OXT TRP A   1       7.035   2.213  21.915  0.00  0.00    -0.249 OA
BRANCH   7   9
ATOM      9  O   TRP A   1       6.007   0.609  23.114  0.00  0.00    -0.479 OA
ATOM     10  H   TRP A   1       5.277   1.189  23.398  0.00  0.00    +0.295 HD
ENDBRANCH   7   9
ENDBRANCH   6   7
BRANCH   6  11
ATOM     11  CB  TRP A   1       8.953   1.508  24.399  0.00  0.00    +0.071 C 
BRANCH  11  12
ATOM     12  CG  TRP A   1       9.635   2.793  24.042  0.00  0.00    -0.020 A 
ATOM     13  CD2 TRP A   1       9.172   4.112  24.344  0.00  0.00    +0.003 A 
ATOM     14  CE2 TRP A   1      10.086   5.015  23.804  0.00  0.00    +0.047 A 
ATOM     15  CZ2 TRP A   1       9.927   6.401  23.895  0.00  0.00    +0.026 A 
ATOM     16  CH2 TRP A   1       8.790   6.881  24.554  0.00  0.00    +0.002 A 
ATOM     17  CZ3 TRP A   1       7.863   6.008  25.113  0.00  0.00    +0.001 A 
ATOM     18  NE1 TRP A   1      11.085   4.273  23.218  0.00  0.00    -0.360 N 
ATOM     19  HE1 TRP A   1      11.888   4.666  22.744  0.00  0.00    +0.165 HD
ATOM     20  CE3 TRP A   1       8.050   4.626  25.025  0.00  0.00    +0.010 A 
ATOM     21  CD1 TRP A   1      10.832   2.934  23.363  0.00  0.00    +0.087 A 
ENDBRANCH  11  12
ENDBRANCH   6  11
ENDBRANCH   3   6
ENDBRANCH   1   2
BRANCH   1  22
ATOM     22  N   UNK A   0       6.845  -3.287  23.438  0.00  0.00    -0.211 NA
ATOM     23  H   UNK A   0       6.434  -2.383  23.616  0.00  0.00    +0.134 HD
BRANCH  22  24
ATOM     24  P   UNK A   0       5.962  -4.223  22.448  0.00  0.00    +0.408 P 
ATOM     25  O   UNK A   0       5.617  -3.687  21.100  0.00  0.00    -0.240 OA
BRANCH  24  26
ATOM     26  O   UNK A   0       6.889  -5.525  22.342  0.00  0.00    -0.312 OA
ATOM     27  H   UNK A   0       7.811  -5.223  22.496  0.00  0.00    +0.221 HD
ENDBRANCH  24  26
BRANCH  24  28
ATOM     28  O   UNK A   0       4.715  -4.745  23.323  0.00  0.00    -0.264 OA
BRANCH  28  29
ATOM     29  C   UNK A   0       4.272  -6.070  23.070  0.00  0.00    +0.292 C 
ATOM     30  C   UNK A   0       2.735  -6.184  23.214  0.00  0.00    +0.202 C 
ATOM     31  C   UNK A   0       2.304  -6.210  24.698  0.00  0.00    +0.179 C 
ATOM     32  C   UNK A   0       3.156  -7.188  25.528  0.00  0.00    +0.174 C 
ATOM     33  C   UNK A   0       4.659  -7.009  25.273  0.00  0.00    +0.149 C 
ATOM     34  C   UNK A   0       5.270  -5.806  25.979  0.00  0.00    +0.041 C 
ATOM     35  O   UNK A   0       4.934  -7.049  23.872  0.00  0.00    -0.343 OA
BRANCH  32  36
ATOM     36  O   UNK A   0       2.770  -8.534  25.192  0.00  0.00    -0.387 OA
ATOM     37  H   UNK A   0       3.573  -9.089  25.234  0.00  0.00    +0.210 HD
ENDBRANCH  32  36
BRANCH  31  38
ATOM     38  O   UNK A   0       2.323  -4.912  25.297  0.00  0.00    -0.386 OA
ATOM     39  H   UNK A   0       3.220  -4.712  25.616  0.00  0.00    +0.210 HD
ENDBRANCH  31  38
BRANCH  30  40
ATOM     40  O   UNK A   0       2.276  -7.357  22.518  0.00  0.00    -0.384 OA
ATOM     41  H   UNK A   0       1.456  -7.138  22.040  0.00  0.00    +0.210 HD
ENDBRANCH  30  40
ENDBRANCH  28  29
ENDBRANCH  24  28
ENDBRANCH  22  24
ENDBRANCH   1  22
BRANCH   1  42
ATOM     42  C   UNK A   0       9.120  -3.512  24.446  0.00  0.00    +0.031 C 
BRANCH  42  44
ATOM     43  C   UNK A   0       8.790  -4.747  26.660  0.00  0.00    +0.007 C 
ATOM     44  C   UNK A   0       8.323  -3.598  25.768  0.00  0.00    -0.015 C 
ATOM     45  C   UNK A   0       8.405  -2.274  26.530  0.00  0.00    +0.007 C 
ENDBRANCH  42  44
ENDBRANCH   1  42
TORSDOF 16
ENDMDL
MODEL 8
REMARK VINA RESULT:      -6.3      1.290      2.175
REMARK  Name = 
REMARK  19 active torsions:
REMARK  status: ('A' for Active; 'I' for Inactive)
REMARK    1  A    between atoms: C_1  and  C_2
REMARK    2  A    between atoms: C_2  and  C_3
REMARK    3  A    between atoms: C_2  and  C_4
REMARK    4  A    between atoms: C_4  and  C_5
REMARK    5  A    between atoms: C_5  and  N_7
REMARK    6  A    between atoms: C_5  and  C_27
REMARK    7  A    between atoms: N_7  and  P_8
REMARK    8  A    between atoms: P_8  and  O_9
REMARK    9  A    between atoms: P_8  and  O_11
REMARK   10  A    between atoms: O_11  and  C_12
REMARK   11  A    between atoms: C_15  and  C_17
REMARK   12  A    between atoms: C_18  and  O_20
REMARK   13  A    between atoms: C_21  and  O_23
REMARK   14  A    between atoms: C_24  and  O_26
REMARK   15  A    between atoms: N_29  and  CA_30
REMARK   16  A    between atoms: CA_30  and  CB_32
REMARK   17  A    between atoms: CA_30  and  C_42
REMARK   18  A    between atoms: CB_32  and  CG_33
REMARK   19  A    between atoms: C_42  and  O_43
REMARK                            x       y       z     vdW  Elec       q    Type
REMARK                         _______ _______ _______ _____ _____    ______ ____
ROOT
ATOM      1  C   UNK A   0       8.324  -2.861  22.585  0.00  0.00    +0.150 C 
ENDROOT
BRANCH   1   2
ATOM      2  C   UNK A   0       8.628  -3.091  24.106  0.00  0.00    +0.231 C 
ATOM      3  N   TRP A   1       7.985  -2.207  24.930  0.00  0.00    -0.301 N 
ATOM      4  H   TRP A   1       7.381  -1.498  24.525  0.00  0.00    +0.150 HD
ATOM      5  O   UNK A   0       9.321  -4.021  24.532  0.00  0.00    -0.274 OA
BRANCH   3   6
ATOM      6  CA  TRP A   1       8.054  -2.201  26.393  0.00  0.00    +0.186 C 
BRANCH   6   7
ATOM      7  C   TRP A   1       8.484  -0.780  26.795  0.00  0.00    +0.326 C 
ATOM      8  OXT TRP A   1       7.935  -0.142  27.688  0.00  0.00    -0.249 OA
BRANCH   7   9
ATOM      9  O   TRP A   1       9.490  -0.248  26.064  0.00  0.00    -0.479 OA
ATOM     10  H   TRP A   1       9.505   0.725  26.015  0.00  0.00    +0.295 HD
ENDBRANCH   7   9
ENDBRANCH   6   7
BRANCH   6  11
ATOM     11  CB  TRP A   1       6.756  -2.620  27.110  0.00  0.00    +0.071 C 
BRANCH  11  12
ATOM     12  CG  TRP A   1       6.398  -4.066  26.948  0.00  0.00    -0.020 A 
ATOM     13  CD2 TRP A   1       5.116  -4.587  26.587  0.00  0.00    +0.003 A 
ATOM     14  CE2 TRP A   1       5.212  -5.977  26.582  0.00  0.00    +0.047 A 
ATOM     15  CZ2 TRP A   1       4.127  -6.811  26.292  0.00  0.00    +0.026 A 
ATOM     16  CH2 TRP A   1       2.900  -6.203  26.006  0.00  0.00    +0.002 A 
ATOM     17  CZ3 TRP A   1       2.773  -4.818  25.993  0.00  0.00    +0.001 A 
ATOM     18  NE1 TRP A   1       6.512  -6.292  26.900  0.00  0.00    -0.360 N 
ATOM     19  HE1 TRP A   1       6.873  -7.235  26.972  0.00  0.00    +0.165 HD
ATOM     20  CE3 TRP A   1       3.873  -4.003  26.269  0.00  0.00    +0.010 A 
ATOM     21  CD1 TRP A   1       7.240  -5.151  27.113  0.00  0.00    +0.087 A 
ENDBRANCH  11  12
ENDBRANCH   6  11
ENDBRANCH   3   6
ENDBRANCH   1   2
BRANCH   1  22
ATOM     22  N   UNK A   0       7.915  -1.474  22.358  0.00  0.00    -0.211 NA
ATOM     23  H   UNK A   0       7.132  -1.225  22.945  0.00  0.00    +0.134 HD
BRANCH  22  24
ATOM     24  P   UNK A   0       9.065  -0.330  22.284  0.00  0.00    +0.408 P 
ATOM     25  O   UNK A   0      10.216  -0.432  23.227  0.00  0.00    -0.240 OA
BRANCH  24  26
ATOM     26  O   UNK A   0       9.541  -0.467  20.761  0.00  0.00    -0.312 OA
ATOM     27  H   UNK A   0       9.795  -1.407  20.632  0.00  0.00    +0.221 HD
ENDBRANCH  24  26
BRANCH  24  28
ATOM     28  O   UNK A   0       8.291   1.081  22.289  0.00  0.00    -0.264 OA
BRANCH  28  29
ATOM     29  C   UNK A   0       7.222   1.215  23.214  0.00  0.00    +0.292 C 
ATOM     30  C   UNK A   0       6.173   2.238  22.713  0.00  0.00    +0.202 C 
ATOM     31  C   UNK A   0       6.661   3.692  22.906  0.00  0.00    +0.179 C 
ATOM     32  C   UNK A   0       7.244   3.923  24.312  0.00  0.00    +0.174 C 
ATOM     33  C   UNK A   0       8.240   2.826  24.716  0.00  0.00    +0.149 C 
ATOM     34  C   UNK A   0       9.613   2.967  24.074  0.00  0.00    +0.041 C 
ATOM     35  O   UNK A   0       7.655   1.534  24.536  0.00  0.00    -0.343 OA
BRANCH  32  36
ATOM     36  O   UNK A   0       6.160   3.957  25.259  0.00  0.00    -0.387 OA
ATOM     37  H   UNK A   0       6.306   3.233  25.899  0.00  0.00    +0.210 HD
ENDBRANCH  32  36
BRANCH  31  38
ATOM     38  O   UNK A   0       7.610   4.088  21.911  0.00  0.00    -0.386 OA
ATOM     39  H   UNK A   0       7.876   3.313  21.385  0.00  0.00    +0.210 HD
ENDBRANCH  31  38
BRANCH  30  40
ATOM     40  O   UNK A   0       4.925   2.014  23.394  0.00  0.00    -0.384 OA
ATOM     41  H   UNK A   0       4.986   2.387  24.292  0.00  0.00    +0.210 HD
ENDBRANCH  30  40
ENDBRANCH  28  29
ENDBRANCH  24  28
ENDBRANCH  22  24
ENDBRANCH   1  22
BRANCH   1  42
ATOM     42  C   UNK A   0       7.291  -3.873  22.040  0.00  0.00    +0.031 C 
BRANCH  42  44
ATOM     43  C   UNK A   0       4.897  -3.682  22.915  0.00  0.00    +0.007 C 
ATOM     44  C   UNK A   0       6.251  -4.373  23.069  0.00  0.00    -0.015 C 
ATOM     45  C   UNK A   0       6.082  -5.889  22.966  0.00  0.00    +0.007 C 
ENDBRANCH  42  44
ENDBRANCH   1  42
TORSDOF 16
ENDMDL
MODEL 9
REMARK VINA RESULT:      -6.2      3.137      7.502
REMARK  Name = 
REMARK  19 active torsions:
REMARK  status: ('A' for Active; 'I' for Inactive)
REMARK    1  A    between atoms: C_1  and  C_2
REMARK    2  A    between atoms: C_2  and  C_3
REMARK    3  A    between atoms: C_2  and  C_4
REMARK    4  A    between atoms: C_4  and  C_5
REMARK    5  A    between atoms: C_5  and  N_7
REMARK    6  A    between atoms: C_5  and  C_27
REMARK    7  A    between atoms: N_7  and  P_8
REMARK    8  A    between atoms: P_8  and  O_9
REMARK    9  A    between atoms: P_8  and  O_11
REMARK   10  A    between atoms: O_11  and  C_12
REMARK   11  A    between atoms: C_15  and  C_17
REMARK   12  A    between atoms: C_18  and  O_20
REMARK   13  A    between atoms: C_21  and  O_23
REMARK   14  A    between atoms: C_24  and  O_26
REMARK   15  A    between atoms: N_29  and  CA_30
REMARK   16  A    between atoms: CA_30  and  CB_32
REMARK   17  A    between atoms: CA_30  and  C_42
REMARK   18  A    between atoms: CB_32  and  CG_33
REMARK   19  A    between atoms: C_42  and  O_43
REMARK                            x       y       z     vdW  Elec       q    Type
REMARK                         _______ _______ _______ _____ _____    ______ ____
ROOT
ATOM      1  C   UNK A   0       8.188  -2.489  25.347  0.00  0.00    +0.150 C 
ENDROOT
BRANCH   1   2
ATOM      2  C   UNK A   0       7.559  -1.307  26.163  0.00  0.00    +0.231 C 
ATOM      3  N   TRP A   1       6.302  -0.964  25.744  0.00  0.00    -0.301 N 
ATOM      4  H   TRP A   1       5.878  -1.472  24.973  0.00  0.00    +0.150 HD
ATOM      5  O   UNK A   0       8.106  -0.781  27.138  0.00  0.00    -0.274 OA
BRANCH   3   6
ATOM      6  CA  TRP A   1       5.459   0.077  26.338  0.00  0.00    +0.186 C 
BRANCH   6   7
ATOM      7  C   TRP A   1       5.346  -0.267  27.833  0.00  0.00    +0.326 C 
ATOM      8  OXT TRP A   1       4.706  -1.227  28.253  0.00  0.00    -0.249 OA
BRANCH   7   9
ATOM      9  O   TRP A   1       5.965   0.591  28.676  0.00  0.00    -0.479 OA
ATOM     10  H   TRP A   1       5.513   1.443  28.815  0.00  0.00    +0.295 HD
ENDBRANCH   7   9
ENDBRANCH   6   7
BRANCH   6  11
ATOM     11  CB  TRP A   1       5.957   1.519  26.128  0.00  0.00    +0.071 C 
BRANCH  11  12
ATOM     12  CG  TRP A   1       6.371   1.833  24.723  0.00  0.00    -0.020 A 
ATOM     13  CD2 TRP A   1       7.711   1.892  24.227  0.00  0.00    +0.003 A 
ATOM     14  CE2 TRP A   1       7.647   2.248  22.881  0.00  0.00    +0.047 A 
ATOM     15  CZ2 TRP A   1       8.787   2.420  22.087  0.00  0.00    +0.026 A 
ATOM     16  CH2 TRP A   1      10.033   2.228  22.693  0.00  0.00    +0.002 A 
ATOM     17  CZ3 TRP A   1      10.132   1.863  24.031  0.00  0.00    +0.001 A 
ATOM     18  NE1 TRP A   1       6.316   2.375  22.561  0.00  0.00    -0.360 N 
ATOM     19  HE1 TRP A   1       5.968   2.628  21.645  0.00  0.00    +0.165 HD
ATOM     20  CE3 TRP A   1       8.981   1.680  24.802  0.00  0.00    +0.010 A 
ATOM     21  CD1 TRP A   1       5.536   2.118  23.658  0.00  0.00    +0.087 A 
ENDBRANCH  11  12
ENDBRANCH   6  11
ENDBRANCH   3   6
ENDBRANCH   1   2
BRANCH   1  22
ATOM     22  N   UNK A   0       8.504  -3.605  26.241  0.00  0.00    -0.211 NA
ATOM     23  H   UNK A   0       8.065  -3.484  27.141  0.00  0.00    +0.134 HD
BRANCH  22  24
ATOM     24  P   UNK A   0       8.397  -5.116  25.658  0.00  0.00    +0.408 P 
ATOM     25  O   UNK A   0       9.516  -5.621  24.811  0.00  0.00    -0.240 OA
BRANCH  24  26
ATOM     26  O   UNK A   0       8.258  -5.962  27.011  0.00  0.00    -0.312 OA
ATOM     27  H   UNK A   0       7.440  -5.646  27.454  0.00  0.00    +0.221 HD
ENDBRANCH  24  26
BRANCH  24  28
ATOM     28  O   UNK A   0       6.929  -5.241  25.008  0.00  0.00    -0.264 OA
BRANCH  28  29
ATOM     29  C   UNK A   0       5.830  -5.178  25.906  0.00  0.00    +0.292 C 
ATOM     30  C   UNK A   0       4.982  -6.471  25.843  0.00  0.00    +0.202 C 
ATOM     31  C   UNK A   0       4.087  -6.503  24.583  0.00  0.00    +0.179 C 
ATOM     32  C   UNK A   0       3.345  -5.171  24.370  0.00  0.00    +0.174 C 
ATOM     33  C   UNK A   0       4.278  -3.958  24.494  0.00  0.00    +0.149 C 
ATOM     34  C   UNK A   0       5.153  -3.719  23.271  0.00  0.00    +0.041 C 
ATOM     35  O   UNK A   0       5.014  -4.022  25.718  0.00  0.00    -0.343 OA
BRANCH  32  36
ATOM     36  O   UNK A   0       2.294  -5.068  25.349  0.00  0.00    -0.387 OA
ATOM     37  H   UNK A   0       1.452  -5.278  24.899  0.00  0.00    +0.210 HD
ENDBRANCH  32  36
BRANCH  31  38
ATOM     38  O   UNK A   0       4.815  -6.852  23.403  0.00  0.00    -0.386 OA
ATOM     39  H   UNK A   0       5.344  -6.092  23.106  0.00  0.00    +0.210 HD
ENDBRANCH  31  38
BRANCH  30  40
ATOM     40  O   UNK A   0       4.195  -6.584  27.042  0.00  0.00    -0.384 OA
ATOM     41  H   UNK A   0       4.320  -7.475  27.418  0.00  0.00    +0.210 HD
ENDBRANCH  30  40
ENDBRANCH  28  29
ENDBRANCH  24  28
ENDBRANCH  22  24
ENDBRANCH   1  22
BRANCH   1  42
ATOM     42  C   UNK A   0       9.412  -2.036  24.520  0.00  0.00    +0.031 C 
BRANCH  42  44
ATOM     43  C   UNK A   0       7.912  -1.406  22.547  0.00  0.00    +0.007 C 
ATOM     44  C   UNK A   0       9.218  -2.066  22.986  0.00  0.00    -0.015 C 
ATOM     45  C   UNK A   0      10.404  -1.402  22.284  0.00  0.00    +0.007 C 
ENDBRANCH  42  44
ENDBRANCH   1  42
TORSDOF 16
ENDMDL
