MODEL 1
REMARK VINA RESULT:      -4.7      0.000      0.000
REMARK  Name = 
REMARK  2 active torsions:
REMARK  status: ('A' for Active; 'I' for Inactive)
REMARK    1  A    between atoms: O_1  and  C_2
REMARK    2  A    between atoms: C_2  and  C_3
REMARK                            x       y       z     vdW  Elec       q    Type
REMARK                         _______ _______ _______ _____ _____    ______ ____
ROOT
ATOM      1  C   UNL     1      10.204   1.201  23.115  0.00  0.00    +0.016 A 
ATOM      2  C   UNL     1      10.408   0.026  23.843  0.00  0.00    +0.164 A 
ATOM      3  F   UNL     1      10.925   0.092  25.081  0.00  0.00    -0.202 F 
ATOM      4  C   UNL     1      10.085  -1.214  23.301  0.00  0.00    +0.159 A 
ATOM      5  F   UNL     1      10.277  -2.332  24.017  0.00  0.00    -0.202 F 
ATOM      6  C   UNL     1       9.564  -1.312  22.016  0.00  0.00    +0.041 A 
ATOM      7  C   UNL     1       9.372  -0.152  21.266  0.00  0.00    +0.003 A 
ATOM      8  C   UNL     1       9.697   1.095  21.810  0.00  0.00    +0.009 A 
ENDROOT
BRANCH   1   9
ATOM      9  C   UNL     1      10.584   2.522  23.719  0.00  0.00    +0.194 C 
BRANCH   9  10
ATOM     10  O   UNL     1      10.932   3.455  22.701  0.00  0.00    -0.390 OA
ATOM     11  H   UNL     1      11.883   3.630  22.800  0.00  0.00    +0.210 HD
ENDBRANCH   9  10
ENDBRANCH   1   9
TORSDOF 2
ENDMDL
MODEL 2
REMARK VINA RESULT:      -4.6      2.383      3.405
REMARK  Name = 
REMARK  2 active torsions:
REMARK  status: ('A' for Active; 'I' for Inactive)
REMARK    1  A    between atoms: O_1  and  C_2
REMARK    2  A    between atoms: C_2  and  C_3
REMARK                            x       y       z     vdW  Elec       q    Type
REMARK                         _______ _______ _______ _____ _____    ______ ____
ROOT
ATOM      1  C   UNL     1       9.644  -0.745  23.517  0.00  0.00    +0.016 A 
ATOM      2  C   UNL     1      10.285   0.371  24.062  0.00  0.00    +0.164 A 
ATOM      3  F   UNL     1      10.745   0.324  25.322  0.00  0.00    -0.202 F 
ATOM      4  C   UNL     1      10.451   1.533  23.315  0.00  0.00    +0.159 A 
ATOM      5  F   UNL     1      11.078   2.591  23.848  0.00  0.00    -0.202 F 
ATOM      6  C   UNL     1       9.969   1.614  22.014  0.00  0.00    +0.041 A 
ATOM      7  C   UNL     1       9.309   0.517  21.459  0.00  0.00    +0.003 A 
ATOM      8  C   UNL     1       9.142  -0.652  22.210  0.00  0.00    +0.009 A 
ENDROOT
BRANCH   1   9
ATOM      9  C   UNL     1       9.460  -1.977  24.356  0.00  0.00    +0.194 C 
BRANCH   9  10
ATOM     10  O   UNL     1      10.234  -3.054  23.839  0.00  0.00    -0.390 OA
ATOM     11  H   UNL     1      10.908  -3.257  24.509  0.00  0.00    +0.210 HD
ENDBRANCH   9  10
ENDBRANCH   1   9
TORSDOF 2
ENDMDL
MODEL 3
REMARK VINA RESULT:      -4.5      2.927      4.155
REMARK  Name = 
REMARK  2 active torsions:
REMARK  status: ('A' for Active; 'I' for Inactive)
REMARK    1  A    between atoms: O_1  and  C_2
REMARK    2  A    between atoms: C_2  and  C_3
REMARK                            x       y       z     vdW  Elec       q    Type
REMARK                         _______ _______ _______ _____ _____    ______ ____
ROOT
ATOM      1  C   UNL     1       9.663  -1.061  23.485  0.00  0.00    +0.016 A 
ATOM      2  C   UNL     1       9.760  -0.194  22.393  0.00  0.00    +0.164 A 
ATOM      3  F   UNL     1       9.467  -0.641  21.162  0.00  0.00    -0.202 F 
ATOM      4  C   UNL     1      10.159   1.128  22.565  0.00  0.00    +0.159 A 
ATOM      5  F   UNL     1      10.235   1.949  21.508  0.00  0.00    -0.202 F 
ATOM      6  C   UNL     1      10.483   1.611  23.827  0.00  0.00    +0.041 A 
ATOM      7  C   UNL     1      10.413   0.757  24.927  0.00  0.00    +0.003 A 
ATOM      8  C   UNL     1      10.012  -0.573  24.755  0.00  0.00    +0.009 A 
ENDROOT
BRANCH   1   9
ATOM      9  C   UNL     1       9.252  -2.488  23.265  0.00  0.00    +0.194 C 
BRANCH   9  10
ATOM     10  O   UNL     1      10.022  -3.362  24.083  0.00  0.00    -0.390 OA
ATOM     11  H   UNL     1      10.498  -2.799  24.717  0.00  0.00    +0.210 HD
ENDBRANCH   9  10
ENDBRANCH   1   9
TORSDOF 2
ENDMDL
MODEL 4
REMARK VINA RESULT:      -4.4      2.152      3.311
REMARK  Name = 
REMARK  2 active torsions:
REMARK  status: ('A' for Active; 'I' for Inactive)
REMARK    1  A    between atoms: O_1  and  C_2
REMARK    2  A    between atoms: C_2  and  C_3
REMARK                            x       y       z     vdW  Elec       q    Type
REMARK                         _______ _______ _______ _____ _____    ______ ____
ROOT
ATOM      1  C   UNL     1       9.527  -0.546  22.304  0.00  0.00    +0.016 A 
ATOM      2  C   UNL     1      10.112  -0.543  23.572  0.00  0.00    +0.164 A 
ATOM      3  F   UNL     1      10.170  -1.683  24.280  0.00  0.00    -0.202 F 
ATOM      4  C   UNL     1      10.636   0.627  24.114  0.00  0.00    +0.159 A 
ATOM      5  F   UNL     1      11.204   0.610  25.328  0.00  0.00    -0.202 F 
ATOM      6  C   UNL     1      10.575   1.823  23.409  0.00  0.00    +0.041 A 
ATOM      7  C   UNL     1       9.976   1.845  22.150  0.00  0.00    +0.003 A 
ATOM      8  C   UNL     1       9.450   0.669  21.604  0.00  0.00    +0.009 A 
ENDROOT
BRANCH   1   9
ATOM      9  C   UNL     1       8.951  -1.820  21.755  0.00  0.00    +0.194 C 
BRANCH   9  10
ATOM     10  O   UNL     1       7.689  -2.095  22.354  0.00  0.00    -0.390 OA
ATOM     11  H   UNL     1       7.566  -1.433  23.055  0.00  0.00    +0.210 HD
ENDBRANCH   9  10
ENDBRANCH   1   9
TORSDOF 2
ENDMDL
MODEL 5
REMARK VINA RESULT:      -4.4      2.897      3.936
REMARK  Name = 
REMARK  2 active torsions:
REMARK  status: ('A' for Active; 'I' for Inactive)
REMARK    1  A    between atoms: O_1  and  C_2
REMARK    2  A    between atoms: C_2  and  C_3
REMARK                            x       y       z     vdW  Elec       q    Type
REMARK                         _______ _______ _______ _____ _____    ______ ____
ROOT
ATOM      1  C   UNL     1       9.607  -0.789  23.898  0.00  0.00    +0.016 A 
ATOM      2  C   UNL     1       9.147  -0.509  22.609  0.00  0.00    +0.164 A 
ATOM      3  F   UNL     1       8.456  -1.441  21.933  0.00  0.00    -0.202 F 
ATOM      4  C   UNL     1       9.397   0.724  22.015  0.00  0.00    +0.159 A 
ATOM      5  F   UNL     1       8.938   0.981  20.781  0.00  0.00    -0.202 F 
ATOM      6  C   UNL     1      10.123   1.700  22.686  0.00  0.00    +0.041 A 
ATOM      7  C   UNL     1      10.609   1.432  23.966  0.00  0.00    +0.003 A 
ATOM      8  C   UNL     1      10.358   0.192  24.564  0.00  0.00    +0.009 A 
ENDROOT
BRANCH   1   9
ATOM      9  C   UNL     1       9.341  -2.137  24.504  0.00  0.00    +0.194 C 
BRANCH   9  10
ATOM     10  O   UNL     1      10.201  -3.119  23.936  0.00  0.00    -0.390 OA
ATOM     11  H   UNL     1      10.789  -3.417  24.650  0.00  0.00    +0.210 HD
ENDBRANCH   9  10
ENDBRANCH   1   9
TORSDOF 2
ENDMDL
MODEL 6
REMARK VINA RESULT:      -4.3      1.856      2.505
REMARK  Name = 
REMARK  2 active torsions:
REMARK  status: ('A' for Active; 'I' for Inactive)
REMARK    1  A    between atoms: O_1  and  C_2
REMARK    2  A    between atoms: C_2  and  C_3
REMARK                            x       y       z     vdW  Elec       q    Type
REMARK                         _______ _______ _______ _____ _____    ______ ____
ROOT
ATOM      1  C   UNL     1      10.012   0.862  23.021  0.00  0.00    +0.016 A 
ATOM      2  C   UNL     1       9.658  -0.364  22.452  0.00  0.00    +0.164 A 
ATOM      3  F   UNL     1       9.569  -0.476  21.117  0.00  0.00    -0.202 F 
ATOM      4  C   UNL     1       9.396  -1.472  23.252  0.00  0.00    +0.159 A 
ATOM      5  F   UNL     1       9.069  -2.644  22.689  0.00  0.00    -0.202 F 
ATOM      6  C   UNL     1       9.466  -1.379  24.636  0.00  0.00    +0.041 A 
ATOM      7  C   UNL     1       9.797  -0.158  25.224  0.00  0.00    +0.003 A 
ATOM      8  C   UNL     1      10.061   0.956  24.421  0.00  0.00    +0.009 A 
ENDROOT
BRANCH   1   9
ATOM      9  C   UNL     1      10.267   2.046  22.133  0.00  0.00    +0.194 C 
BRANCH   9  10
ATOM     10  O   UNL     1       9.046   2.533  21.586  0.00  0.00    -0.390 OA
ATOM     11  H   UNL     1       9.212   2.697  20.643  0.00  0.00    +0.210 HD
ENDBRANCH   9  10
ENDBRANCH   1   9
TORSDOF 2
ENDMDL
MODEL 7
REMARK VINA RESULT:      -4.3      4.543      5.487
REMARK  Name = 
REMARK  2 active torsions:
REMARK  status: ('A' for Active; 'I' for Inactive)
REMARK    1  A    between atoms: O_1  and  C_2
REMARK    2  A    between atoms: C_2  and  C_3
REMARK                            x       y       z     vdW  Elec       q    Type
REMARK                         _______ _______ _______ _____ _____    ______ ____
ROOT
ATOM      1  C   UNL     1       9.010  -3.784  24.433  0.00  0.00    +0.016 A 
ATOM      2  C   UNL     1       7.916  -4.046  23.604  0.00  0.00    +0.164 A 
ATOM      3  F   UNL     1       7.113  -5.087  23.873  0.00  0.00    -0.202 F 
ATOM      4  C   UNL     1       7.649  -3.240  22.501  0.00  0.00    +0.159 A 
ATOM      5  F   UNL     1       6.588  -3.498  21.722  0.00  0.00    -0.202 F 
ATOM      6  C   UNL     1       8.474  -2.166  22.191  0.00  0.00    +0.041 A 
ATOM      7  C   UNL     1       9.583  -1.901  22.995  0.00  0.00    +0.003 A 
ATOM      8  C   UNL     1       9.853  -2.710  24.104  0.00  0.00    +0.009 A 
ENDROOT
BRANCH   1   9
ATOM      9  C   UNL     1       9.286  -4.684  25.603  0.00  0.00    +0.194 C 
BRANCH   9  10
ATOM     10  O   UNL     1      10.165  -5.739  25.226  0.00  0.00    -0.390 OA
ATOM     11  H   UNL     1       9.864  -6.050  24.356  0.00  0.00    +0.210 HD
ENDBRANCH   9  10
ENDBRANCH   1   9
TORSDOF 2
ENDMDL
MODEL 8
REMARK VINA RESULT:      -4.3      1.551      2.012
REMARK  Name = 
REMARK  2 active torsions:
REMARK  status: ('A' for Active; 'I' for Inactive)
REMARK    1  A    between atoms: O_1  and  C_2
REMARK    2  A    between atoms: C_2  and  C_3
REMARK                            x       y       z     vdW  Elec       q    Type
REMARK                         _______ _______ _______ _____ _____    ______ ____
ROOT
ATOM      1  C   UNL     1       9.430   0.522  22.588  0.00  0.00    +0.016 A 
ATOM      2  C   UNL     1       9.415   0.557  23.985  0.00  0.00    +0.164 A 
ATOM      3  F   UNL     1       9.206   1.722  24.619  0.00  0.00    -0.202 F 
ATOM      4  C   UNL     1       9.617  -0.601  24.730  0.00  0.00    +0.159 A 
ATOM      5  F   UNL     1       9.588  -0.552  26.069  0.00  0.00    -0.202 F 
ATOM      6  C   UNL     1       9.852  -1.817  24.099  0.00  0.00    +0.041 A 
ATOM      7  C   UNL     1       9.891  -1.869  22.706  0.00  0.00    +0.003 A 
ATOM      8  C   UNL     1       9.688  -0.705  21.956  0.00  0.00    +0.009 A 
ENDROOT
BRANCH   1   9
ATOM      9  C   UNL     1       9.232   1.793  21.813  0.00  0.00    +0.194 C 
BRANCH   9  10
ATOM     10  O   UNL     1      10.472   2.471  21.640  0.00  0.00    -0.390 OA
ATOM     11  H   UNL     1      10.937   2.016  20.919  0.00  0.00    +0.210 HD
ENDBRANCH   9  10
ENDBRANCH   1   9
TORSDOF 2
ENDMDL
MODEL 9
REMARK VINA RESULT:      -4.2      2.304      2.854
REMARK  Name = 
REMARK  2 active torsions:
REMARK  status: ('A' for Active; 'I' for Inactive)
REMARK    1  A    between atoms: O_1  and  C_2
REMARK    2  A    between atoms: C_2  and  C_3
REMARK                            x       y       z     vdW  Elec       q    Type
REMARK                         _______ _______ _______ _____ _____    ______ ____
ROOT
ATOM      1  C   UNL     1       9.574   2.350  23.464  0.00  0.00    +0.016 A 
ATOM      2  C   UNL     1       9.223   1.744  22.255  0.00  0.00    +0.164 A 
ATOM      3  F   UNL     1       8.463   2.410  21.373  0.00  0.00    -0.202 F 
ATOM      4  C   UNL     1       9.652   0.454  21.954  0.00  0.00    +0.159 A 
ATOM      5  F   UNL     1       9.316  -0.109  20.785  0.00  0.00    -0.202 F 
ATOM      6  C   UNL     1      10.426  -0.264  22.857  0.00  0.00    +0.041 A 
ATOM      7  C   UNL     1      10.769   0.317  24.078  0.00  0.00    +0.003 A 
ATOM      8  C   UNL     1      10.339   1.613  24.382  0.00  0.00    +0.009 A 
ENDROOT
BRANCH   1   9
ATOM      9  C   UNL     1       9.077   3.734  23.770  0.00  0.00    +0.194 C 
BRANCH   9  10
ATOM     10  O   UNL     1       9.954   4.712  23.221  0.00  0.00    -0.390 OA
ATOM     11  H   UNL     1      10.852   4.350  23.296  0.00  0.00    +0.210 HD
ENDBRANCH   9  10
ENDBRANCH   1   9
TORSDOF 2
ENDMDL
