MODEL 1
REMARK VINA RESULT:      -7.8      0.000      0.000
REMARK  Name = 
REMARK  7 active torsions:
REMARK  status: ('A' for Active; 'I' for Inactive)
REMARK    1  A    between atoms: C_2  and  C_3
REMARK    2  A    between atoms: C_3  and  N_4
REMARK    3  A    between atoms: N_4  and  S_5
REMARK    4  A    between atoms: S_5  and  C_8
REMARK    5  A    between atoms: C_19  and  O_23
REMARK    6  A    between atoms: O_23  and  C_24
REMARK    7  A    between atoms: C_24  and  C_25
REMARK                            x       y       z     vdW  Elec       q    Type
REMARK                         _______ _______ _______ _____ _____    ______ ____
ROOT
ATOM      1  C   UNL     1       8.556  -4.672  26.679  0.00  0.00    +0.124 C 
ENDROOT
BRANCH   1   2
ATOM      2  C   UNL     1       9.293  -4.801  25.325  0.00  0.00    +0.072 C 
ATOM      3  N   UNL     1       8.512  -5.577  24.338  0.00  0.00    -0.309 NA
ATOM      4  H   UNL     1       9.136  -6.221  23.849  0.00  0.00    +0.122 HD
ATOM      5  C   UNL     1       7.971  -4.629  23.351  0.00  0.00    +0.112 C 
ATOM      6  C   UNL     1       8.286  -3.215  23.838  0.00  0.00    +0.134 C 
ATOM      7  C   UNL     1       9.529  -3.439  24.684  0.00  0.00    +0.053 C 
BRANCH   6   8
ATOM      8  O   UNL     1       8.590  -2.297  22.795  0.00  0.00    -0.371 OA
BRANCH   8   9
ATOM      9  C   UNL     1       9.968  -1.925  22.767  0.00  0.00    +0.195 C 
BRANCH   9  10
ATOM     10  C   UNL     1      10.081  -0.433  22.955  0.00  0.00    -0.022 A 
ATOM     11  C   UNL     1       9.821   0.446  21.893  0.00  0.00    +0.007 A 
ATOM     12  C   UNL     1       9.946   1.827  22.068  0.00  0.00    +0.020 A 
ATOM     13  C   UNL     1      10.335   2.337  23.306  0.00  0.00    +0.041 A 
ATOM     14 CL   UNL     1      10.484   4.036  23.521  0.00  0.00    -0.084 Cl
ATOM     15  C   UNL     1      10.605   1.477  24.368  0.00  0.00    +0.020 A 
ATOM     16  C   UNL     1      10.480   0.098  24.192  0.00  0.00    +0.007 A 
ENDBRANCH   9  10
ENDBRANCH   8   9
ENDBRANCH   6   8
ENDBRANCH   1   2
BRANCH   1  17
ATOM     17  N   UNL     1       7.857  -5.921  27.020  0.00  0.00    -0.188 NA
ATOM     18  H   UNL     1       8.406  -6.701  27.377  0.00  0.00    +0.148 HD
BRANCH  17  19
ATOM     19  S   UNL     1       6.329  -5.819  27.698  0.00  0.00    +0.059 S 
ATOM     20  O   UNL     1       6.497  -5.279  29.031  0.00  0.00    -0.153 OA
ATOM     21  O   UNL     1       5.685  -7.097  27.495  0.00  0.00    -0.153 OA
BRANCH  19  22
ATOM     22  C   UNL     1       5.507  -4.602  26.684  0.00  0.00    +0.113 A 
ATOM     23  C   UNL     1       4.985  -4.912  25.398  0.00  0.00    +0.011 A 
ATOM     24  C   UNL     1       4.330  -3.871  24.697  0.00  0.00    +0.002 A 
ATOM     25  C   UNL     1       3.799  -4.151  23.435  0.00  0.00    +0.119 A 
ATOM     26  N   UNL     1       3.865  -5.350  22.818  0.00  0.00    -0.263 NA
ATOM     27  C   UNL     1       4.494  -6.331  23.490  0.00  0.00    +0.111 A 
ATOM     28  C   UNL     1       4.214  -2.586  25.257  0.00  0.00    +0.010 A 
ATOM     29  C   UNL     1       4.737  -2.306  26.515  0.00  0.00    +0.003 A 
ATOM     30  C   UNL     1       5.060  -6.165  24.747  0.00  0.00    +0.030 A 
ATOM     31  C   UNL     1       5.378  -3.312  27.230  0.00  0.00    +0.029 A 
ENDBRANCH  19  22
ENDBRANCH  17  19
ENDBRANCH   1  17
TORSDOF 7
ENDMDL
MODEL 2
REMARK VINA RESULT:      -7.7      1.322      2.209
REMARK  Name = 
REMARK  7 active torsions:
REMARK  status: ('A' for Active; 'I' for Inactive)
REMARK    1  A    between atoms: C_2  and  C_3
REMARK    2  A    between atoms: C_3  and  N_4
REMARK    3  A    between atoms: N_4  and  S_5
REMARK    4  A    between atoms: S_5  and  C_8
REMARK    5  A    between atoms: C_19  and  O_23
REMARK    6  A    between atoms: O_23  and  C_24
REMARK    7  A    between atoms: C_24  and  C_25
REMARK                            x       y       z     vdW  Elec       q    Type
REMARK                         _______ _______ _______ _____ _____    ______ ____
ROOT
ATOM      1  C   UNL     1       7.899  -4.828  26.884  0.00  0.00    +0.124 C 
ENDROOT
BRANCH   1   2
ATOM      2  C   UNL     1       8.361  -5.203  25.455  0.00  0.00    +0.072 C 
ATOM      3  N   UNL     1       7.373  -4.803  24.430  0.00  0.00    -0.309 NA
ATOM      4  H   UNL     1       7.271  -5.560  23.751  0.00  0.00    +0.122 HD
ATOM      5  C   UNL     1       7.912  -3.629  23.724  0.00  0.00    +0.112 C 
ATOM      6  C   UNL     1       9.185  -3.192  24.448  0.00  0.00    +0.134 C 
ATOM      7  C   UNL     1       9.655  -4.492  25.081  0.00  0.00    +0.053 C 
BRANCH   6   8
ATOM      8  O   UNL     1      10.202  -2.698  23.584  0.00  0.00    -0.371 OA
BRANCH   8   9
ATOM      9  C   UNL     1       9.684  -1.930  22.499  0.00  0.00    +0.195 C 
BRANCH   9  10
ATOM     10  C   UNL     1       9.944  -0.468  22.760  0.00  0.00    -0.022 A 
ATOM     11  C   UNL     1       9.694   0.494  21.769  0.00  0.00    +0.007 A 
ATOM     12  C   UNL     1       9.956   1.845  22.010  0.00  0.00    +0.020 A 
ATOM     13  C   UNL     1      10.471   2.243  23.243  0.00  0.00    +0.041 A 
ATOM     14 CL   UNL     1      10.788   3.907  23.540  0.00  0.00    -0.084 Cl
ATOM     15  C   UNL     1      10.732   1.300  24.235  0.00  0.00    +0.020 A 
ATOM     16  C   UNL     1      10.470  -0.050  23.993  0.00  0.00    +0.007 A 
ENDBRANCH   9  10
ENDBRANCH   8   9
ENDBRANCH   6   8
ENDBRANCH   1   2
BRANCH   1  17
ATOM     17  N   UNL     1       7.565  -6.030  27.663  0.00  0.00    -0.188 NA
ATOM     18  H   UNL     1       8.290  -6.449  28.244  0.00  0.00    +0.148 HD
BRANCH  17  19
ATOM     19  S   UNL     1       6.032  -6.148  28.327  0.00  0.00    +0.059 S 
ATOM     20  O   UNL     1       5.888  -5.041  29.249  0.00  0.00    -0.153 OA
ATOM     21  O   UNL     1       5.865  -7.511  28.779  0.00  0.00    -0.153 OA
BRANCH  19  22
ATOM     22  C   UNL     1       4.954  -5.877  26.930  0.00  0.00    +0.113 A 
ATOM     23  C   UNL     1       4.296  -4.636  26.709  0.00  0.00    +0.011 A 
ATOM     24  C   UNL     1       3.486  -4.531  25.552  0.00  0.00    +0.002 A 
ATOM     25  C   UNL     1       2.835  -3.320  25.305  0.00  0.00    +0.119 A 
ATOM     26  N   UNL     1       2.912  -2.227  26.093  0.00  0.00    -0.263 NA
ATOM     27  C   UNL     1       3.680  -2.339  27.191  0.00  0.00    +0.111 A 
ATOM     28  C   UNL     1       3.340  -5.619  24.672  0.00  0.00    +0.010 A 
ATOM     29  C   UNL     1       3.991  -6.824  24.914  0.00  0.00    +0.003 A 
ATOM     30  C   UNL     1       4.369  -3.494  27.537  0.00  0.00    +0.030 A 
ATOM     31  C   UNL     1       4.800  -6.953  26.037  0.00  0.00    +0.029 A 
ENDBRANCH  19  22
ENDBRANCH  17  19
ENDBRANCH   1  17
TORSDOF 7
ENDMDL
MODEL 3
REMARK VINA RESULT:      -7.6      2.025      2.506
REMARK  Name = 
REMARK  7 active torsions:
REMARK  status: ('A' for Active; 'I' for Inactive)
REMARK    1  A    between atoms: C_2  and  C_3
REMARK    2  A    between atoms: C_3  and  N_4
REMARK    3  A    between atoms: N_4  and  S_5
REMARK    4  A    between atoms: S_5  and  C_8
REMARK    5  A    between atoms: C_19  and  O_23
REMARK    6  A    between atoms: O_23  and  C_24
REMARK    7  A    between atoms: C_24  and  C_25
REMARK                            x       y       z     vdW  Elec       q    Type
REMARK                         _______ _______ _______ _____ _____    ______ ____
ROOT
ATOM      1  C   UNL     1       6.489  -4.867  26.776  0.00  0.00    +0.124 C 
ENDROOT
BRANCH   1   2
ATOM      2  C   UNL     1       8.021  -4.763  26.959  0.00  0.00    +0.072 C 
ATOM      3  N   UNL     1       8.736  -5.882  26.309  0.00  0.00    -0.309 NA
ATOM      4  H   UNL     1       9.471  -6.219  26.934  0.00  0.00    +0.122 HD
ATOM      5  C   UNL     1       9.378  -5.356  25.093  0.00  0.00    +0.112 C 
ATOM      6  C   UNL     1       8.906  -3.916  24.901  0.00  0.00    +0.134 C 
ATOM      7  C   UNL     1       8.576  -3.495  26.324  0.00  0.00    +0.053 C 
BRANCH   6   8
ATOM      8  O   UNL     1       9.900  -3.045  24.374  0.00  0.00    -0.371 OA
BRANCH   8   9
ATOM      9  C   UNL     1       9.500  -2.418  23.156  0.00  0.00    +0.195 C 
BRANCH   9  10
ATOM     10  C   UNL     1       9.817  -0.946  23.230  0.00  0.00    -0.022 A 
ATOM     11  C   UNL     1      10.123  -0.339  24.458  0.00  0.00    +0.007 A 
ATOM     12  C   UNL     1      10.397   1.030  24.523  0.00  0.00    +0.020 A 
ATOM     13  C   UNL     1      10.364   1.801  23.362  0.00  0.00    +0.041 A 
ATOM     14 CL   UNL     1      10.706   3.484  23.444  0.00  0.00    -0.084 Cl
ATOM     15  C   UNL     1      10.054   1.215  22.137  0.00  0.00    +0.020 A 
ATOM     16  C   UNL     1       9.781  -0.153  22.072  0.00  0.00    +0.007 A 
ENDBRANCH   9  10
ENDBRANCH   8   9
ENDBRANCH   6   8
ENDBRANCH   1   2
BRANCH   1  17
ATOM     17  N   UNL     1       5.797  -3.782  27.488  0.00  0.00    -0.188 NA
ATOM     18  H   UNL     1       6.349  -3.155  28.071  0.00  0.00    +0.148 HD
BRANCH  17  19
ATOM     19  S   UNL     1       4.512  -3.022  26.728  0.00  0.00    +0.059 S 
ATOM     20  O   UNL     1       4.118  -1.916  27.576  0.00  0.00    -0.153 OA
ATOM     21  O   UNL     1       3.562  -4.049  26.365  0.00  0.00    -0.153 OA
BRANCH  19  22
ATOM     22  C   UNL     1       5.242  -2.370  25.235  0.00  0.00    +0.113 A 
ATOM     23  C   UNL     1       5.314  -3.126  24.032  0.00  0.00    +0.011 A 
ATOM     24  C   UNL     1       5.891  -2.493  22.905  0.00  0.00    +0.002 A 
ATOM     25  C   UNL     1       5.966  -3.209  21.707  0.00  0.00    +0.119 A 
ATOM     26  N   UNL     1       5.530  -4.475  21.536  0.00  0.00    -0.263 NA
ATOM     27  C   UNL     1       4.988  -5.069  22.614  0.00  0.00    +0.111 A 
ATOM     28  C   UNL     1       6.377  -1.176  22.987  0.00  0.00    +0.010 A 
ATOM     29  C   UNL     1       6.299  -0.459  24.176  0.00  0.00    +0.003 A 
ATOM     30  C   UNL     1       4.866  -4.454  23.853  0.00  0.00    +0.030 A 
ATOM     31  C   UNL     1       5.729  -1.052  25.297  0.00  0.00    +0.029 A 
ENDBRANCH  19  22
ENDBRANCH  17  19
ENDBRANCH   1  17
TORSDOF 7
ENDMDL
MODEL 4
REMARK VINA RESULT:      -7.4      2.186      3.512
REMARK  Name = 
REMARK  7 active torsions:
REMARK  status: ('A' for Active; 'I' for Inactive)
REMARK    1  A    between atoms: C_2  and  C_3
REMARK    2  A    between atoms: C_3  and  N_4
REMARK    3  A    between atoms: N_4  and  S_5
REMARK    4  A    between atoms: S_5  and  C_8
REMARK    5  A    between atoms: C_19  and  O_23
REMARK    6  A    between atoms: O_23  and  C_24
REMARK    7  A    between atoms: C_24  and  C_25
REMARK                            x       y       z     vdW  Elec       q    Type
REMARK                         _______ _______ _______ _____ _____    ______ ____
ROOT
ATOM      1  C   UNL     1       7.946  -2.428  24.828  0.00  0.00    +0.124 C 
ENDROOT
BRANCH   1   2
ATOM      2  C   UNL     1       9.254  -1.659  24.523  0.00  0.00    +0.072 C 
ATOM      3  N   UNL     1       9.999  -2.258  23.396  0.00  0.00    -0.309 NA
ATOM      4  H   UNL     1      10.994  -2.287  23.630  0.00  0.00    +0.122 HD
ATOM      5  C   UNL     1       9.833  -1.374  22.230  0.00  0.00    +0.112 C 
ATOM      6  C   UNL     1       8.819  -0.293  22.604  0.00  0.00    +0.134 C 
ATOM      7  C   UNL     1       8.974  -0.219  24.114  0.00  0.00    +0.053 C 
BRANCH   6   8
ATOM      8  O   UNL     1       9.099   0.983  22.042  0.00  0.00    -0.371 OA
BRANCH   8   9
ATOM      9  C   UNL     1       8.359   2.036  22.660  0.00  0.00    +0.195 C 
BRANCH   9  10
ATOM     10  C   UNL     1       9.313   3.118  23.100  0.00  0.00    -0.022 A 
ATOM     11  C   UNL     1       8.834   4.351  23.568  0.00  0.00    +0.007 A 
ATOM     12  C   UNL     1       9.724   5.356  23.955  0.00  0.00    +0.020 A 
ATOM     13  C   UNL     1      11.098   5.137  23.875  0.00  0.00    +0.041 A 
ATOM     14 CL   UNL     1      12.191   6.374  24.356  0.00  0.00    -0.084 Cl
ATOM     15  C   UNL     1      11.590   3.921  23.405  0.00  0.00    +0.020 A 
ATOM     16  C   UNL     1      10.701   2.917  23.018  0.00  0.00    +0.007 A 
ENDBRANCH   9  10
ENDBRANCH   8   9
ENDBRANCH   6   8
ENDBRANCH   1   2
BRANCH   1  17
ATOM     17  N   UNL     1       8.156  -3.430  25.884  0.00  0.00    -0.188 NA
ATOM     18  H   UNL     1       7.641  -3.330  26.757  0.00  0.00    +0.148 HD
BRANCH  17  19
ATOM     19  S   UNL     1       8.392  -5.025  25.432  0.00  0.00    +0.059 S 
ATOM     20  O   UNL     1       8.012  -5.842  26.566  0.00  0.00    -0.153 OA
ATOM     21  O   UNL     1       9.720  -5.118  24.868  0.00  0.00    -0.153 OA
BRANCH  19  22
ATOM     22  C   UNL     1       7.202  -5.266  24.124  0.00  0.00    +0.113 A 
ATOM     23  C   UNL     1       5.799  -5.233  24.359  0.00  0.00    +0.011 A 
ATOM     24  C   UNL     1       4.952  -5.411  23.239  0.00  0.00    +0.002 A 
ATOM     25  C   UNL     1       3.569  -5.374  23.438  0.00  0.00    +0.119 A 
ATOM     26  N   UNL     1       2.967  -5.184  24.631  0.00  0.00    -0.263 NA
ATOM     27  C   UNL     1       3.780  -5.021  25.690  0.00  0.00    +0.111 A 
ATOM     28  C   UNL     1       5.488  -5.619  21.955  0.00  0.00    +0.010 A 
ATOM     29  C   UNL     1       6.864  -5.652  21.752  0.00  0.00    +0.003 A 
ATOM     30  C   UNL     1       5.166  -5.043  25.608  0.00  0.00    +0.030 A 
ATOM     31  C   UNL     1       7.720  -5.471  22.833  0.00  0.00    +0.029 A 
ENDBRANCH  19  22
ENDBRANCH  17  19
ENDBRANCH   1  17
TORSDOF 7
ENDMDL
MODEL 5
REMARK VINA RESULT:      -7.4      3.063      4.500
REMARK  Name = 
REMARK  7 active torsions:
REMARK  status: ('A' for Active; 'I' for Inactive)
REMARK    1  A    between atoms: C_2  and  C_3
REMARK    2  A    between atoms: C_3  and  N_4
REMARK    3  A    between atoms: N_4  and  S_5
REMARK    4  A    between atoms: S_5  and  C_8
REMARK    5  A    between atoms: C_19  and  O_23
REMARK    6  A    between atoms: O_23  and  C_24
REMARK    7  A    between atoms: C_24  and  C_25
REMARK                            x       y       z     vdW  Elec       q    Type
REMARK                         _______ _______ _______ _____ _____    ______ ____
ROOT
ATOM      1  C   UNL     1       6.482  -4.208  26.481  0.00  0.00    +0.124 C 
ENDROOT
BRANCH   1   2
ATOM      2  C   UNL     1       8.006  -4.091  26.719  0.00  0.00    +0.072 C 
ATOM      3  N   UNL     1       8.726  -5.320  26.323  0.00  0.00    -0.309 NA
ATOM      4  H   UNL     1       9.424  -5.543  27.036  0.00  0.00    +0.122 HD
ATOM      5  C   UNL     1       9.436  -5.037  25.065  0.00  0.00    +0.112 C 
ATOM      6  C   UNL     1       9.004  -3.652  24.586  0.00  0.00    +0.134 C 
ATOM      7  C   UNL     1       8.617  -2.970  25.888  0.00  0.00    +0.053 C 
BRANCH   6   8
ATOM      8  O   UNL     1      10.041  -2.907  23.958  0.00  0.00    -0.371 OA
BRANCH   8   9
ATOM      9  C   UNL     1       9.589  -2.185  22.812  0.00  0.00    +0.195 C 
BRANCH   9  10
ATOM     10  C   UNL     1       9.920  -0.725  22.985  0.00  0.00    -0.022 A 
ATOM     11  C   UNL     1      10.367  -0.232  24.220  0.00  0.00    +0.007 A 
ATOM     12  C   UNL     1      10.654   1.126  24.380  0.00  0.00    +0.020 A 
ATOM     13  C   UNL     1      10.491   2.001  23.307  0.00  0.00    +0.041 A 
ATOM     14 CL   UNL     1      10.849   3.672  23.504  0.00  0.00    -0.084 Cl
ATOM     15  C   UNL     1      10.041   1.529  22.076  0.00  0.00    +0.020 A 
ATOM     16  C   UNL     1       9.755   0.172  21.917  0.00  0.00    +0.007 A 
ENDBRANCH   9  10
ENDBRANCH   8   9
ENDBRANCH   6   8
ENDBRANCH   1   2
BRANCH   1  17
ATOM     17  N   UNL     1       5.800  -2.942  26.793  0.00  0.00    -0.188 NA
ATOM     18  H   UNL     1       6.245  -2.299  27.445  0.00  0.00    +0.148 HD
BRANCH  17  19
ATOM     19  S   UNL     1       4.958  -2.169  25.568  0.00  0.00    +0.059 S 
ATOM     20  O   UNL     1       3.609  -1.964  26.053  0.00  0.00    -0.153 OA
ATOM     21  O   UNL     1       5.200  -2.907  24.350  0.00  0.00    -0.153 OA
BRANCH  19  22
ATOM     22  C   UNL     1       5.771  -0.585  25.443  0.00  0.00    +0.113 A 
ATOM     23  C   UNL     1       5.989   0.248  26.575  0.00  0.00    +0.011 A 
ATOM     24  C   UNL     1       6.668   1.471  26.357  0.00  0.00    +0.002 A 
ATOM     25  C   UNL     1       6.905   2.305  27.453  0.00  0.00    +0.119 A 
ATOM     26  N   UNL     1       6.529   2.038  28.722  0.00  0.00    -0.263 NA
ATOM     27  C   UNL     1       5.880   0.876  28.917  0.00  0.00    +0.111 A 
ATOM     28  C   UNL     1       7.096   1.838  25.069  0.00  0.00    +0.010 A 
ATOM     29  C   UNL     1       6.867   1.008  23.976  0.00  0.00    +0.003 A 
ATOM     30  C   UNL     1       5.589  -0.026  27.903  0.00  0.00    +0.030 A 
ATOM     31  C   UNL     1       6.210  -0.203  24.162  0.00  0.00    +0.029 A 
ENDBRANCH  19  22
ENDBRANCH  17  19
ENDBRANCH   1  17
TORSDOF 7
ENDMDL
MODEL 6
REMARK VINA RESULT:      -7.4      2.785      4.186
REMARK  Name = 
REMARK  7 active torsions:
REMARK  status: ('A' for Active; 'I' for Inactive)
REMARK    1  A    between atoms: C_2  and  C_3
REMARK    2  A    between atoms: C_3  and  N_4
REMARK    3  A    between atoms: N_4  and  S_5
REMARK    4  A    between atoms: S_5  and  C_8
REMARK    5  A    between atoms: C_19  and  O_23
REMARK    6  A    between atoms: O_23  and  C_24
REMARK    7  A    between atoms: C_24  and  C_25
REMARK                            x       y       z     vdW  Elec       q    Type
REMARK                         _______ _______ _______ _____ _____    ______ ____
ROOT
ATOM      1  C   UNL     1       7.678  -3.170  22.165  0.00  0.00    +0.124 C 
ENDROOT
BRANCH   1   2
ATOM      2  C   UNL     1       8.349  -2.294  23.249  0.00  0.00    +0.072 C 
ATOM      3  N   UNL     1       9.787  -2.599  23.398  0.00  0.00    -0.309 NA
ATOM      4  H   UNL     1      10.021  -2.632  24.392  0.00  0.00    +0.122 HD
ATOM      5  C   UNL     1      10.545  -1.495  22.789  0.00  0.00    +0.112 C 
ATOM      6  C   UNL     1       9.546  -0.569  22.096  0.00  0.00    +0.134 C 
ATOM      7  C   UNL     1       8.276  -0.814  22.895  0.00  0.00    +0.053 C 
BRANCH   6   8
ATOM      8  O   UNL     1       9.886   0.811  22.170  0.00  0.00    -0.371 OA
BRANCH   8   9
ATOM      9  C   UNL     1      10.472   1.171  23.421  0.00  0.00    +0.195 C 
BRANCH   9  10
ATOM     10  C   UNL     1      10.210   2.632  23.687  0.00  0.00    -0.022 A 
ATOM     11  C   UNL     1      11.176   3.602  23.381  0.00  0.00    +0.007 A 
ATOM     12  C   UNL     1      10.935   4.952  23.647  0.00  0.00    +0.020 A 
ATOM     13  C   UNL     1       9.727   5.341  24.223  0.00  0.00    +0.041 A 
ATOM     14 CL   UNL     1       9.429   7.004  24.546  0.00  0.00    -0.084 Cl
ATOM     15  C   UNL     1       8.759   4.390  24.540  0.00  0.00    +0.020 A 
ATOM     16  C   UNL     1       9.001   3.041  24.274  0.00  0.00    +0.007 A 
ENDBRANCH   9  10
ENDBRANCH   8   9
ENDBRANCH   6   8
ENDBRANCH   1   2
BRANCH   1  17
ATOM     17  N   UNL     1       6.452  -3.800  22.679  0.00  0.00    -0.188 NA
ATOM     18  H   UNL     1       5.577  -3.282  22.618  0.00  0.00    +0.148 HD
BRANCH  17  19
ATOM     19  S   UNL     1       6.260  -5.452  22.478  0.00  0.00    +0.059 S 
ATOM     20  O   UNL     1       7.589  -6.024  22.418  0.00  0.00    -0.153 OA
ATOM     21  O   UNL     1       5.325  -5.645  21.393  0.00  0.00    -0.153 OA
BRANCH  19  22
ATOM     22  C   UNL     1       5.480  -5.967  23.998  0.00  0.00    +0.113 A 
ATOM     23  C   UNL     1       6.103  -5.800  25.266  0.00  0.00    +0.011 A 
ATOM     24  C   UNL     1       5.376  -6.224  26.404  0.00  0.00    +0.002 A 
ATOM     25  C   UNL     1       5.960  -6.063  27.664  0.00  0.00    +0.119 A 
ATOM     26  N   UNL     1       7.182  -5.533  27.886  0.00  0.00    -0.263 NA
ATOM     27  C   UNL     1       7.866  -5.139  26.797  0.00  0.00    +0.111 A 
ATOM     28  C   UNL     1       4.096  -6.791  26.273  0.00  0.00    +0.010 A 
ATOM     29  C   UNL     1       3.510  -6.948  25.021  0.00  0.00    +0.003 A 
ATOM     30  C   UNL     1       7.385  -5.254  25.500  0.00  0.00    +0.030 A 
ATOM     31  C   UNL     1       4.197  -6.533  23.886  0.00  0.00    +0.029 A 
ENDBRANCH  19  22
ENDBRANCH  17  19
ENDBRANCH   1  17
TORSDOF 7
ENDMDL
MODEL 7
REMARK VINA RESULT:      -7.3      2.459      3.767
REMARK  Name = 
REMARK  7 active torsions:
REMARK  status: ('A' for Active; 'I' for Inactive)
REMARK    1  A    between atoms: C_2  and  C_3
REMARK    2  A    between atoms: C_3  and  N_4
REMARK    3  A    between atoms: N_4  and  S_5
REMARK    4  A    between atoms: S_5  and  C_8
REMARK    5  A    between atoms: C_19  and  O_23
REMARK    6  A    between atoms: O_23  and  C_24
REMARK    7  A    between atoms: C_24  and  C_25
REMARK                            x       y       z     vdW  Elec       q    Type
REMARK                         _______ _______ _______ _____ _____    ______ ____
ROOT
ATOM      1  C   UNL     1       5.520  -5.692  26.730  0.00  0.00    +0.124 C 
ENDROOT
BRANCH   1   2
ATOM      2  C   UNL     1       6.652  -4.959  27.488  0.00  0.00    +0.072 C 
ATOM      3  N   UNL     1       7.917  -5.724  27.471  0.00  0.00    -0.309 NA
ATOM      4  H   UNL     1       8.340  -5.692  28.401  0.00  0.00    +0.122 HD
ATOM      5  C   UNL     1       8.833  -5.054  26.533  0.00  0.00    +0.112 C 
ATOM      6  C   UNL     1       8.050  -3.948  25.826  0.00  0.00    +0.134 C 
ATOM      7  C   UNL     1       6.975  -3.615  26.847  0.00  0.00    +0.053 C 
BRANCH   6   8
ATOM      8  O   UNL     1       8.815  -2.779  25.555  0.00  0.00    -0.371 OA
BRANCH   8   9
ATOM      9  C   UNL     1       8.587  -1.735  26.502  0.00  0.00    +0.195 C 
BRANCH   9  10
ATOM     10  C   UNL     1       8.809  -0.403  25.830  0.00  0.00    -0.022 A 
ATOM     11  C   UNL     1       9.998  -0.139  25.135  0.00  0.00    +0.007 A 
ATOM     12  C   UNL     1      10.206   1.104  24.531  0.00  0.00    +0.020 A 
ATOM     13  C   UNL     1       9.226   2.092  24.622  0.00  0.00    +0.041 A 
ATOM     14 CL   UNL     1       9.481   3.620  23.874  0.00  0.00    -0.084 Cl
ATOM     15  C   UNL     1       8.043   1.848  25.315  0.00  0.00    +0.020 A 
ATOM     16  C   UNL     1       7.837   0.606  25.918  0.00  0.00    +0.007 A 
ENDBRANCH   9  10
ENDBRANCH   8   9
ENDBRANCH   6   8
ENDBRANCH   1   2
BRANCH   1  17
ATOM     17  N   UNL     1       4.462  -4.754  26.326  0.00  0.00    -0.188 NA
ATOM     18  H   UNL     1       4.573  -3.768  26.555  0.00  0.00    +0.148 HD
BRANCH  17  19
ATOM     19  S   UNL     1       3.686  -5.011  24.863  0.00  0.00    +0.059 S 
ATOM     20  O   UNL     1       2.824  -3.869  24.641  0.00  0.00    -0.153 OA
ATOM     21  O   UNL     1       3.144  -6.350  24.895  0.00  0.00    -0.153 OA
BRANCH  19  22
ATOM     22  C   UNL     1       5.017  -4.966  23.675  0.00  0.00    +0.113 A 
ATOM     23  C   UNL     1       5.722  -3.769  23.369  0.00  0.00    +0.011 A 
ATOM     24  C   UNL     1       6.777  -3.862  22.429  0.00  0.00    +0.002 A 
ATOM     25  C   UNL     1       7.493  -2.703  22.117  0.00  0.00    +0.119 A 
ATOM     26  N   UNL     1       7.255  -1.483  22.643  0.00  0.00    -0.263 NA
ATOM     27  C   UNL     1       6.247  -1.405  23.531  0.00  0.00    +0.111 A 
ATOM     28  C   UNL     1       7.098  -5.091  21.825  0.00  0.00    +0.010 A 
ATOM     29  C   UNL     1       6.391  -6.247  22.138  0.00  0.00    +0.003 A 
ATOM     30  C   UNL     1       5.468  -2.489  23.912  0.00  0.00    +0.030 A 
ATOM     31  C   UNL     1       5.356  -6.187  23.064  0.00  0.00    +0.029 A 
ENDBRANCH  19  22
ENDBRANCH  17  19
ENDBRANCH   1  17
TORSDOF 7
ENDMDL
MODEL 8
REMARK VINA RESULT:      -7.3      2.342      3.430
REMARK  Name = 
REMARK  7 active torsions:
REMARK  status: ('A' for Active; 'I' for Inactive)
REMARK    1  A    between atoms: C_2  and  C_3
REMARK    2  A    between atoms: C_3  and  N_4
REMARK    3  A    between atoms: N_4  and  S_5
REMARK    4  A    between atoms: S_5  and  C_8
REMARK    5  A    between atoms: C_19  and  O_23
REMARK    6  A    between atoms: O_23  and  C_24
REMARK    7  A    between atoms: C_24  and  C_25
REMARK                            x       y       z     vdW  Elec       q    Type
REMARK                         _______ _______ _______ _____ _____    ______ ____
ROOT
ATOM      1  C   UNL     1       8.816  -2.904  23.467  0.00  0.00    +0.124 C 
ENDROOT
BRANCH   1   2
ATOM      2  C   UNL     1       9.753  -1.683  23.308  0.00  0.00    +0.072 C 
ATOM      3  N   UNL     1      10.209  -1.512  21.912  0.00  0.00    -0.309 NA
ATOM      4  H   UNL     1      11.207  -1.290  21.910  0.00  0.00    +0.122 HD
ATOM      5  C   UNL     1       9.487  -0.363  21.343  0.00  0.00    +0.112 C 
ATOM      6  C   UNL     1       8.435   0.078  22.360  0.00  0.00    +0.134 C 
ATOM      7  C   UNL     1       9.047  -0.384  23.672  0.00  0.00    +0.053 C 
BRANCH   6   8
ATOM      8  O   UNL     1       8.230   1.485  22.409  0.00  0.00    -0.371 OA
BRANCH   8   9
ATOM      9  C   UNL     1       8.282   2.007  23.737  0.00  0.00    +0.195 C 
BRANCH   9  10
ATOM     10  C   UNL     1       9.314   3.105  23.796  0.00  0.00    -0.022 A 
ATOM     11  C   UNL     1       8.983   4.376  24.291  0.00  0.00    +0.007 A 
ATOM     12  C   UNL     1       9.939   5.394  24.325  0.00  0.00    +0.020 A 
ATOM     13  C   UNL     1      11.231   5.150  23.863  0.00  0.00    +0.041 A 
ATOM     14 CL   UNL     1      12.408   6.403  23.911  0.00  0.00    -0.084 Cl
ATOM     15  C   UNL     1      11.574   3.895  23.362  0.00  0.00    +0.020 A 
ATOM     16  C   UNL     1      10.619   2.879  23.328  0.00  0.00    +0.007 A 
ENDBRANCH   9  10
ENDBRANCH   8   9
ENDBRANCH   6   8
ENDBRANCH   1   2
BRANCH   1  17
ATOM     17  N   UNL     1       8.572  -3.200  24.887  0.00  0.00    -0.188 NA
ATOM     18  H   UNL     1       7.848  -2.677  25.375  0.00  0.00    +0.148 HD
BRANCH  17  19
ATOM     19  S   UNL     1       8.704  -4.789  25.403  0.00  0.00    +0.059 S 
ATOM     20  O   UNL     1       9.436  -4.764  26.652  0.00  0.00    -0.153 OA
ATOM     21  O   UNL     1       9.183  -5.565  24.282  0.00  0.00    -0.153 OA
BRANCH  19  22
ATOM     22  C   UNL     1       7.014  -5.257  25.737  0.00  0.00    +0.113 A 
ATOM     23  C   UNL     1       6.055  -5.429  24.700  0.00  0.00    +0.011 A 
ATOM     24  C   UNL     1       4.752  -5.827  25.085  0.00  0.00    +0.002 A 
ATOM     25  C   UNL     1       3.792  -6.013  24.086  0.00  0.00    +0.119 A 
ATOM     26  N   UNL     1       4.008  -5.837  22.765  0.00  0.00    -0.263 NA
ATOM     27  C   UNL     1       5.248  -5.454  22.411  0.00  0.00    +0.111 A 
ATOM     28  C   UNL     1       4.430  -6.033  26.438  0.00  0.00    +0.010 A 
ATOM     29  C   UNL     1       5.385  -5.853  27.434  0.00  0.00    +0.003 A 
ATOM     30  C   UNL     1       6.277  -5.237  23.318  0.00  0.00    +0.030 A 
ATOM     31  C   UNL     1       6.675  -5.471  27.085  0.00  0.00    +0.029 A 
ENDBRANCH  19  22
ENDBRANCH  17  19
ENDBRANCH   1  17
TORSDOF 7
ENDMDL
MODEL 9
REMARK VINA RESULT:      -7.3      3.723      5.350
REMARK  Name = 
REMARK  7 active torsions:
REMARK  status: ('A' for Active; 'I' for Inactive)
REMARK    1  A    between atoms: C_2  and  C_3
REMARK    2  A    between atoms: C_3  and  N_4
REMARK    3  A    between atoms: N_4  and  S_5
REMARK    4  A    between atoms: S_5  and  C_8
REMARK    5  A    between atoms: C_19  and  O_23
REMARK    6  A    between atoms: O_23  and  C_24
REMARK    7  A    between atoms: C_24  and  C_25
REMARK                            x       y       z     vdW  Elec       q    Type
REMARK                         _______ _______ _______ _____ _____    ______ ____
ROOT
ATOM      1  C   UNL     1       5.315   1.872  24.497  0.00  0.00    +0.124 C 
ENDROOT
BRANCH   1   2
ATOM      2  C   UNL     1       5.620   2.751  23.261  0.00  0.00    +0.072 C 
ATOM      3  N   UNL     1       6.230   4.044  23.637  0.00  0.00    -0.309 NA
ATOM      4  H   UNL     1       5.801   4.790  23.085  0.00  0.00    +0.122 HD
ATOM      5  C   UNL     1       7.658   3.984  23.286  0.00  0.00    +0.112 C 
ATOM      6  C   UNL     1       7.970   2.555  22.840  0.00  0.00    +0.134 C 
ATOM      7  C   UNL     1       6.620   2.079  22.330  0.00  0.00    +0.053 C 
BRANCH   6   8
ATOM      8  O   UNL     1       8.924   2.472  21.788  0.00  0.00    -0.371 OA
BRANCH   8   9
ATOM      9  C   UNL     1      10.205   2.026  22.235  0.00  0.00    +0.195 C 
BRANCH   9  10
ATOM     10  C   UNL     1      10.076   0.631  22.791  0.00  0.00    -0.022 A 
ATOM     11  C   UNL     1       9.818  -0.458  21.945  0.00  0.00    +0.007 A 
ATOM     12  C   UNL     1       9.680  -1.746  22.469  0.00  0.00    +0.020 A 
ATOM     13  C   UNL     1       9.798  -1.953  23.842  0.00  0.00    +0.041 A 
ATOM     14 CL   UNL     1       9.633  -3.540  24.485  0.00  0.00    -0.084 Cl
ATOM     15  C   UNL     1      10.047  -0.881  24.697  0.00  0.00    +0.020 A 
ATOM     16  C   UNL     1      10.184   0.405  24.173  0.00  0.00    +0.007 A 
ENDBRANCH   9  10
ENDBRANCH   8   9
ENDBRANCH   6   8
ENDBRANCH   1   2
BRANCH   1  17
ATOM     17  N   UNL     1       5.550   0.450  24.205  0.00  0.00    -0.188 NA
ATOM     18  H   UNL     1       6.137   0.209  23.408  0.00  0.00    +0.148 HD
BRANCH  17  19
ATOM     19  S   UNL     1       5.708  -0.613  25.490  0.00  0.00    +0.059 S 
ATOM     20  O   UNL     1       4.422  -0.661  26.154  0.00  0.00    -0.153 OA
ATOM     21  O   UNL     1       6.899  -0.233  26.215  0.00  0.00    -0.153 OA
BRANCH  19  22
ATOM     22  C   UNL     1       6.004  -2.183  24.695  0.00  0.00    +0.113 A 
ATOM     23  C   UNL     1       6.147  -3.392  25.431  0.00  0.00    +0.011 A 
ATOM     24  C   UNL     1       6.353  -4.580  24.690  0.00  0.00    +0.002 A 
ATOM     25  C   UNL     1       6.488  -5.784  25.387  0.00  0.00    +0.119 A 
ATOM     26  N   UNL     1       6.442  -5.907  26.731  0.00  0.00    -0.263 NA
ATOM     27  C   UNL     1       6.251  -4.771  27.426  0.00  0.00    +0.111 A 
ATOM     28  C   UNL     1       6.419  -4.552  23.285  0.00  0.00    +0.010 A 
ATOM     29  C   UNL     1       6.280  -3.356  22.588  0.00  0.00    +0.003 A 
ATOM     30  C   UNL     1       6.108  -3.522  26.838  0.00  0.00    +0.030 A 
ATOM     31  C   UNL     1       6.068  -2.174  23.290  0.00  0.00    +0.029 A 
ENDBRANCH  19  22
ENDBRANCH  17  19
ENDBRANCH   1  17
TORSDOF 7
ENDMDL
