MODEL 1
REMARK VINA RESULT:      -6.9      0.000      0.000
REMARK  Name = 
REMARK  11 active torsions:
REMARK  status: ('A' for Active; 'I' for Inactive)
REMARK    1  A    between atoms: C_2  and  O_3
REMARK    2  A    between atoms: C_2  and  C_4
REMARK    3  A    between atoms: C_2  and  C_29
REMARK    4  A    between atoms: C_4  and  O_5
REMARK    5  A    between atoms: O_5  and  C_6
REMARK    6  A    between atoms: C_9  and  N_10
REMARK    7  A    between atoms: C_13  and  C_17
REMARK    8  A    between atoms: C_18  and  C_19
REMARK    9  A    between atoms: C_29  and  N_30
REMARK   10  A    between atoms: N_30  and  C_31
REMARK   11  A    between atoms: N_30  and  C_32
REMARK                            x       y       z     vdW  Elec       q    Type
REMARK                         _______ _______ _______ _____ _____    ______ ____
ROOT
ATOM      1  N   UNL     1       7.720  -0.613  26.297  0.00  0.00    -0.284 N 
ATOM      2  H   UNL     1       7.834  -0.094  27.151  0.00  0.00    +0.155 HD
ATOM      3  C   UNL     1       7.618   0.218  25.173  0.00  0.00    +0.220 A 
ATOM      4  N   UNL     1       7.053  -0.282  24.059  0.00  0.00    -0.223 NA
ATOM      5  C   UNL     1       6.925   0.508  22.993  0.00  0.00    +0.116 A 
ATOM      6  C   UNL     1       7.360   1.800  22.980  0.00  0.00    +0.050 A 
ATOM      7  C   UNL     1       7.920   2.262  24.155  0.00  0.00    +0.094 A 
ATOM      8  N   UNL     1       8.047   1.490  25.262  0.00  0.00    -0.213 NA
ENDROOT
BRANCH   7   9
ATOM      9  C   UNL     1       8.379   3.652  24.259  0.00  0.00    +0.095 A 
ATOM     10  N   UNL     1       9.663   4.109  23.964  0.00  0.00    -0.298 N 
ATOM     11  C   UNL     1       9.661   5.487  24.188  0.00  0.00    +0.138 A 
ATOM     12  C   UNL     1      10.871   6.204  23.976  0.00  0.00    +0.047 A 
ATOM     13  C   UNL     1      11.970   5.554  23.553  0.00  0.00    +0.005 A 
ATOM     14  C   UNL     1      11.944   4.124  23.292  0.00  0.00    +0.018 A 
ATOM     15  N   UNL     1       8.483   5.922  24.560  0.00  0.00    -0.232 NA
ATOM     16  C   UNL     1      10.805   3.441  23.500  0.00  0.00    +0.093 A 
ATOM     17  C   UNL     1       7.681   4.811  24.617  0.00  0.00    +0.066 A 
ATOM     18  C   UNL     1       6.274   5.023  25.042  0.00  0.00    +0.068 C 
ENDBRANCH   7   9
BRANCH   1  22
ATOM     19  C   UNL     1       6.861  -4.775  26.185  0.00  0.00    +0.121 A 
ATOM     20  C   UNL     1       5.939  -3.879  26.731  0.00  0.00    +0.047 A 
ATOM     21  C   UNL     1       6.236  -2.501  26.818  0.00  0.00    +0.027 A 
ATOM     22  C   UNL     1       7.461  -1.992  26.363  0.00  0.00    +0.034 A 
ATOM     23  C   UNL     1       8.377  -2.910  25.854  0.00  0.00    +0.027 A 
ATOM     24  C   UNL     1       8.082  -4.266  25.744  0.00  0.00    +0.047 A 
BRANCH  19  25
ATOM     25  O   UNL     1       6.507  -6.106  26.099  0.00  0.00    -0.489 OA
BRANCH  25  26
ATOM     26  C   UNL     1       5.114  -6.289  25.772  0.00  0.00    +0.261 C 
BRANCH  26  27
ATOM     27  C   UNL     1       4.869  -6.535  24.284  0.00  0.00    +0.166 C 
BRANCH  27  28
ATOM     28  O   UNL     1       4.059  -7.707  24.109  0.00  0.00    -0.387 OA
ATOM     29  H   UNL     1       4.650  -8.393  23.744  0.00  0.00    +0.210 HD
ENDBRANCH  27  28
BRANCH  27  30
ATOM     30  C   UNL     1       4.113  -5.324  23.672  0.00  0.00    +0.118 C 
BRANCH  30  31
ATOM     31  N   UNL     1       4.778  -4.627  22.546  0.00  0.00    -0.306 NA
ATOM     32  C   UNL     1       5.841  -5.471  21.991  0.00  0.00    +0.104 C 
ATOM     33  C   UNL     1       5.328  -3.333  22.951  0.00  0.00    +0.104 C 
ENDBRANCH  30  31
ENDBRANCH  27  30
ENDBRANCH  26  27
ENDBRANCH  25  26
ENDBRANCH  19  25
ENDBRANCH   1  22
TORSDOF 8
ENDMDL
MODEL 2
REMARK VINA RESULT:      -6.6      3.650     10.240
REMARK  Name = 
REMARK  11 active torsions:
REMARK  status: ('A' for Active; 'I' for Inactive)
REMARK    1  A    between atoms: C_2  and  O_3
REMARK    2  A    between atoms: C_2  and  C_4
REMARK    3  A    between atoms: C_2  and  C_29
REMARK    4  A    between atoms: C_4  and  O_5
REMARK    5  A    between atoms: O_5  and  C_6
REMARK    6  A    between atoms: C_9  and  N_10
REMARK    7  A    between atoms: C_13  and  C_17
REMARK    8  A    between atoms: C_18  and  C_19
REMARK    9  A    between atoms: C_29  and  N_30
REMARK   10  A    between atoms: N_30  and  C_31
REMARK   11  A    between atoms: N_30  and  C_32
REMARK                            x       y       z     vdW  Elec       q    Type
REMARK                         _______ _______ _______ _____ _____    ______ ____
ROOT
ATOM      1  N   UNL     1       7.753  -0.508  23.568  0.00  0.00    -0.284 N 
ATOM      2  H   UNL     1       6.762  -0.339  23.591  0.00  0.00    +0.155 HD
ATOM      3  C   UNL     1       8.075  -1.845  23.841  0.00  0.00    +0.220 A 
ATOM      4  N   UNL     1       9.322  -2.129  24.257  0.00  0.00    -0.223 NA
ATOM      5  C   UNL     1       9.631  -3.393  24.547  0.00  0.00    +0.116 A 
ATOM      6  C   UNL     1       8.737  -4.414  24.421  0.00  0.00    +0.050 A 
ATOM      7  C   UNL     1       7.470  -4.062  24.001  0.00  0.00    +0.094 A 
ATOM      8  N   UNL     1       7.119  -2.784  23.717  0.00  0.00    -0.213 NA
ENDROOT
BRANCH   7   9
ATOM      9  C   UNL     1       6.421  -5.081  23.877  0.00  0.00    +0.095 A 
ATOM     10  N   UNL     1       5.651  -5.587  24.924  0.00  0.00    -0.298 N 
ATOM     11  C   UNL     1       4.775  -6.519  24.364  0.00  0.00    +0.138 A 
ATOM     12  C   UNL     1       3.880  -7.206  25.231  0.00  0.00    +0.047 A 
ATOM     13  C   UNL     1       3.881  -6.932  26.547  0.00  0.00    +0.005 A 
ATOM     14  C   UNL     1       4.777  -5.933  27.107  0.00  0.00    +0.018 A 
ATOM     15  N   UNL     1       4.915  -6.606  23.064  0.00  0.00    -0.232 NA
ATOM     16  C   UNL     1       5.632  -5.290  26.293  0.00  0.00    +0.093 A 
ATOM     17  C   UNL     1       5.925  -5.735  22.744  0.00  0.00    +0.066 A 
ATOM     18  C   UNL     1       6.307  -5.653  21.312  0.00  0.00    +0.068 C 
ENDBRANCH   7   9
BRANCH   1  22
ATOM     19  C   UNL     1      10.168   2.979  23.303  0.00  0.00    +0.121 A 
ATOM     20  C   UNL     1      10.136   2.062  22.249  0.00  0.00    +0.047 A 
ATOM     21  C   UNL     1       9.375   0.876  22.349  0.00  0.00    +0.027 A 
ATOM     22  C   UNL     1       8.634   0.583  23.503  0.00  0.00    +0.034 A 
ATOM     23  C   UNL     1       8.710   1.497  24.552  0.00  0.00    +0.027 A 
ATOM     24  C   UNL     1       9.439   2.679  24.452  0.00  0.00    +0.047 A 
BRANCH  19  25
ATOM     25  O   UNL     1      10.905   4.135  23.140  0.00  0.00    -0.489 OA
BRANCH  25  26
ATOM     26  C   UNL     1      10.545   5.161  24.087  0.00  0.00    +0.261 C 
BRANCH  26  27
ATOM     27  C   UNL     1       9.752   6.309  23.464  0.00  0.00    +0.166 C 
BRANCH  27  28
ATOM     28  O   UNL     1       8.762   5.788  22.565  0.00  0.00    -0.387 OA
ATOM     29  H   UNL     1       8.748   6.391  21.798  0.00  0.00    +0.210 HD
ENDBRANCH  27  28
BRANCH  27  30
ATOM     30  C   UNL     1       9.025   7.108  24.580  0.00  0.00    +0.118 C 
BRANCH  30  31
ATOM     31  N   UNL     1       8.611   6.345  25.780  0.00  0.00    -0.306 NA
ATOM     32  C   UNL     1       7.204   5.950  25.664  0.00  0.00    +0.104 C 
ATOM     33  C   UNL     1       8.815   7.108  27.012  0.00  0.00    +0.104 C 
ENDBRANCH  30  31
ENDBRANCH  27  30
ENDBRANCH  26  27
ENDBRANCH  25  26
ENDBRANCH  19  25
ENDBRANCH   1  22
TORSDOF 8
ENDMDL
MODEL 3
REMARK VINA RESULT:      -6.5      1.715      2.490
REMARK  Name = 
REMARK  11 active torsions:
REMARK  status: ('A' for Active; 'I' for Inactive)
REMARK    1  A    between atoms: C_2  and  O_3
REMARK    2  A    between atoms: C_2  and  C_4
REMARK    3  A    between atoms: C_2  and  C_29
REMARK    4  A    between atoms: C_4  and  O_5
REMARK    5  A    between atoms: O_5  and  C_6
REMARK    6  A    between atoms: C_9  and  N_10
REMARK    7  A    between atoms: C_13  and  C_17
REMARK    8  A    between atoms: C_18  and  C_19
REMARK    9  A    between atoms: C_29  and  N_30
REMARK   10  A    between atoms: N_30  and  C_31
REMARK   11  A    between atoms: N_30  and  C_32
REMARK                            x       y       z     vdW  Elec       q    Type
REMARK                         _______ _______ _______ _____ _____    ______ ____
ROOT
ATOM      1  N   UNL     1       6.670  -0.909  23.745  0.00  0.00    -0.284 N 
ATOM      2  H   UNL     1       5.950  -0.356  24.177  0.00  0.00    +0.155 HD
ATOM      3  C   UNL     1       7.665  -0.124  23.148  0.00  0.00    +0.220 A 
ATOM      4  N   UNL     1       8.435  -0.683  22.198  0.00  0.00    -0.223 NA
ATOM      5  C   UNL     1       9.366   0.063  21.602  0.00  0.00    +0.116 A 
ATOM      6  C   UNL     1       9.580   1.369  21.930  0.00  0.00    +0.050 A 
ATOM      7  C   UNL     1       8.752   1.892  22.903  0.00  0.00    +0.094 A 
ATOM      8  N   UNL     1       7.784   1.166  23.514  0.00  0.00    -0.213 NA
ENDROOT
BRANCH   7   9
ATOM      9  C   UNL     1       8.872   3.301  23.297  0.00  0.00    +0.095 A 
ATOM     10  N   UNL     1      10.067   4.006  23.445  0.00  0.00    -0.298 N 
ATOM     11  C   UNL     1       9.722   5.307  23.815  0.00  0.00    +0.138 A 
ATOM     12  C   UNL     1      10.772   6.238  24.052  0.00  0.00    +0.047 A 
ATOM     13  C   UNL     1      12.052   5.858  23.898  0.00  0.00    +0.005 A 
ATOM     14  C   UNL     1      12.390   4.507  23.478  0.00  0.00    +0.018 A 
ATOM     15  N   UNL     1       8.424   5.474  23.874  0.00  0.00    -0.232 NA
ATOM     16  C   UNL     1      11.402   3.621  23.263  0.00  0.00    +0.093 A 
ATOM     17  C   UNL     1       7.882   4.253  23.564  0.00  0.00    +0.066 A 
ATOM     18  C   UNL     1       6.400   4.157  23.579  0.00  0.00    +0.068 C 
ENDBRANCH   7   9
BRANCH   1  22
ATOM     19  C   UNL     1       5.809  -5.062  23.458  0.00  0.00    +0.121 A 
ATOM     20  C   UNL     1       6.672  -4.588  24.448  0.00  0.00    +0.047 A 
ATOM     21  C   UNL     1       7.004  -3.216  24.520  0.00  0.00    +0.027 A 
ATOM     22  C   UNL     1       6.479  -2.293  23.604  0.00  0.00    +0.034 A 
ATOM     23  C   UNL     1       5.647  -2.796  22.606  0.00  0.00    +0.027 A 
ATOM     24  C   UNL     1       5.298  -4.143  22.543  0.00  0.00    +0.047 A 
BRANCH  19  25
ATOM     25  O   UNL     1       5.497  -6.407  23.453  0.00  0.00    -0.489 OA
BRANCH  25  26
ATOM     26  C   UNL     1       4.825  -6.825  24.658  0.00  0.00    +0.261 C 
BRANCH  26  27
ATOM     27  C   UNL     1       3.376  -7.255  24.425  0.00  0.00    +0.166 C 
BRANCH  27  28
ATOM     28  O   UNL     1       3.121  -8.498  25.095  0.00  0.00    -0.387 OA
ATOM     29  H   UNL     1       2.212  -8.437  25.444  0.00  0.00    +0.210 HD
ENDBRANCH  27  28
BRANCH  27  30
ATOM     30  C   UNL     1       2.414  -6.182  25.004  0.00  0.00    +0.118 C 
BRANCH  30  31
ATOM     31  N   UNL     1       2.112  -5.022  24.133  0.00  0.00    -0.306 NA
ATOM     32  C   UNL     1       1.621  -3.902  24.942  0.00  0.00    +0.104 C 
ATOM     33  C   UNL     1       1.135  -5.355  23.096  0.00  0.00    +0.104 C 
ENDBRANCH  30  31
ENDBRANCH  27  30
ENDBRANCH  26  27
ENDBRANCH  25  26
ENDBRANCH  19  25
ENDBRANCH   1  22
TORSDOF 8
ENDMDL
MODEL 4
REMARK VINA RESULT:      -6.4      3.613      9.746
REMARK  Name = 
REMARK  11 active torsions:
REMARK  status: ('A' for Active; 'I' for Inactive)
REMARK    1  A    between atoms: C_2  and  O_3
REMARK    2  A    between atoms: C_2  and  C_4
REMARK    3  A    between atoms: C_2  and  C_29
REMARK    4  A    between atoms: C_4  and  O_5
REMARK    5  A    between atoms: O_5  and  C_6
REMARK    6  A    between atoms: C_9  and  N_10
REMARK    7  A    between atoms: C_13  and  C_17
REMARK    8  A    between atoms: C_18  and  C_19
REMARK    9  A    between atoms: C_29  and  N_30
REMARK   10  A    between atoms: N_30  and  C_31
REMARK   11  A    between atoms: N_30  and  C_32
REMARK                            x       y       z     vdW  Elec       q    Type
REMARK                         _______ _______ _______ _____ _____    ______ ____
ROOT
ATOM      1  N   UNL     1       8.656  -1.649  23.537  0.00  0.00    -0.284 N 
ATOM      2  H   UNL     1       8.916  -2.460  23.002  0.00  0.00    +0.155 HD
ATOM      3  C   UNL     1       7.485  -1.851  24.281  0.00  0.00    +0.220 A 
ATOM      4  N   UNL     1       6.796  -0.772  24.692  0.00  0.00    -0.223 NA
ATOM      5  C   UNL     1       5.666  -0.951  25.375  0.00  0.00    +0.116 A 
ATOM      6  C   UNL     1       5.187  -2.189  25.690  0.00  0.00    +0.050 A 
ATOM      7  C   UNL     1       5.929  -3.259  25.232  0.00  0.00    +0.094 A 
ATOM      8  N   UNL     1       7.072  -3.110  24.518  0.00  0.00    -0.213 NA
ENDROOT
BRANCH   7   9
ATOM      9  C   UNL     1       5.476  -4.633  25.478  0.00  0.00    +0.095 A 
ATOM     10  N   UNL     1       4.478  -5.300  24.768  0.00  0.00    -0.298 N 
ATOM     11  C   UNL     1       4.377  -6.578  25.321  0.00  0.00    +0.138 A 
ATOM     12  C   UNL     1       3.406  -7.468  24.784  0.00  0.00    +0.047 A 
ATOM     13  C   UNL     1       2.630  -7.074  23.759  0.00  0.00    +0.005 A 
ATOM     14  C   UNL     1       2.774  -5.750  23.173  0.00  0.00    +0.018 A 
ATOM     15  N   UNL     1       5.247  -6.767  26.283  0.00  0.00    -0.232 NA
ATOM     16  C   UNL     1       3.683  -4.903  23.684  0.00  0.00    +0.093 A 
ATOM     17  C   UNL     1       5.929  -5.583  26.400  0.00  0.00    +0.066 A 
ATOM     18  C   UNL     1       6.976  -5.517  27.451  0.00  0.00    +0.068 C 
ENDBRANCH   7   9
BRANCH   1  22
ATOM     19  C   UNL     1      10.450   2.171  23.033  0.00  0.00    +0.121 A 
ATOM     20  C   UNL     1       9.615   1.648  22.042  0.00  0.00    +0.047 A 
ATOM     21  C   UNL     1       9.055   0.358  22.179  0.00  0.00    +0.027 A 
ATOM     22  C   UNL     1       9.318  -0.433  23.306  0.00  0.00    +0.034 A 
ATOM     23  C   UNL     1      10.180   0.098  24.264  0.00  0.00    +0.027 A 
ATOM     24  C   UNL     1      10.718   1.377  24.147  0.00  0.00    +0.047 A 
BRANCH  19  25
ATOM     25  O   UNL     1      10.946   3.448  22.862  0.00  0.00    -0.489 OA
BRANCH  25  26
ATOM     26  C   UNL     1      10.851   4.246  24.059  0.00  0.00    +0.261 C 
BRANCH  26  27
ATOM     27  C   UNL     1       9.784   5.337  23.976  0.00  0.00    +0.166 C 
BRANCH  27  28
ATOM     28  O   UNL     1       9.927   6.068  22.749  0.00  0.00    -0.387 OA
ATOM     29  H   UNL     1       9.496   5.528  22.060  0.00  0.00    +0.210 HD
ENDBRANCH  27  28
BRANCH  27  30
ATOM     30  C   UNL     1       8.372   4.689  23.997  0.00  0.00    +0.118 C 
BRANCH  30  31
ATOM     31  N   UNL     1       8.083   3.765  25.118  0.00  0.00    -0.306 NA
ATOM     32  C   UNL     1       7.097   2.763  24.700  0.00  0.00    +0.104 C 
ATOM     33  C   UNL     1       7.600   4.475  26.303  0.00  0.00    +0.104 C 
ENDBRANCH  30  31
ENDBRANCH  27  30
ENDBRANCH  26  27
ENDBRANCH  25  26
ENDBRANCH  19  25
ENDBRANCH   1  22
TORSDOF 8
ENDMDL
MODEL 5
REMARK VINA RESULT:      -6.4      3.685     10.140
REMARK  Name = 
REMARK  11 active torsions:
REMARK  status: ('A' for Active; 'I' for Inactive)
REMARK    1  A    between atoms: C_2  and  O_3
REMARK    2  A    between atoms: C_2  and  C_4
REMARK    3  A    between atoms: C_2  and  C_29
REMARK    4  A    between atoms: C_4  and  O_5
REMARK    5  A    between atoms: O_5  and  C_6
REMARK    6  A    between atoms: C_9  and  N_10
REMARK    7  A    between atoms: C_13  and  C_17
REMARK    8  A    between atoms: C_18  and  C_19
REMARK    9  A    between atoms: C_29  and  N_30
REMARK   10  A    between atoms: N_30  and  C_31
REMARK   11  A    between atoms: N_30  and  C_32
REMARK                            x       y       z     vdW  Elec       q    Type
REMARK                         _______ _______ _______ _____ _____    ______ ____
ROOT
ATOM      1  N   UNL     1       6.229   0.136  23.660  0.00  0.00    -0.284 N 
ATOM      2  H   UNL     1       5.272   0.032  23.950  0.00  0.00    +0.155 HD
ATOM      3  C   UNL     1       6.938  -1.073  23.702  0.00  0.00    +0.220 A 
ATOM      4  N   UNL     1       8.280  -1.023  23.757  0.00  0.00    -0.223 NA
ATOM      5  C   UNL     1       8.964  -2.166  23.826  0.00  0.00    +0.116 A 
ATOM      6  C   UNL     1       8.355  -3.386  23.826  0.00  0.00    +0.050 A 
ATOM      7  C   UNL     1       6.976  -3.374  23.780  0.00  0.00    +0.094 A 
ATOM      8  N   UNL     1       6.251  -2.230  23.728  0.00  0.00    -0.213 NA
ENDROOT
BRANCH   7   9
ATOM      9  C   UNL     1       6.223  -4.634  23.821  0.00  0.00    +0.095 A 
ATOM     10  N   UNL     1       5.588  -5.166  24.943  0.00  0.00    -0.298 N 
ATOM     11  C   UNL     1       4.988  -6.359  24.538  0.00  0.00    +0.138 A 
ATOM     12  C   UNL     1       4.281  -7.121  25.510  0.00  0.00    +0.047 A 
ATOM     13  C   UNL     1       4.189  -6.672  26.774  0.00  0.00    +0.005 A 
ATOM     14  C   UNL     1       4.790  -5.408  27.170  0.00  0.00    +0.018 A 
ATOM     15  N   UNL     1       5.169  -6.591  23.261  0.00  0.00    -0.232 NA
ATOM     16  C   UNL     1       5.468  -4.692  26.257  0.00  0.00    +0.093 A 
ATOM     17  C   UNL     1       5.930  -5.546  22.802  0.00  0.00    +0.066 A 
ATOM     18  C   UNL     1       6.305  -5.574  21.365  0.00  0.00    +0.068 C 
ENDBRANCH   7   9
BRANCH   1  22
ATOM     19  C   UNL     1       7.535   4.155  23.203  0.00  0.00    +0.121 A 
ATOM     20  C   UNL     1       7.266   3.370  22.080  0.00  0.00    +0.047 A 
ATOM     21  C   UNL     1       6.880   2.018  22.221  0.00  0.00    +0.027 A 
ATOM     22  C   UNL     1       6.756   1.426  23.486  0.00  0.00    +0.034 A 
ATOM     23  C   UNL     1       7.063   2.221  24.589  0.00  0.00    +0.027 A 
ATOM     24  C   UNL     1       7.421   3.560  24.458  0.00  0.00    +0.047 A 
BRANCH  19  25
ATOM     25  O   UNL     1       7.880   5.478  23.007  0.00  0.00    -0.489 OA
BRANCH  25  26
ATOM     26  C   UNL     1       8.145   6.171  24.244  0.00  0.00    +0.261 C 
BRANCH  26  27
ATOM     27  C   UNL     1       9.569   6.716  24.339  0.00  0.00    +0.166 C 
BRANCH  27  28
ATOM     28  O   UNL     1      10.106   6.456  25.644  0.00  0.00    -0.387 OA
ATOM     29  H   UNL     1      10.820   7.108  25.779  0.00  0.00    +0.210 HD
ENDBRANCH  27  28
BRANCH  27  30
ATOM     30  C   UNL     1      10.471   6.008  23.290  0.00  0.00    +0.118 C 
BRANCH  30  31
ATOM     31  N   UNL     1      11.438   5.014  23.811  0.00  0.00    -0.306 NA
ATOM     32  C   UNL     1      12.791   5.342  23.350  0.00  0.00    +0.104 C 
ATOM     33  C   UNL     1      11.092   3.650  23.409  0.00  0.00    +0.104 C 
ENDBRANCH  30  31
ENDBRANCH  27  30
ENDBRANCH  26  27
ENDBRANCH  25  26
ENDBRANCH  19  25
ENDBRANCH   1  22
TORSDOF 8
ENDMDL
MODEL 6
REMARK VINA RESULT:      -6.3      3.722     10.428
REMARK  Name = 
REMARK  11 active torsions:
REMARK  status: ('A' for Active; 'I' for Inactive)
REMARK    1  A    between atoms: C_2  and  O_3
REMARK    2  A    between atoms: C_2  and  C_4
REMARK    3  A    between atoms: C_2  and  C_29
REMARK    4  A    between atoms: C_4  and  O_5
REMARK    5  A    between atoms: O_5  and  C_6
REMARK    6  A    between atoms: C_9  and  N_10
REMARK    7  A    between atoms: C_13  and  C_17
REMARK    8  A    between atoms: C_18  and  C_19
REMARK    9  A    between atoms: C_29  and  N_30
REMARK   10  A    between atoms: N_30  and  C_31
REMARK   11  A    between atoms: N_30  and  C_32
REMARK                            x       y       z     vdW  Elec       q    Type
REMARK                         _______ _______ _______ _____ _____    ______ ____
ROOT
ATOM      1  N   UNL     1       8.035  -1.027  24.878  0.00  0.00    -0.284 N 
ATOM      2  H   UNL     1       7.939  -1.058  25.878  0.00  0.00    +0.155 HD
ATOM      3  C   UNL     1       7.710  -2.246  24.268  0.00  0.00    +0.220 A 
ATOM      4  N   UNL     1       8.182  -2.488  23.033  0.00  0.00    -0.223 NA
ATOM      5  C   UNL     1       7.903  -3.657  22.455  0.00  0.00    +0.116 A 
ATOM      6  C   UNL     1       7.142  -4.612  23.061  0.00  0.00    +0.050 A 
ATOM      7  C   UNL     1       6.695  -4.313  24.332  0.00  0.00    +0.094 A 
ATOM      8  N   UNL     1       6.977  -3.143  24.955  0.00  0.00    -0.213 NA
ENDROOT
BRANCH   7   9
ATOM      9  C   UNL     1       5.906  -5.293  25.089  0.00  0.00    +0.095 A 
ATOM     10  N   UNL     1       4.724  -5.894  24.655  0.00  0.00    -0.298 N 
ATOM     11  C   UNL     1       4.318  -6.761  25.671  0.00  0.00    +0.138 A 
ATOM     12  C   UNL     1       3.113  -7.494  25.487  0.00  0.00    +0.047 A 
ATOM     13  C   UNL     1       2.412  -7.355  24.348  0.00  0.00    +0.005 A 
ATOM     14  C   UNL     1       2.869  -6.474  23.286  0.00  0.00    +0.018 A 
ATOM     15  N   UNL     1       5.161  -6.771  26.674  0.00  0.00    -0.232 NA
ATOM     16  C   UNL     1       4.002  -5.771  23.460  0.00  0.00    +0.093 A 
ATOM     17  C   UNL     1       6.141  -5.872  26.340  0.00  0.00    +0.066 A 
ATOM     18  C   UNL     1       7.229  -5.671  27.331  0.00  0.00    +0.068 C 
ENDBRANCH   7   9
BRANCH   1  22
ATOM     19  C   UNL     1       9.892   2.481  23.355  0.00  0.00    +0.121 A 
ATOM     20  C   UNL     1       8.571   2.180  23.017  0.00  0.00    +0.047 A 
ATOM     21  C   UNL     1       7.962   0.990  23.477  0.00  0.00    +0.027 A 
ATOM     22  C   UNL     1       8.662   0.081  24.283  0.00  0.00    +0.034 A 
ATOM     23  C   UNL     1       9.988   0.388  24.578  0.00  0.00    +0.027 A 
ATOM     24  C   UNL     1      10.588   1.569  24.148  0.00  0.00    +0.047 A 
BRANCH  19  25
ATOM     25  O   UNL     1      10.427   3.670  22.902  0.00  0.00    -0.489 OA
BRANCH  25  26
ATOM     26  C   UNL     1      11.699   3.974  23.509  0.00  0.00    +0.261 C 
BRANCH  26  27
ATOM     27  C   UNL     1      11.818   5.426  23.970  0.00  0.00    +0.166 C 
BRANCH  27  28
ATOM     28  O   UNL     1      12.958   6.043  23.353  0.00  0.00    -0.387 OA
ATOM     29  H   UNL     1      13.674   5.381  23.383  0.00  0.00    +0.210 HD
ENDBRANCH  27  28
BRANCH  27  30
ATOM     30  C   UNL     1      10.549   6.214  23.547  0.00  0.00    +0.118 C 
BRANCH  30  31
ATOM     31  N   UNL     1       9.735   6.798  24.639  0.00  0.00    -0.306 NA
ATOM     32  C   UNL     1      10.558   6.972  25.840  0.00  0.00    +0.104 C 
ATOM     33  C   UNL     1       8.566   5.974  24.952  0.00  0.00    +0.104 C 
ENDBRANCH  30  31
ENDBRANCH  27  30
ENDBRANCH  26  27
ENDBRANCH  25  26
ENDBRANCH  19  25
ENDBRANCH   1  22
TORSDOF 8
ENDMDL
MODEL 7
REMARK VINA RESULT:      -6.3      4.112      9.973
REMARK  Name = 
REMARK  11 active torsions:
REMARK  status: ('A' for Active; 'I' for Inactive)
REMARK    1  A    between atoms: C_2  and  O_3
REMARK    2  A    between atoms: C_2  and  C_4
REMARK    3  A    between atoms: C_2  and  C_29
REMARK    4  A    between atoms: C_4  and  O_5
REMARK    5  A    between atoms: O_5  and  C_6
REMARK    6  A    between atoms: C_9  and  N_10
REMARK    7  A    between atoms: C_13  and  C_17
REMARK    8  A    between atoms: C_18  and  C_19
REMARK    9  A    between atoms: C_29  and  N_30
REMARK   10  A    between atoms: N_30  and  C_31
REMARK   11  A    between atoms: N_30  and  C_32
REMARK                            x       y       z     vdW  Elec       q    Type
REMARK                         _______ _______ _______ _____ _____    ______ ____
ROOT
ATOM      1  N   UNL     1       7.136  -4.714  24.899  0.00  0.00    -0.284 N 
ATOM      2  H   UNL     1       6.996  -5.678  24.648  0.00  0.00    +0.155 HD
ATOM      3  C   UNL     1       6.272  -4.294  25.919  0.00  0.00    +0.220 A 
ATOM      4  N   UNL     1       6.046  -2.976  26.062  0.00  0.00    -0.223 NA
ATOM      5  C   UNL     1       5.204  -2.567  27.011  0.00  0.00    +0.116 A 
ATOM      6  C   UNL     1       4.574  -3.432  27.856  0.00  0.00    +0.050 A 
ATOM      7  C   UNL     1       4.834  -4.772  27.654  0.00  0.00    +0.094 A 
ATOM      8  N   UNL     1       5.670  -5.222  26.687  0.00  0.00    -0.213 NA
ENDROOT
BRANCH   7   9
ATOM      9  C   UNL     1       4.171  -5.787  28.482  0.00  0.00    +0.095 A 
ATOM     10  N   UNL     1       2.940  -6.383  28.207  0.00  0.00    -0.298 N 
ATOM     11  C   UNL     1       2.694  -7.291  29.238  0.00  0.00    +0.138 A 
ATOM     12  C   UNL     1       1.477  -8.029  29.208  0.00  0.00    +0.047 A 
ATOM     13  C   UNL     1       0.613  -7.853  28.193  0.00  0.00    +0.005 A 
ATOM     14  C   UNL     1       0.903  -6.928  27.109  0.00  0.00    +0.018 A 
ATOM     15  N   UNL     1       3.678  -7.331  30.102  0.00  0.00    -0.232 NA
ATOM     16  C   UNL     1       2.046  -6.221  27.139  0.00  0.00    +0.093 A 
ATOM     17  C   UNL     1       4.594  -6.411  29.660  0.00  0.00    +0.066 A 
ATOM     18  C   UNL     1       5.817  -6.237  30.484  0.00  0.00    +0.068 C 
ENDBRANCH   7   9
BRANCH   1  22
ATOM     19  C   UNL     1       9.535  -2.027  22.642  0.00  0.00    +0.121 A 
ATOM     20  C   UNL     1       8.300  -2.453  22.149  0.00  0.00    +0.047 A 
ATOM     21  C   UNL     1       7.518  -3.385  22.869  0.00  0.00    +0.027 A 
ATOM     22  C   UNL     1       7.957  -3.908  24.094  0.00  0.00    +0.034 A 
ATOM     23  C   UNL     1       9.207  -3.493  24.547  0.00  0.00    +0.027 A 
ATOM     24  C   UNL     1       9.972  -2.557  23.855  0.00  0.00    +0.047 A 
BRANCH  19  25
ATOM     25  O   UNL     1      10.243  -1.093  21.912  0.00  0.00    -0.489 OA
BRANCH  25  26
ATOM     26  C   UNL     1       9.455   0.069  21.585  0.00  0.00    +0.261 C 
BRANCH  26  27
ATOM     27  C   UNL     1       9.795   1.290  22.440  0.00  0.00    +0.166 C 
BRANCH  27  28
ATOM     28  O   UNL     1      10.046   2.423  21.595  0.00  0.00    -0.387 OA
ATOM     29  H   UNL     1       9.910   2.115  20.679  0.00  0.00    +0.210 HD
ENDBRANCH  27  28
BRANCH  27  30
ATOM     30  C   UNL     1       8.596   1.630  23.367  0.00  0.00    +0.118 C 
BRANCH  30  31
ATOM     31  N   UNL     1       7.280   1.068  22.982  0.00  0.00    -0.306 NA
ATOM     32  C   UNL     1       6.378   2.146  22.563  0.00  0.00    +0.104 C 
ATOM     33  C   UNL     1       6.671   0.303  24.071  0.00  0.00    +0.104 C 
ENDBRANCH  30  31
ENDBRANCH  27  30
ENDBRANCH  26  27
ENDBRANCH  25  26
ENDBRANCH  19  25
ENDBRANCH   1  22
TORSDOF 8
ENDMDL
MODEL 8
REMARK VINA RESULT:      -6.3      3.819      9.888
REMARK  Name = 
REMARK  11 active torsions:
REMARK  status: ('A' for Active; 'I' for Inactive)
REMARK    1  A    between atoms: C_2  and  O_3
REMARK    2  A    between atoms: C_2  and  C_4
REMARK    3  A    between atoms: C_2  and  C_29
REMARK    4  A    between atoms: C_4  and  O_5
REMARK    5  A    between atoms: O_5  and  C_6
REMARK    6  A    between atoms: C_9  and  N_10
REMARK    7  A    between atoms: C_13  and  C_17
REMARK    8  A    between atoms: C_18  and  C_19
REMARK    9  A    between atoms: C_29  and  N_30
REMARK   10  A    between atoms: N_30  and  C_31
REMARK   11  A    between atoms: N_30  and  C_32
REMARK                            x       y       z     vdW  Elec       q    Type
REMARK                         _______ _______ _______ _____ _____    ______ ____
ROOT
ATOM      1  N   UNL     1       6.929  -0.081  23.955  0.00  0.00    -0.284 N 
ATOM      2  H   UNL     1       5.965  -0.077  24.240  0.00  0.00    +0.155 HD
ATOM      3  C   UNL     1       7.493  -1.364  23.985  0.00  0.00    +0.220 A 
ATOM      4  N   UNL     1       8.831  -1.472  24.047  0.00  0.00    -0.223 NA
ATOM      5  C   UNL     1       9.377  -2.687  24.105  0.00  0.00    +0.116 A 
ATOM      6  C   UNL     1       8.631  -3.828  24.086  0.00  0.00    +0.050 A 
ATOM      7  C   UNL     1       7.263  -3.655  24.034  0.00  0.00    +0.094 A 
ATOM      8  N   UNL     1       6.676  -2.434  23.994  0.00  0.00    -0.213 NA
ENDROOT
BRANCH   7   9
ATOM      9  C   UNL     1       6.369  -4.820  24.056  0.00  0.00    +0.095 A 
ATOM     10  N   UNL     1       5.706  -5.315  25.178  0.00  0.00    -0.298 N 
ATOM     11  C   UNL     1       4.959  -6.415  24.751  0.00  0.00    +0.138 A 
ATOM     12  C   UNL     1       4.194  -7.125  25.718  0.00  0.00    +0.047 A 
ATOM     13  C   UNL     1       4.189  -6.716  26.999  0.00  0.00    +0.005 A 
ATOM     14  C   UNL     1       4.945  -5.546  27.419  0.00  0.00    +0.018 A 
ATOM     15  N   UNL     1       5.078  -6.618  23.462  0.00  0.00    -0.232 NA
ATOM     16  C   UNL     1       5.678  -4.880  26.510  0.00  0.00    +0.093 A 
ATOM     17  C   UNL     1       5.944  -5.653  23.016  0.00  0.00    +0.066 A 
ATOM     18  C   UNL     1       6.274  -5.670  21.568  0.00  0.00    +0.068 C 
ENDBRANCH   7   9
BRANCH   1  22
ATOM     19  C   UNL     1       8.690   3.765  23.528  0.00  0.00    +0.121 A 
ATOM     20  C   UNL     1       8.429   2.980  22.403  0.00  0.00    +0.047 A 
ATOM     21  C   UNL     1       7.891   1.680  22.538  0.00  0.00    +0.027 A 
ATOM     22  C   UNL     1       7.604   1.141  23.800  0.00  0.00    +0.034 A 
ATOM     23  C   UNL     1       7.904   1.931  24.908  0.00  0.00    +0.027 A 
ATOM     24  C   UNL     1       8.413   3.221  24.782  0.00  0.00    +0.047 A 
BRANCH  19  25
ATOM     25  O   UNL     1       9.189   5.037  23.336  0.00  0.00    -0.489 OA
BRANCH  25  26
ATOM     26  C   UNL     1       8.334   6.058  23.890  0.00  0.00    +0.261 C 
BRANCH  26  27
ATOM     27  C   UNL     1       7.510   6.795  22.835  0.00  0.00    +0.166 C 
BRANCH  27  28
ATOM     28  O   UNL     1       7.808   6.275  21.531  0.00  0.00    -0.387 OA
ATOM     29  H   UNL     1       7.799   7.040  20.925  0.00  0.00    +0.210 HD
ENDBRANCH  27  28
BRANCH  27  30
ATOM     30  C   UNL     1       5.996   6.582  23.111  0.00  0.00    +0.118 C 
BRANCH  30  31
ATOM     31  N   UNL     1       5.638   5.467  24.018  0.00  0.00    -0.306 NA
ATOM     32  C   UNL     1       5.018   4.379  23.255  0.00  0.00    +0.104 C 
ATOM     33  C   UNL     1       4.740   5.899  25.090  0.00  0.00    +0.104 C 
ENDBRANCH  30  31
ENDBRANCH  27  30
ENDBRANCH  26  27
ENDBRANCH  25  26
ENDBRANCH  19  25
ENDBRANCH   1  22
TORSDOF 8
ENDMDL
MODEL 9
REMARK VINA RESULT:      -6.2      3.782      9.982
REMARK  Name = 
REMARK  11 active torsions:
REMARK  status: ('A' for Active; 'I' for Inactive)
REMARK    1  A    between atoms: C_2  and  O_3
REMARK    2  A    between atoms: C_2  and  C_4
REMARK    3  A    between atoms: C_2  and  C_29
REMARK    4  A    between atoms: C_4  and  O_5
REMARK    5  A    between atoms: O_5  and  C_6
REMARK    6  A    between atoms: C_9  and  N_10
REMARK    7  A    between atoms: C_13  and  C_17
REMARK    8  A    between atoms: C_18  and  C_19
REMARK    9  A    between atoms: C_29  and  N_30
REMARK   10  A    between atoms: N_30  and  C_31
REMARK   11  A    between atoms: N_30  and  C_32
REMARK                            x       y       z     vdW  Elec       q    Type
REMARK                         _______ _______ _______ _____ _____    ______ ____
ROOT
ATOM      1  N   UNL     1       7.036  -0.375  24.850  0.00  0.00    -0.284 N 
ATOM      2  H   UNL     1       6.647  -0.365  25.777  0.00  0.00    +0.155 HD
ATOM      3  C   UNL     1       7.204  -1.674  24.352  0.00  0.00    +0.220 A 
ATOM      4  N   UNL     1       8.075  -1.864  23.345  0.00  0.00    -0.223 NA
ATOM      5  C   UNL     1       8.264  -3.100  22.883  0.00  0.00    +0.116 A 
ATOM      6  C   UNL     1       7.596  -4.180  23.379  0.00  0.00    +0.050 A 
ATOM      7  C   UNL     1       6.724  -3.926  24.419  0.00  0.00    +0.094 A 
ATOM      8  N   UNL     1       6.523  -2.684  24.924  0.00  0.00    -0.213 NA
ENDROOT
BRANCH   7   9
ATOM      9  C   UNL     1       5.989  -5.027  25.054  0.00  0.00    +0.095 A 
ATOM     10  N   UNL     1       4.850  -5.647  24.540  0.00  0.00    -0.298 N 
ATOM     11  C   UNL     1       4.488  -6.641  25.451  0.00  0.00    +0.138 A 
ATOM     12  C   UNL     1       3.331  -7.420  25.171  0.00  0.00    +0.047 A 
ATOM     13  C   UNL     1       2.633  -7.201  24.043  0.00  0.00    +0.005 A 
ATOM     14  C   UNL     1       3.046  -6.185  23.088  0.00  0.00    +0.018 A 
ATOM     15  N   UNL     1       5.321  -6.709  26.460  0.00  0.00    -0.232 NA
ATOM     16  C   UNL     1       4.132  -5.439  23.354  0.00  0.00    +0.093 A 
ATOM     17  C   UNL     1       6.248  -5.722  26.239  0.00  0.00    +0.066 A 
ATOM     18  C   UNL     1       7.313  -5.565  27.263  0.00  0.00    +0.068 C 
ENDBRANCH   7   9
BRANCH   1  22
ATOM     19  C   UNL     1       8.392   3.391  23.418  0.00  0.00    +0.121 A 
ATOM     20  C   UNL     1       7.400   2.691  22.728  0.00  0.00    +0.047 A 
ATOM     21  C   UNL     1       6.979   1.416  23.169  0.00  0.00    +0.027 A 
ATOM     22  C   UNL     1       7.542   0.817  24.305  0.00  0.00    +0.034 A 
ATOM     23  C   UNL     1       8.553   1.521  24.955  0.00  0.00    +0.027 A 
ATOM     24  C   UNL     1       8.957   2.788  24.541  0.00  0.00    +0.047 A 
BRANCH  19  25
ATOM     25  O   UNL     1       8.745   4.645  22.960  0.00  0.00    -0.489 OA
BRANCH  25  26
ATOM     26  C   UNL     1       8.050   5.703  23.651  0.00  0.00    +0.261 C 
BRANCH  26  27
ATOM     27  C   UNL     1       7.317   6.660  22.711  0.00  0.00    +0.166 C 
BRANCH  27  28
ATOM     28  O   UNL     1       7.430   6.197  21.357  0.00  0.00    -0.387 OA
ATOM     29  H   UNL     1       6.547   6.304  20.958  0.00  0.00    +0.210 HD
ENDBRANCH  27  28
BRANCH  27  30
ATOM     30  C   UNL     1       5.811   6.708  23.086  0.00  0.00    +0.118 C 
BRANCH  30  31
ATOM     31  N   UNL     1       5.232   5.474  23.666  0.00  0.00    -0.306 NA
ATOM     32  C   UNL     1       4.303   4.859  22.713  0.00  0.00    +0.104 C 
ATOM     33  C   UNL     1       4.546   5.734  24.933  0.00  0.00    +0.104 C 
ENDBRANCH  30  31
ENDBRANCH  27  30
ENDBRANCH  26  27
ENDBRANCH  25  26
ENDBRANCH  19  25
ENDBRANCH   1  22
TORSDOF 8
ENDMDL
