MODEL 1
REMARK VINA RESULT:      -5.9      0.000      0.000
REMARK  Name = 
REMARK  12 active torsions:
REMARK  status: ('A' for Active; 'I' for Inactive)
REMARK    1  A    between atoms: C_1  and  C_2
REMARK    2  A    between atoms: C_2  and  C_3
REMARK    3  A    between atoms: C_3  and  C_4
REMARK    4  A    between atoms: C_4  and  C_5
REMARK    5  A    between atoms: C_5  and  C_6
REMARK    6  A    between atoms: C_6  and  C_7
REMARK    7  A    between atoms: C_7  and  C_8
REMARK    8  A    between atoms: C_8  and  C_9
REMARK    9  A    between atoms: C_9  and  C_10
REMARK   10  A    between atoms: C_10  and  C_11
REMARK   11  A    between atoms: C_11  and  C_12
REMARK   12  A    between atoms: C_13  and  O_14
REMARK                            x       y       z     vdW  Elec       q    Type
REMARK                         _______ _______ _______ _____ _____    ______ ____
ROOT
ATOM      1  C   UNL     1       6.713  -5.189  23.938  0.00  0.00    +0.047 C 
ATOM      2  C   UNL     1       7.349  -4.948  25.291  0.00  0.00    +0.212 C 
ATOM      3  O   UNL     1       8.385  -4.303  25.402  0.00  0.00    -0.285 OA
ATOM      4  C   UNL     1       6.645  -5.554  26.410  0.00  0.00    +0.129 A 
ATOM      5  N   UNL     1       7.117  -5.541  27.717  0.00  0.00    -0.243 NA
ATOM      6  C   UNL     1       6.269  -6.177  28.497  0.00  0.00    +0.157 A 
ATOM      7  S   UNL     1       4.868  -6.807  27.730  0.00  0.00    -0.071 S 
ATOM      8  C   UNL     1       5.445  -6.203  26.249  0.00  0.00    +0.093 A 
ATOM      9  C   UNL     1       4.771  -6.365  24.995  0.00  0.00    +0.236 C 
ATOM     10  O   UNL     1       3.671  -6.889  24.854  0.00  0.00    -0.283 OA
ATOM     11  C   UNL     1       5.538  -5.843  23.792  0.00  0.00    +0.172 C 
ENDROOT
BRANCH  11  12
ATOM     12  O   UNL     1       4.962  -6.099  22.555  0.00  0.00    -0.503 OA
ATOM     13  H   UNL     1       4.159  -6.634  22.648  0.00  0.00    +0.292 HD
ENDBRANCH  11  12
BRANCH   1  14
ATOM     14  C   UNL     1       7.496  -4.609  22.781  0.00  0.00    +0.043 C 
BRANCH  14  15
ATOM     15  C   UNL     1       6.895  -3.286  22.303  0.00  0.00    +0.005 C 
BRANCH  15  16
ATOM     16  C   UNL     1       7.680  -2.100  22.860  0.00  0.00    +0.000 C 
BRANCH  16  17
ATOM     17  C   UNL     1       8.957  -1.860  22.059  0.00  0.00    +0.000 C 
BRANCH  17  18
ATOM     18  C   UNL     1      10.168  -1.737  22.980  0.00  0.00    +0.000 C 
BRANCH  18  19
ATOM     19  C   UNL     1       9.760  -1.173  24.337  0.00  0.00    +0.000 C 
BRANCH  19  20
ATOM     20  C   UNL     1      10.527   0.108  24.653  0.00  0.00    -0.000 C 
BRANCH  20  21
ATOM     21  C   UNL     1       9.616   1.328  24.545  0.00  0.00    -0.000 C 
BRANCH  21  22
ATOM     22  C   UNL     1      10.161   2.325  23.525  0.00  0.00    -0.000 C 
BRANCH  22  24
ATOM     23  C   UNL     1       8.553   1.826  21.664  0.00  0.00    +0.004 C 
ATOM     24  C   UNL     1      10.006   1.801  22.100  0.00  0.00    -0.003 C 
ENDBRANCH  22  24
ENDBRANCH  21  22
ENDBRANCH  20  21
ENDBRANCH  19  20
ENDBRANCH  18  19
ENDBRANCH  17  18
ENDBRANCH  16  17
ENDBRANCH  15  16
ENDBRANCH  14  15
ENDBRANCH   1  14
TORSDOF 11
ENDMDL
MODEL 2
REMARK VINA RESULT:      -5.8      1.973      3.269
REMARK  Name = 
REMARK  12 active torsions:
REMARK  status: ('A' for Active; 'I' for Inactive)
REMARK    1  A    between atoms: C_1  and  C_2
REMARK    2  A    between atoms: C_2  and  C_3
REMARK    3  A    between atoms: C_3  and  C_4
REMARK    4  A    between atoms: C_4  and  C_5
REMARK    5  A    between atoms: C_5  and  C_6
REMARK    6  A    between atoms: C_6  and  C_7
REMARK    7  A    between atoms: C_7  and  C_8
REMARK    8  A    between atoms: C_8  and  C_9
REMARK    9  A    between atoms: C_9  and  C_10
REMARK   10  A    between atoms: C_10  and  C_11
REMARK   11  A    between atoms: C_11  and  C_12
REMARK   12  A    between atoms: C_13  and  O_14
REMARK                            x       y       z     vdW  Elec       q    Type
REMARK                         _______ _______ _______ _____ _____    ______ ____
ROOT
ATOM      1  C   UNL     1       8.446  -4.274  24.919  0.00  0.00    +0.047 C 
ATOM      2  C   UNL     1       7.266  -4.478  23.992  0.00  0.00    +0.212 C 
ATOM      3  O   UNL     1       7.291  -4.084  22.833  0.00  0.00    -0.285 OA
ATOM      4  C   UNL     1       6.126  -5.149  24.597  0.00  0.00    +0.129 A 
ATOM      5  N   UNL     1       4.910  -5.339  23.951  0.00  0.00    -0.243 NA
ATOM      6  C   UNL     1       4.077  -5.963  24.757  0.00  0.00    +0.157 A 
ATOM      7  S   UNL     1       4.693  -6.371  26.307  0.00  0.00    -0.071 S 
ATOM      8  C   UNL     1       6.169  -5.646  25.877  0.00  0.00    +0.093 A 
ATOM      9  C   UNL     1       7.305  -5.552  26.746  0.00  0.00    +0.236 C 
ATOM     10  O   UNL     1       7.371  -6.046  27.868  0.00  0.00    -0.283 OA
ATOM     11  C   UNL     1       8.469  -4.756  26.184  0.00  0.00    +0.172 C 
ENDROOT
BRANCH  11  12
ATOM     12  O   UNL     1       9.531  -4.547  27.053  0.00  0.00    -0.503 OA
ATOM     13  H   UNL     1       9.266  -4.707  27.972  0.00  0.00    +0.292 HD
ENDBRANCH  11  12
BRANCH   1  14
ATOM     14  C   UNL     1       9.594  -3.515  24.293  0.00  0.00    +0.043 C 
BRANCH  14  15
ATOM     15  C   UNL     1       9.413  -2.002  24.438  0.00  0.00    +0.005 C 
BRANCH  15  16
ATOM     16  C   UNL     1      10.164  -1.257  23.337  0.00  0.00    +0.000 C 
BRANCH  16  17
ATOM     17  C   UNL     1       9.413  -1.333  22.010  0.00  0.00    +0.000 C 
BRANCH  17  18
ATOM     18  C   UNL     1       9.365   0.030  21.327  0.00  0.00    +0.000 C 
BRANCH  18  19
ATOM     19  C   UNL     1      10.045   1.091  22.187  0.00  0.00    +0.000 C 
BRANCH  19  20
ATOM     20  C   UNL     1       9.027   2.075  22.754  0.00  0.00    -0.000 C 
BRANCH  20  21
ATOM     21  C   UNL     1       9.123   2.142  24.276  0.00  0.00    -0.000 C 
BRANCH  21  22
ATOM     22  C   UNL     1       7.883   1.533  24.927  0.00  0.00    -0.000 C 
BRANCH  22  24
ATOM     23  C   UNL     1       6.173  -0.230  24.413  0.00  0.00    +0.004 C 
ATOM     24  C   UNL     1       6.924   0.975  23.879  0.00  0.00    -0.003 C 
ENDBRANCH  22  24
ENDBRANCH  21  22
ENDBRANCH  20  21
ENDBRANCH  19  20
ENDBRANCH  18  19
ENDBRANCH  17  18
ENDBRANCH  16  17
ENDBRANCH  15  16
ENDBRANCH  14  15
ENDBRANCH   1  14
TORSDOF 11
ENDMDL
MODEL 3
REMARK VINA RESULT:      -5.8      2.198      3.718
REMARK  Name = 
REMARK  12 active torsions:
REMARK  status: ('A' for Active; 'I' for Inactive)
REMARK    1  A    between atoms: C_1  and  C_2
REMARK    2  A    between atoms: C_2  and  C_3
REMARK    3  A    between atoms: C_3  and  C_4
REMARK    4  A    between atoms: C_4  and  C_5
REMARK    5  A    between atoms: C_5  and  C_6
REMARK    6  A    between atoms: C_6  and  C_7
REMARK    7  A    between atoms: C_7  and  C_8
REMARK    8  A    between atoms: C_8  and  C_9
REMARK    9  A    between atoms: C_9  and  C_10
REMARK   10  A    between atoms: C_10  and  C_11
REMARK   11  A    between atoms: C_11  and  C_12
REMARK   12  A    between atoms: C_13  and  O_14
REMARK                            x       y       z     vdW  Elec       q    Type
REMARK                         _______ _______ _______ _____ _____    ______ ____
ROOT
ATOM      1  C   UNL     1       7.930  -3.306  24.372  0.00  0.00    +0.047 C 
ATOM      2  C   UNL     1       6.967  -3.478  23.216  0.00  0.00    +0.212 C 
ATOM      3  O   UNL     1       7.051  -2.785  22.209  0.00  0.00    -0.285 OA
ATOM      4  C   UNL     1       5.951  -4.500  23.417  0.00  0.00    +0.129 A 
ATOM      5  N   UNL     1       4.912  -4.741  22.526  0.00  0.00    -0.243 NA
ATOM      6  C   UNL     1       4.154  -5.713  22.988  0.00  0.00    +0.157 A 
ATOM      7  S   UNL     1       4.639  -6.399  24.486  0.00  0.00    -0.071 S 
ATOM      8  C   UNL     1       5.942  -5.307  24.529  0.00  0.00    +0.093 A 
ATOM      9  C   UNL     1       6.897  -5.233  25.594  0.00  0.00    +0.236 C 
ATOM     10  O   UNL     1       6.930  -5.991  26.559  0.00  0.00    -0.283 OA
ATOM     11  C   UNL     1       7.901  -4.100  25.468  0.00  0.00    +0.172 C 
ENDROOT
BRANCH  11  12
ATOM     12  O   UNL     1       8.757  -3.931  26.548  0.00  0.00    -0.503 OA
ATOM     13  H   UNL     1       8.312  -3.472  27.277  0.00  0.00    +0.292 HD
ENDBRANCH  11  12
BRANCH   1  14
ATOM     14  C   UNL     1       8.936  -2.194  24.173  0.00  0.00    +0.043 C 
BRANCH  14  15
ATOM     15  C   UNL     1       8.486  -0.901  24.855  0.00  0.00    +0.005 C 
BRANCH  15  16
ATOM     16  C   UNL     1       9.687  -0.118  25.381  0.00  0.00    +0.000 C 
BRANCH  16  17
ATOM     17  C   UNL     1      10.610   0.304  24.241  0.00  0.00    +0.000 C 
BRANCH  17  18
ATOM     18  C   UNL     1      10.522   1.807  23.991  0.00  0.00    +0.000 C 
BRANCH  18  19
ATOM     19  C   UNL     1      10.368   2.101  22.503  0.00  0.00    +0.000 C 
BRANCH  19  20
ATOM     20  C   UNL     1       9.534   1.026  21.814  0.00  0.00    -0.000 C 
BRANCH  20  21
ATOM     21  C   UNL     1       8.195   1.590  21.348  0.00  0.00    -0.000 C 
BRANCH  21  22
ATOM     22  C   UNL     1       7.111   1.356  22.397  0.00  0.00    -0.000 C 
BRANCH  22  24
ATOM     23  C   UNL     1       7.014   3.860  22.242  0.00  0.00    +0.004 C 
ATOM     24  C   UNL     1       6.752   2.651  23.121  0.00  0.00    -0.003 C 
ENDBRANCH  22  24
ENDBRANCH  21  22
ENDBRANCH  20  21
ENDBRANCH  19  20
ENDBRANCH  18  19
ENDBRANCH  17  18
ENDBRANCH  16  17
ENDBRANCH  15  16
ENDBRANCH  14  15
ENDBRANCH   1  14
TORSDOF 11
ENDMDL
MODEL 4
REMARK VINA RESULT:      -5.8      1.986      3.248
REMARK  Name = 
REMARK  12 active torsions:
REMARK  status: ('A' for Active; 'I' for Inactive)
REMARK    1  A    between atoms: C_1  and  C_2
REMARK    2  A    between atoms: C_2  and  C_3
REMARK    3  A    between atoms: C_3  and  C_4
REMARK    4  A    between atoms: C_4  and  C_5
REMARK    5  A    between atoms: C_5  and  C_6
REMARK    6  A    between atoms: C_6  and  C_7
REMARK    7  A    between atoms: C_7  and  C_8
REMARK    8  A    between atoms: C_8  and  C_9
REMARK    9  A    between atoms: C_9  and  C_10
REMARK   10  A    between atoms: C_10  and  C_11
REMARK   11  A    between atoms: C_11  and  C_12
REMARK   12  A    between atoms: C_13  and  O_14
REMARK                            x       y       z     vdW  Elec       q    Type
REMARK                         _______ _______ _______ _____ _____    ______ ____
ROOT
ATOM      1  C   UNL     1       7.862  -4.786  24.779  0.00  0.00    +0.047 C 
ATOM      2  C   UNL     1       7.025  -4.833  23.518  0.00  0.00    +0.212 C 
ATOM      3  O   UNL     1       7.459  -4.418  22.450  0.00  0.00    -0.285 OA
ATOM      4  C   UNL     1       5.690  -5.382  23.694  0.00  0.00    +0.129 A 
ATOM      5  N   UNL     1       4.731  -5.417  22.689  0.00  0.00    -0.243 NA
ATOM      6  C   UNL     1       3.626  -5.959  23.156  0.00  0.00    +0.157 A 
ATOM      7  S   UNL     1       3.670  -6.469  24.795  0.00  0.00    -0.071 S 
ATOM      8  C   UNL     1       5.272  -5.908  24.893  0.00  0.00    +0.093 A 
ATOM      9  C   UNL     1       6.075  -5.964  26.079  0.00  0.00    +0.236 C 
ATOM     10  O   UNL     1       5.729  -6.487  27.134  0.00  0.00    -0.283 OA
ATOM     11  C   UNL     1       7.432  -5.294  25.957  0.00  0.00    +0.172 C 
ENDROOT
BRANCH  11  12
ATOM     12  O   UNL     1       8.177  -5.228  27.127  0.00  0.00    -0.503 OA
ATOM     13  H   UNL     1       7.831  -5.838  27.796  0.00  0.00    +0.292 HD
ENDBRANCH  11  12
BRANCH   1  14
ATOM     14  C   UNL     1       9.221  -4.149  24.590  0.00  0.00    +0.043 C 
BRANCH  14  15
ATOM     15  C   UNL     1       9.156  -2.628  24.743  0.00  0.00    +0.005 C 
BRANCH  15  16
ATOM     16  C   UNL     1       9.864  -1.934  23.582  0.00  0.00    +0.000 C 
BRANCH  16  17
ATOM     17  C   UNL     1       8.860  -1.408  22.561  0.00  0.00    +0.000 C 
BRANCH  17  18
ATOM     18  C   UNL     1       9.545  -0.526  21.521  0.00  0.00    +0.000 C 
BRANCH  18  19
ATOM     19  C   UNL     1       9.070   0.918  21.638  0.00  0.00    +0.000 C 
BRANCH  19  20
ATOM     20  C   UNL     1      10.200   1.833  22.100  0.00  0.00    -0.000 C 
BRANCH  20  21
ATOM     21  C   UNL     1       9.803   2.594  23.362  0.00  0.00    -0.000 C 
BRANCH  21  22
ATOM     22  C   UNL     1       9.626   1.640  24.541  0.00  0.00    -0.000 C 
BRANCH  22  24
ATOM     23  C   UNL     1       7.919   0.505  25.989  0.00  0.00    +0.004 C 
ATOM     24  C   UNL     1       8.202   1.692  25.087  0.00  0.00    -0.003 C 
ENDBRANCH  22  24
ENDBRANCH  21  22
ENDBRANCH  20  21
ENDBRANCH  19  20
ENDBRANCH  18  19
ENDBRANCH  17  18
ENDBRANCH  16  17
ENDBRANCH  15  16
ENDBRANCH  14  15
ENDBRANCH   1  14
TORSDOF 11
ENDMDL
MODEL 5
REMARK VINA RESULT:      -5.7      2.025      3.168
REMARK  Name = 
REMARK  12 active torsions:
REMARK  status: ('A' for Active; 'I' for Inactive)
REMARK    1  A    between atoms: C_1  and  C_2
REMARK    2  A    between atoms: C_2  and  C_3
REMARK    3  A    between atoms: C_3  and  C_4
REMARK    4  A    between atoms: C_4  and  C_5
REMARK    5  A    between atoms: C_5  and  C_6
REMARK    6  A    between atoms: C_6  and  C_7
REMARK    7  A    between atoms: C_7  and  C_8
REMARK    8  A    between atoms: C_8  and  C_9
REMARK    9  A    between atoms: C_9  and  C_10
REMARK   10  A    between atoms: C_10  and  C_11
REMARK   11  A    between atoms: C_11  and  C_12
REMARK   12  A    between atoms: C_13  and  O_14
REMARK                            x       y       z     vdW  Elec       q    Type
REMARK                         _______ _______ _______ _____ _____    ______ ____
ROOT
ATOM      1  C   UNL     1       7.731  -4.691  24.680  0.00  0.00    +0.047 C 
ATOM      2  C   UNL     1       6.873  -4.720  23.433  0.00  0.00    +0.212 C 
ATOM      3  O   UNL     1       7.263  -4.233  22.379  0.00  0.00    -0.285 OA
ATOM      4  C   UNL     1       5.570  -5.343  23.606  0.00  0.00    +0.129 A 
ATOM      5  N   UNL     1       4.593  -5.378  22.618  0.00  0.00    -0.243 NA
ATOM      6  C   UNL     1       3.526  -5.997  23.077  0.00  0.00    +0.157 A 
ATOM      7  S   UNL     1       3.629  -6.582  24.688  0.00  0.00    -0.071 S 
ATOM      8  C   UNL     1       5.203  -5.946  24.785  0.00  0.00    +0.093 A 
ATOM      9  C   UNL     1       6.031  -6.019  25.952  0.00  0.00    +0.236 C 
ATOM     10  O   UNL     1       5.734  -6.609  26.986  0.00  0.00    -0.283 OA
ATOM     11  C   UNL     1       7.351  -5.277  25.839  0.00  0.00    +0.172 C 
ENDROOT
BRANCH  11  12
ATOM     12  O   UNL     1       8.115  -5.229  26.997  0.00  0.00    -0.503 OA
ATOM     13  H   UNL     1       8.418  -4.326  27.179  0.00  0.00    +0.292 HD
ENDBRANCH  11  12
BRANCH   1  14
ATOM     14  C   UNL     1       9.053  -3.979  24.498  0.00  0.00    +0.043 C 
BRANCH  14  15
ATOM     15  C   UNL     1       9.078  -2.642  25.242  0.00  0.00    +0.005 C 
BRANCH  15  16
ATOM     16  C   UNL     1       7.947  -1.734  24.765  0.00  0.00    +0.000 C 
BRANCH  16  17
ATOM     17  C   UNL     1       8.245  -0.271  25.082  0.00  0.00    +0.000 C 
BRANCH  17  18
ATOM     18  C   UNL     1       9.705  -0.082  25.482  0.00  0.00    +0.000 C 
BRANCH  18  19
ATOM     19  C   UNL     1      10.373   0.975  24.609  0.00  0.00    +0.000 C 
BRANCH  19  20
ATOM     20  C   UNL     1       9.446   2.164  24.379  0.00  0.00    -0.000 C 
BRANCH  20  21
ATOM     21  C   UNL     1       9.405   2.545  22.902  0.00  0.00    -0.000 C 
BRANCH  21  22
ATOM     22  C   UNL     1      10.074   1.473  22.044  0.00  0.00    -0.000 C 
BRANCH  22  24
ATOM     23  C   UNL     1       9.418  -0.897  21.543  0.00  0.00    +0.004 C 
ATOM     24  C   UNL     1       9.040   0.563  21.387  0.00  0.00    -0.003 C 
ENDBRANCH  22  24
ENDBRANCH  21  22
ENDBRANCH  20  21
ENDBRANCH  19  20
ENDBRANCH  18  19
ENDBRANCH  17  18
ENDBRANCH  16  17
ENDBRANCH  15  16
ENDBRANCH  14  15
ENDBRANCH   1  14
TORSDOF 11
ENDMDL
MODEL 6
REMARK VINA RESULT:      -5.7      3.165      5.297
REMARK  Name = 
REMARK  12 active torsions:
REMARK  status: ('A' for Active; 'I' for Inactive)
REMARK    1  A    between atoms: C_1  and  C_2
REMARK    2  A    between atoms: C_2  and  C_3
REMARK    3  A    between atoms: C_3  and  C_4
REMARK    4  A    between atoms: C_4  and  C_5
REMARK    5  A    between atoms: C_5  and  C_6
REMARK    6  A    between atoms: C_6  and  C_7
REMARK    7  A    between atoms: C_7  and  C_8
REMARK    8  A    between atoms: C_8  and  C_9
REMARK    9  A    between atoms: C_9  and  C_10
REMARK   10  A    between atoms: C_10  and  C_11
REMARK   11  A    between atoms: C_11  and  C_12
REMARK   12  A    between atoms: C_13  and  O_14
REMARK                            x       y       z     vdW  Elec       q    Type
REMARK                         _______ _______ _______ _____ _____    ______ ____
ROOT
ATOM      1  C   UNL     1       9.624  -0.841  24.525  0.00  0.00    +0.047 C 
ATOM      2  C   UNL     1       9.405  -1.657  23.268  0.00  0.00    +0.212 C 
ATOM      3  O   UNL     1      10.083  -1.476  22.264  0.00  0.00    -0.285 OA
ATOM      4  C   UNL     1       8.329  -2.633  23.356  0.00  0.00    +0.129 A 
ATOM      5  N   UNL     1       7.898  -3.406  22.285  0.00  0.00    -0.243 NA
ATOM      6  C   UNL     1       6.908  -4.181  22.673  0.00  0.00    +0.157 A 
ATOM      7  S   UNL     1       6.449  -4.048  24.322  0.00  0.00    -0.071 S 
ATOM      8  C   UNL     1       7.645  -2.857  24.527  0.00  0.00    +0.093 A 
ATOM      9  C   UNL     1       7.895  -2.168  25.758  0.00  0.00    +0.236 C 
ATOM     10  O   UNL     1       7.330  -2.406  26.821  0.00  0.00    -0.283 OA
ATOM     11  C   UNL     1       8.933  -1.063  25.666  0.00  0.00    +0.172 C 
ENDROOT
BRANCH  11  12
ATOM     12  O   UNL     1       9.103  -0.300  26.814  0.00  0.00    -0.503 OA
ATOM     13  H   UNL     1       8.386   0.344  26.914  0.00  0.00    +0.292 HD
ENDBRANCH  11  12
BRANCH   1  14
ATOM     14  C   UNL     1      10.700   0.214  24.390  0.00  0.00    +0.043 C 
BRANCH  14  15
ATOM     15  C   UNL     1      10.102   1.594  24.110  0.00  0.00    +0.005 C 
BRANCH  15  16
ATOM     16  C   UNL     1      10.299   1.984  22.647  0.00  0.00    +0.000 C 
BRANCH  16  17
ATOM     17  C   UNL     1       8.991   1.877  21.868  0.00  0.00    +0.000 C 
BRANCH  17  18
ATOM     18  C   UNL     1       7.809   2.340  22.714  0.00  0.00    +0.000 C 
BRANCH  18  19
ATOM     19  C   UNL     1       7.145   3.564  22.093  0.00  0.00    +0.000 C 
BRANCH  19  20
ATOM     20  C   UNL     1       7.439   4.820  22.906  0.00  0.00    -0.000 C 
BRANCH  20  21
ATOM     21  C   UNL     1       7.756   4.469  24.357  0.00  0.00    -0.000 C 
BRANCH  21  22
ATOM     22  C   UNL     1       9.058   5.129  24.805  0.00  0.00    -0.000 C 
BRANCH  22  24
ATOM     23  C   UNL     1      11.220   5.650  23.642  0.00  0.00    +0.004 C 
ATOM     24  C   UNL     1       9.721   5.883  23.655  0.00  0.00    -0.003 C 
ENDBRANCH  22  24
ENDBRANCH  21  22
ENDBRANCH  20  21
ENDBRANCH  19  20
ENDBRANCH  18  19
ENDBRANCH  17  18
ENDBRANCH  16  17
ENDBRANCH  15  16
ENDBRANCH  14  15
ENDBRANCH   1  14
TORSDOF 11
ENDMDL
MODEL 7
REMARK VINA RESULT:      -5.7      1.544      2.534
REMARK  Name = 
REMARK  12 active torsions:
REMARK  status: ('A' for Active; 'I' for Inactive)
REMARK    1  A    between atoms: C_1  and  C_2
REMARK    2  A    between atoms: C_2  and  C_3
REMARK    3  A    between atoms: C_3  and  C_4
REMARK    4  A    between atoms: C_4  and  C_5
REMARK    5  A    between atoms: C_5  and  C_6
REMARK    6  A    between atoms: C_6  and  C_7
REMARK    7  A    between atoms: C_7  and  C_8
REMARK    8  A    between atoms: C_8  and  C_9
REMARK    9  A    between atoms: C_9  and  C_10
REMARK   10  A    between atoms: C_10  and  C_11
REMARK   11  A    between atoms: C_11  and  C_12
REMARK   12  A    between atoms: C_13  and  O_14
REMARK                            x       y       z     vdW  Elec       q    Type
REMARK                         _______ _______ _______ _____ _____    ______ ____
ROOT
ATOM      1  C   UNL     1       7.705  -4.796  24.478  0.00  0.00    +0.047 C 
ATOM      2  C   UNL     1       7.190  -5.313  25.805  0.00  0.00    +0.212 C 
ATOM      3  O   UNL     1       7.849  -5.200  26.831  0.00  0.00    -0.285 OA
ATOM      4  C   UNL     1       5.886  -5.955  25.743  0.00  0.00    +0.129 A 
ATOM      5  N   UNL     1       5.285  -6.587  26.825  0.00  0.00    -0.243 NA
ATOM      6  C   UNL     1       4.122  -7.079  26.455  0.00  0.00    +0.157 A 
ATOM      7  S   UNL     1       3.674  -6.806  24.820  0.00  0.00    -0.071 S 
ATOM      8  C   UNL     1       5.147  -5.990  24.585  0.00  0.00    +0.093 A 
ATOM      9  C   UNL     1       5.566  -5.425  23.337  0.00  0.00    +0.236 C 
ATOM     10  O   UNL     1       4.885  -5.399  22.316  0.00  0.00    -0.283 OA
ATOM     11  C   UNL     1       6.972  -4.850  23.342  0.00  0.00    +0.172 C 
ENDROOT
BRANCH  11  12
ATOM     12  O   UNL     1       7.446  -4.409  22.113  0.00  0.00    -0.503 OA
ATOM     13  H   UNL     1       7.923  -5.115  21.650  0.00  0.00    +0.292 HD
ENDBRANCH  11  12
BRANCH   1  14
ATOM     14  C   UNL     1       9.090  -4.194  24.550  0.00  0.00    +0.043 C 
BRANCH  14  15
ATOM     15  C   UNL     1       9.035  -2.671  24.686  0.00  0.00    +0.005 C 
BRANCH  15  16
ATOM     16  C   UNL     1       9.721  -1.994  23.502  0.00  0.00    +0.000 C 
BRANCH  16  17
ATOM     17  C   UNL     1       8.718  -1.213  22.657  0.00  0.00    +0.000 C 
BRANCH  17  18
ATOM     18  C   UNL     1       9.412  -0.504  21.497  0.00  0.00    +0.000 C 
BRANCH  18  19
ATOM     19  C   UNL     1       9.041   0.975  21.468  0.00  0.00    +0.000 C 
BRANCH  19  20
ATOM     20  C   UNL     1      10.142   1.830  22.086  0.00  0.00    -0.000 C 
BRANCH  20  21
ATOM     21  C   UNL     1       9.598   2.670  23.239  0.00  0.00    -0.000 C 
BRANCH  21  22
ATOM     22  C   UNL     1       9.486   1.836  24.514  0.00  0.00    -0.000 C 
BRANCH  22  24
ATOM     23  C   UNL     1       7.855   0.583  25.952  0.00  0.00    +0.004 C 
ATOM     24  C   UNL     1       8.038   1.739  24.986  0.00  0.00    -0.003 C 
ENDBRANCH  22  24
ENDBRANCH  21  22
ENDBRANCH  20  21
ENDBRANCH  19  20
ENDBRANCH  18  19
ENDBRANCH  17  18
ENDBRANCH  16  17
ENDBRANCH  15  16
ENDBRANCH  14  15
ENDBRANCH   1  14
TORSDOF 11
ENDMDL
MODEL 8
REMARK VINA RESULT:      -5.6      3.469      5.372
REMARK  Name = 
REMARK  12 active torsions:
REMARK  status: ('A' for Active; 'I' for Inactive)
REMARK    1  A    between atoms: C_1  and  C_2
REMARK    2  A    between atoms: C_2  and  C_3
REMARK    3  A    between atoms: C_3  and  C_4
REMARK    4  A    between atoms: C_4  and  C_5
REMARK    5  A    between atoms: C_5  and  C_6
REMARK    6  A    between atoms: C_6  and  C_7
REMARK    7  A    between atoms: C_7  and  C_8
REMARK    8  A    between atoms: C_8  and  C_9
REMARK    9  A    between atoms: C_9  and  C_10
REMARK   10  A    between atoms: C_10  and  C_11
REMARK   11  A    between atoms: C_11  and  C_12
REMARK   12  A    between atoms: C_13  and  O_14
REMARK                            x       y       z     vdW  Elec       q    Type
REMARK                         _______ _______ _______ _____ _____    ______ ____
ROOT
ATOM      1  C   UNL     1       9.702  -0.488  24.010  0.00  0.00    +0.047 C 
ATOM      2  C   UNL     1       9.962  -1.935  23.648  0.00  0.00    +0.212 C 
ATOM      3  O   UNL     1      10.630  -2.236  22.667  0.00  0.00    -0.285 OA
ATOM      4  C   UNL     1       9.344  -2.905  24.539  0.00  0.00    +0.129 A 
ATOM      5  N   UNL     1       9.372  -4.278  24.324  0.00  0.00    -0.243 NA
ATOM      6  C   UNL     1       8.720  -4.887  25.291  0.00  0.00    +0.157 A 
ATOM      7  S   UNL     1       8.056  -3.873  26.507  0.00  0.00    -0.071 S 
ATOM      8  C   UNL     1       8.668  -2.524  25.673  0.00  0.00    +0.093 A 
ATOM      9  C   UNL     1       8.487  -1.166  26.093  0.00  0.00    +0.236 C 
ATOM     10  O   UNL     1       7.938  -0.823  27.135  0.00  0.00    -0.283 OA
ATOM     11  C   UNL     1       9.022  -0.126  25.123  0.00  0.00    +0.172 C 
ENDROOT
BRANCH  11  12
ATOM     12  O   UNL     1       8.749   1.195  25.448  0.00  0.00    -0.503 OA
ATOM     13  H   UNL     1       9.027   1.794  24.738  0.00  0.00    +0.292 HD
ENDBRANCH  11  12
BRANCH   1  14
ATOM     14  C   UNL     1      10.295   0.504  23.035  0.00  0.00    +0.043 C 
BRANCH  14  15
ATOM     15  C   UNL     1       9.617   0.420  21.666  0.00  0.00    +0.005 C 
BRANCH  15  16
ATOM     16  C   UNL     1       8.517   1.471  21.539  0.00  0.00    +0.000 C 
BRANCH  16  17
ATOM     17  C   UNL     1       8.851   2.719  22.353  0.00  0.00    +0.000 C 
BRANCH  17  18
ATOM     18  C   UNL     1       7.582   3.452  22.779  0.00  0.00    +0.000 C 
BRANCH  18  19
ATOM     19  C   UNL     1       7.911   4.855  23.280  0.00  0.00    +0.000 C 
BRANCH  19  20
ATOM     20  C   UNL     1       8.332   4.830  24.746  0.00  0.00    -0.000 C 
BRANCH  20  21
ATOM     21  C   UNL     1       9.453   5.833  25.007  0.00  0.00    -0.000 C 
BRANCH  21  22
ATOM     22  C   UNL     1      10.239   6.116  23.729  0.00  0.00    -0.000 C 
BRANCH  22  24
ATOM     23  C   UNL     1      12.153   4.574  23.222  0.00  0.00    +0.004 C 
ATOM     24  C   UNL     1      11.729   5.850  23.924  0.00  0.00    -0.003 C 
ENDBRANCH  22  24
ENDBRANCH  21  22
ENDBRANCH  20  21
ENDBRANCH  19  20
ENDBRANCH  18  19
ENDBRANCH  17  18
ENDBRANCH  16  17
ENDBRANCH  15  16
ENDBRANCH  14  15
ENDBRANCH   1  14
TORSDOF 11
ENDMDL
MODEL 9
REMARK VINA RESULT:      -5.5      2.051      3.191
REMARK  Name = 
REMARK  12 active torsions:
REMARK  status: ('A' for Active; 'I' for Inactive)
REMARK    1  A    between atoms: C_1  and  C_2
REMARK    2  A    between atoms: C_2  and  C_3
REMARK    3  A    between atoms: C_3  and  C_4
REMARK    4  A    between atoms: C_4  and  C_5
REMARK    5  A    between atoms: C_5  and  C_6
REMARK    6  A    between atoms: C_6  and  C_7
REMARK    7  A    between atoms: C_7  and  C_8
REMARK    8  A    between atoms: C_8  and  C_9
REMARK    9  A    between atoms: C_9  and  C_10
REMARK   10  A    between atoms: C_10  and  C_11
REMARK   11  A    between atoms: C_11  and  C_12
REMARK   12  A    between atoms: C_13  and  O_14
REMARK                            x       y       z     vdW  Elec       q    Type
REMARK                         _______ _______ _______ _____ _____    ______ ____
ROOT
ATOM      1  C   UNL     1       7.491  -4.921  25.178  0.00  0.00    +0.047 C 
ATOM      2  C   UNL     1       6.743  -4.818  23.866  0.00  0.00    +0.212 C 
ATOM      3  O   UNL     1       7.234  -4.257  22.894  0.00  0.00    -0.285 OA
ATOM      4  C   UNL     1       5.415  -5.413  23.875  0.00  0.00    +0.129 A 
ATOM      5  N   UNL     1       4.527  -5.334  22.809  0.00  0.00    -0.243 NA
ATOM      6  C   UNL     1       3.410  -5.956  23.121  0.00  0.00    +0.157 A 
ATOM      7  S   UNL     1       3.360  -6.678  24.679  0.00  0.00    -0.071 S 
ATOM      8  C   UNL     1       4.934  -6.102  24.962  0.00  0.00    +0.093 A 
ATOM      9  C   UNL     1       5.657  -6.298  26.183  0.00  0.00    +0.236 C 
ATOM     10  O   UNL     1       5.257  -6.963  27.135  0.00  0.00    -0.283 OA
ATOM     11  C   UNL     1       6.999  -5.590  26.247  0.00  0.00    +0.172 C 
ENDROOT
BRANCH  11  12
ATOM     12  O   UNL     1       7.661  -5.663  27.464  0.00  0.00    -0.503 OA
ATOM     13  H   UNL     1       8.608  -5.828  27.337  0.00  0.00    +0.292 HD
ENDBRANCH  11  12
BRANCH   1  14
ATOM     14  C   UNL     1       8.840  -4.237  25.169  0.00  0.00    +0.043 C 
BRANCH  14  15
ATOM     15  C   UNL     1       8.757  -2.822  25.746  0.00  0.00    +0.005 C 
BRANCH  15  16
ATOM     16  C   UNL     1       9.117  -1.782  24.687  0.00  0.00    +0.000 C 
BRANCH  16  17
ATOM     17  C   UNL     1      10.069  -2.365  23.645  0.00  0.00    +0.000 C 
BRANCH  17  18
ATOM     18  C   UNL     1      10.029  -1.556  22.352  0.00  0.00    +0.000 C 
BRANCH  18  19
ATOM     19  C   UNL     1      10.240  -0.072  22.635  0.00  0.00    +0.000 C 
BRANCH  19  20
ATOM     20  C   UNL     1       9.171   0.776  21.953  0.00  0.00    -0.000 C 
BRANCH  20  21
ATOM     21  C   UNL     1       9.473   2.263  22.112  0.00  0.00    -0.000 C 
BRANCH  21  22
ATOM     22  C   UNL     1      10.405   2.507  23.296  0.00  0.00    -0.000 C 
BRANCH  22  24
ATOM     23  C   UNL     1      12.003   4.443  23.297  0.00  0.00    +0.004 C 
ATOM     24  C   UNL     1      10.578   3.999  23.568  0.00  0.00    -0.003 C 
ENDBRANCH  22  24
ENDBRANCH  21  22
ENDBRANCH  20  21
ENDBRANCH  19  20
ENDBRANCH  18  19
ENDBRANCH  17  18
ENDBRANCH  16  17
ENDBRANCH  15  16
ENDBRANCH  14  15
ENDBRANCH   1  14
TORSDOF 11
ENDMDL
