MODEL 1
REMARK VINA RESULT:      -2.3      0.000      0.000
REMARK  Name = 
REMARK  51 active torsions:
REMARK  status: ('A' for Active; 'I' for Inactive)
REMARK    1  A    between atoms: N_1  and  C_2
REMARK    2  A    between atoms: C_2  and  C_3
REMARK    3  A    between atoms: C_2  and  C_59
REMARK    4  A    between atoms: C_3  and  O_4
REMARK    5  A    between atoms: O_4  and  C_5
REMARK    6  A    between atoms: N_7  and  C_8
REMARK    7  A    between atoms: C_8  and  C_9
REMARK    8  A    between atoms: C_9  and  N_10
REMARK    9  A    between atoms: N_10  and  C_11
REMARK   10  A    between atoms: C_12  and  N_13
REMARK   11  A    between atoms: N_13  and  C_14
REMARK   12  A    between atoms: C_14  and  C_15
REMARK   13  A    between atoms: C_15  and  C_16
REMARK   14  A    between atoms: C_16  and  N_17
REMARK   15  A    between atoms: N_20  and  C_21
REMARK   16  A    between atoms: C_21  and  C_22
REMARK   17  A    between atoms: C_22  and  C_23
REMARK   18  A    between atoms: C_23  and  N_24
REMARK   19  A    between atoms: C_25  and  C_27
REMARK   20  A    between atoms: C_29  and  O_30
REMARK   21  A    between atoms: O_30  and  C_31
REMARK   22  A    between atoms: C_34  and  C_36
REMARK   23  A    between atoms: C_36  and  O_37
REMARK   24  A    between atoms: C_38  and  O_40
REMARK   25  A    between atoms: C_41  and  O_43
REMARK   26  A    between atoms: C_44  and  O_46
REMARK   27  A    between atoms: C_48  and  N_50
REMARK   28  A    between atoms: C_59  and  O_60
REMARK   29  A    between atoms: O_60  and  C_61
REMARK   30  A    between atoms: N_63  and  C_64
REMARK   31  A    between atoms: C_64  and  C_65
REMARK   32  A    between atoms: C_65  and  N_66
REMARK   33  A    between atoms: N_66  and  C_67
REMARK   34  A    between atoms: C_68  and  N_69
REMARK   35  A    between atoms: N_69  and  C_70
REMARK   36  A    between atoms: C_70  and  C_71
REMARK   37  A    between atoms: C_71  and  C_72
REMARK   38  A    between atoms: C_72  and  N_73
REMARK   39  A    between atoms: N_76  and  C_77
REMARK   40  A    between atoms: C_77  and  C_78
REMARK   41  A    between atoms: C_78  and  C_79
REMARK   42  A    between atoms: C_79  and  N_80
REMARK   43  A    between atoms: C_81  and  C_83
REMARK   44  A    between atoms: C_85  and  O_86
REMARK   45  A    between atoms: O_86  and  C_87
REMARK   46  A    between atoms: C_90  and  C_92
REMARK   47  A    between atoms: C_92  and  O_93
REMARK   48  A    between atoms: C_94  and  O_96
REMARK   49  A    between atoms: C_97  and  O_99
REMARK   50  A    between atoms: C_100  and  O_102
REMARK   51  A    between atoms: C_104  and  N_106
REMARK                            x       y       z     vdW  Elec       q    Type
REMARK                         _______ _______ _______ _____ _____    ______ ____
ROOT
ATOM      1  C   UNL     1      10.129  -3.596  23.853  0.00  0.00    +0.127 C 
ENDROOT
BRANCH   1   2
ATOM      2  N   UNL     1       9.706  -3.816  25.253  0.00  0.00    -0.322 NA
ATOM      3  H   UNL     1       8.691  -3.718  25.322  0.00  0.00    +0.119 HD
ATOM      4  H   UNL     1       9.899  -4.791  25.491  0.00  0.00    +0.119 HD
ENDBRANCH   1   2
BRANCH   1   5
ATOM      5  C   UNL     1      10.433  -2.106  23.566  0.00  0.00    +0.255 C 
BRANCH   5   6
ATOM      6  O   UNL     1       9.344  -1.259  24.015  0.00  0.00    -0.449 OA
BRANCH   6   7
ATOM      7  C   UNL     1       9.490  -0.680  25.238  0.00  0.00    +0.400 C 
ATOM      8  N   UNL     1       9.115  -1.567  26.213  0.00  0.00    -0.280 N 
ATOM      9  H   UNL     1       8.722  -2.406  25.796  0.00  0.00    +0.152 HD
ATOM     10  O   UNL     1       9.798   0.485  25.422  0.00  0.00    -0.226 OA
BRANCH   8  11
ATOM     11  C   UNL     1       8.534  -1.195  27.507  0.00  0.00    +0.126 C 
BRANCH  11  12
ATOM     12  C   UNL     1       7.532  -0.024  27.551  0.00  0.00    +0.120 C 
BRANCH  12  13
ATOM     13  N   UNL     1       8.166   1.306  27.703  0.00  0.00    -0.338 N 
ATOM     14  H   UNL     1       9.107   1.161  27.298  0.00  0.00    +0.146 HD
BRANCH  13  15
ATOM     15  C   UNL     1       7.581   2.416  27.266  0.00  0.00    +0.103 C 
ATOM     16  C   UNL     1       7.488   3.006  25.884  0.00  0.00    +0.250 C 
ATOM     17  O   UNL     1       7.541   2.703  24.713  0.00  0.00    -0.282 OA
ATOM     18  C   UNL     1       6.953   4.218  26.512  0.00  0.00    +0.250 C 
ATOM     19  O   UNL     1       6.812   5.355  26.134  0.00  0.00    -0.282 OA
ATOM     20  C   UNL     1       6.779   3.420  27.747  0.00  0.00    +0.103 C 
BRANCH  20  21
ATOM     21  N   UNL     1       6.148   3.787  28.833  0.00  0.00    -0.339 N 
ATOM     22  H   UNL     1       5.233   4.228  28.739  0.00  0.00    +0.146 HD
BRANCH  21  23
ATOM     23  C   UNL     1       6.855   4.259  30.016  0.00  0.00    +0.103 C 
BRANCH  23  24
ATOM     24  C   UNL     1       6.158   5.520  30.485  0.00  0.00    +0.034 C 
BRANCH  24  25
ATOM     25  C   UNL     1       6.082   6.552  29.352  0.00  0.00    +0.086 C 
BRANCH  25  26
ATOM     26  N   UNL     1       4.705   7.019  29.118  0.00  0.00    -0.300 NA
ATOM     27  C   UNL     1       3.827   6.620  30.249  0.00  0.00    +0.100 C 
ATOM     28  C   UNL     1       3.409   5.123  30.282  0.00  0.00    +0.100 C 
ATOM     29  N   UNL     1       2.930   4.576  28.991  0.00  0.00    -0.300 NA
ATOM     30  C   UNL     1       3.901   4.943  27.941  0.00  0.00    +0.100 C 
ATOM     31  C   UNL     1       4.137   6.466  27.870  0.00  0.00    +0.100 C 
BRANCH  29  32
ATOM     32  C   UNL     1       1.570   5.065  28.691  0.00  0.00    +0.086 C 
BRANCH  32  33
ATOM     33  C   UNL     1       1.025   4.506  27.378  0.00  0.00    +0.034 C 
BRANCH  33  34
ATOM     34  C   UNL     1       0.456   5.624  26.515  0.00  0.00    +0.106 C 
BRANCH  34  35
ATOM     35  N   UNL     1       1.172   5.689  25.257  0.00  0.00    -0.311 N 
ATOM     36  H   UNL     1       0.928   4.977  24.580  0.00  0.00    +0.149 HD
ATOM     37  C   UNL     1       2.301   6.444  25.111  0.00  0.00    +0.244 C 
ATOM     38  O   UNL     1       2.816   7.108  26.006  0.00  0.00    -0.270 OA
BRANCH  37  39
ATOM     39  C   UNL     1       2.909   6.374  23.767  0.00  0.00    +0.047 A 
ATOM     40  C   UNL     1       2.093   6.254  22.646  0.00  0.00    +0.097 A 
ATOM     41  C   UNL     1       2.698   6.219  21.387  0.00  0.00    +0.277 A 
ATOM     42  C   UNL     1       4.094   6.328  21.254  0.00  0.00    +0.130 A 
ATOM     43  C   UNL     1       4.903   6.424  22.389  0.00  0.00    +0.131 A 
ATOM     44  C   UNL     1       4.303   6.414  23.638  0.00  0.00    +0.059 A 
BRANCH  41  45
ATOM     45  N   UNL     1       1.865   6.058  20.190  0.00  0.00    +0.080 N 
ATOM     46  O   UNL     1       2.387   6.286  19.090  0.00  0.00    +0.041 OA
ATOM     47  O   UNL     1       0.688   5.709  20.351  0.00  0.00    -0.576 OA
ENDBRANCH  41  45
BRANCH  43  48
ATOM     48  O   UNL     1       6.243   6.524  22.158  0.00  0.00    -0.461 OA
BRANCH  48  49
ATOM     49  C   UNL     1       7.162   5.574  22.730  0.00  0.00    +0.339 C 
ATOM     50  C   UNL     1       7.374   4.317  21.841  0.00  0.00    +0.214 C 
ATOM     51  C   UNL     1       8.335   3.349  22.551  0.00  0.00    +0.180 C 
ATOM     52  C   UNL     1       9.611   4.068  23.010  0.00  0.00    +0.177 C 
ATOM     53  C   UNL     1       9.257   5.295  23.857  0.00  0.00    +0.179 C 
ATOM     54  O   UNL     1       8.399   6.183  23.127  0.00  0.00    -0.331 OA
BRANCH  52  55
ATOM     55  O   UNL     1      10.435   3.133  23.715  0.00  0.00    -0.386 OA
ATOM     56  H   UNL     1      11.205   3.598  24.090  0.00  0.00    +0.210 HD
ENDBRANCH  52  55
BRANCH  50  57
ATOM     57  O   UNL     1       6.130   3.676  21.523  0.00  0.00    -0.383 OA
ATOM     58  H   UNL     1       5.396   4.197  21.888  0.00  0.00    +0.210 HD
ENDBRANCH  50  57
BRANCH  51  59
ATOM     59  O   UNL     1       8.703   2.272  21.678  0.00  0.00    -0.386 OA
ATOM     60  H   UNL     1       7.878   1.794  21.459  0.00  0.00    +0.210 HD
ENDBRANCH  51  59
BRANCH  53  61
ATOM     61  C   UNL     1      10.515   6.077  24.255  0.00  0.00    +0.190 C 
BRANCH  61  62
ATOM     62  O   UNL     1      11.667   5.437  23.708  0.00  0.00    -0.392 OA
ATOM     63  H   UNL     1      12.309   6.147  23.514  0.00  0.00    +0.210 HD
ENDBRANCH  61  62
ENDBRANCH  53  61
ENDBRANCH  48  49
ENDBRANCH  43  48
ENDBRANCH  37  39
ENDBRANCH  34  35
ENDBRANCH  33  34
ENDBRANCH  32  33
ENDBRANCH  29  32
ENDBRANCH  25  26
ENDBRANCH  24  25
ENDBRANCH  23  24
ENDBRANCH  21  23
ENDBRANCH  20  21
ENDBRANCH  13  15
ENDBRANCH  12  13
ENDBRANCH  11  12
ENDBRANCH   8  11
ENDBRANCH   6   7
ENDBRANCH   5   6
ENDBRANCH   1   5
BRANCH   1  64
ATOM     64  C   UNL     1       9.028  -4.202  22.965  0.00  0.00    +0.255 C 
BRANCH  64  65
ATOM     65  O   UNL     1       7.885  -4.409  23.839  0.00  0.00    -0.449 OA
BRANCH  65  66
ATOM     66  C   UNL     1       8.128  -4.976  25.041  0.00  0.00    +0.400 C 
ATOM     67  N   UNL     1       7.099  -4.687  25.889  0.00  0.00    -0.280 N 
ATOM     68  H   UNL     1       6.324  -4.154  25.518  0.00  0.00    +0.152 HD
ATOM     69  O   UNL     1       9.085  -5.679  25.314  0.00  0.00    -0.226 OA
BRANCH  67  70
ATOM     70  C   UNL     1       7.150  -5.046  27.292  0.00  0.00    +0.126 C 
BRANCH  70  71
ATOM     71  C   UNL     1       6.987  -6.559  27.496  0.00  0.00    +0.120 C 
BRANCH  71  72
ATOM     72  N   UNL     1       6.413  -6.852  28.804  0.00  0.00    -0.338 N 
ATOM     73  H   UNL     1       6.787  -7.689  29.252  0.00  0.00    +0.146 HD
BRANCH  72  74
ATOM     74  C   UNL     1       5.292  -6.323  29.251  0.00  0.00    +0.103 C 
ATOM     75  C   UNL     1       4.931  -4.927  29.627  0.00  0.00    +0.250 C 
ATOM     76  O   UNL     1       5.427  -3.827  29.669  0.00  0.00    -0.282 OA
ATOM     77  C   UNL     1       3.559  -5.413  29.898  0.00  0.00    +0.250 C 
ATOM     78  O   UNL     1       2.565  -4.893  30.344  0.00  0.00    -0.282 OA
ATOM     79  C   UNL     1       4.018  -6.766  29.502  0.00  0.00    +0.103 C 
BRANCH  79  80
ATOM     80  N   UNL     1       3.329  -7.890  29.436  0.00  0.00    -0.339 N 
ATOM     81  H   UNL     1       3.261  -8.355  28.528  0.00  0.00    +0.146 HD
BRANCH  80  82
ATOM     82  C   UNL     1       2.057  -8.033  30.150  0.00  0.00    +0.103 C 
BRANCH  82  83
ATOM     83  C   UNL     1       0.873  -7.767  29.212  0.00  0.00    +0.034 C 
BRANCH  83  84
ATOM     84  C   UNL     1       0.762  -8.751  28.031  0.00  0.00    +0.086 C 
BRANCH  84  85
ATOM     85  N   UNL     1       0.482  -8.107  26.732  0.00  0.00    -0.300 NA
ATOM     86  C   UNL     1       0.443  -9.107  25.635  0.00  0.00    +0.100 C 
ATOM     87  C   UNL     1       1.818  -9.696  25.217  0.00  0.00    +0.100 C 
ATOM     88  N   UNL     1       2.926  -8.726  25.062  0.00  0.00    -0.300 NA
ATOM     89  C   UNL     1       2.896  -7.735  26.155  0.00  0.00    +0.100 C 
ATOM     90  C   UNL     1       1.507  -7.106  26.374  0.00  0.00    +0.100 C 
BRANCH  88  91
ATOM     91  C   UNL     1       2.929  -8.100  23.731  0.00  0.00    +0.086 C 
BRANCH  91  92
ATOM     92  C   UNL     1       1.552  -8.168  23.057  0.00  0.00    +0.034 C 
BRANCH  92  93
ATOM     93  C   UNL     1       0.956  -6.772  22.889  0.00  0.00    +0.106 C 
BRANCH  93  94
ATOM     94  N   UNL     1       1.389  -5.876  23.935  0.00  0.00    -0.311 N 
ATOM     95  H   UNL     1       0.973  -5.990  24.848  0.00  0.00    +0.149 HD
ATOM     96  C   UNL     1       2.426  -5.000  23.722  0.00  0.00    +0.244 C 
ATOM     97  O   UNL     1       3.039  -4.911  22.662  0.00  0.00    -0.270 OA
BRANCH  96  98
ATOM     98  C   UNL     1       2.801  -4.121  24.854  0.00  0.00    +0.047 A 
ATOM     99  C   UNL     1       1.922  -3.833  25.897  0.00  0.00    +0.097 A 
ATOM    100  C   UNL     1       2.310  -2.931  26.889  0.00  0.00    +0.277 A 
ATOM    101  C   UNL     1       3.563  -2.275  26.817  0.00  0.00    +0.130 A 
ATOM    102  C   UNL     1       4.418  -2.540  25.742  0.00  0.00    +0.131 A 
ATOM    103  C   UNL     1       4.057  -3.506  24.804  0.00  0.00    +0.059 A 
BRANCH 100 104
ATOM    104  N   UNL     1       1.411  -2.670  28.011  0.00  0.00    +0.080 N 
ATOM    105  O   UNL     1       0.588  -3.558  28.294  0.00  0.00    +0.041 OA
ATOM    106  O   UNL     1       1.523  -1.598  28.610  0.00  0.00    -0.576 OA
ENDBRANCH 100 104
BRANCH 102 107
ATOM    107  O   UNL     1       5.577  -1.810  25.688  0.00  0.00    -0.461 OA
BRANCH 107 108
ATOM    108  C   UNL     1       5.437  -0.379  25.815  0.00  0.00    +0.339 C 
ATOM    109  C   UNL     1       5.248   0.237  24.411  0.00  0.00    +0.214 C 
ATOM    110  C   UNL     1       4.958   1.737  24.548  0.00  0.00    +0.180 C 
ATOM    111  C   UNL     1       3.794   1.994  25.503  0.00  0.00    +0.177 C 
ATOM    112  C   UNL     1       4.099   1.327  26.846  0.00  0.00    +0.179 C 
ATOM    113  O   UNL     1       4.326  -0.082  26.673  0.00  0.00    -0.331 OA
BRANCH 109 114
ATOM    114  O   UNL     1       6.450   0.050  23.642  0.00  0.00    -0.383 OA
ATOM    115  H   UNL     1       6.361   0.582  22.829  0.00  0.00    +0.210 HD
ENDBRANCH 109 114
BRANCH 110 116
ATOM    116  O   UNL     1       4.671   2.305  23.263  0.00  0.00    -0.386 OA
ATOM    117  H   UNL     1       3.714   2.174  23.108  0.00  0.00    +0.210 HD
ENDBRANCH 110 116
BRANCH 111 118
ATOM    118  O   UNL     1       3.599   3.408  25.616  0.00  0.00    -0.386 OA
ATOM    119  H   UNL     1       3.360   3.769  24.743  0.00  0.00    +0.210 HD
ENDBRANCH 111 118
BRANCH 112 120
ATOM    120  C   UNL     1       2.933   1.503  27.823  0.00  0.00    +0.190 C 
BRANCH 120 121
ATOM    121  O   UNL     1       3.443   1.780  29.127  0.00  0.00    -0.392 OA
ATOM    122  H   UNL     1       4.412   1.837  29.031  0.00  0.00    +0.210 HD
ENDBRANCH 120 121
ENDBRANCH 112 120
ENDBRANCH 107 108
ENDBRANCH 102 107
ENDBRANCH  96  98
ENDBRANCH  93  94
ENDBRANCH  92  93
ENDBRANCH  91  92
ENDBRANCH  88  91
ENDBRANCH  84  85
ENDBRANCH  83  84
ENDBRANCH  82  83
ENDBRANCH  80  82
ENDBRANCH  79  80
ENDBRANCH  72  74
ENDBRANCH  71  72
ENDBRANCH  70  71
ENDBRANCH  67  70
ENDBRANCH  65  66
ENDBRANCH  64  65
ENDBRANCH   1  64
TORSDOF 51
ENDMDL
MODEL 2
REMARK VINA RESULT:      -0.2      2.258      9.035
REMARK  Name = 
REMARK  51 active torsions:
REMARK  status: ('A' for Active; 'I' for Inactive)
REMARK    1  A    between atoms: N_1  and  C_2
REMARK    2  A    between atoms: C_2  and  C_3
REMARK    3  A    between atoms: C_2  and  C_59
REMARK    4  A    between atoms: C_3  and  O_4
REMARK    5  A    between atoms: O_4  and  C_5
REMARK    6  A    between atoms: N_7  and  C_8
REMARK    7  A    between atoms: C_8  and  C_9
REMARK    8  A    between atoms: C_9  and  N_10
REMARK    9  A    between atoms: N_10  and  C_11
REMARK   10  A    between atoms: C_12  and  N_13
REMARK   11  A    between atoms: N_13  and  C_14
REMARK   12  A    between atoms: C_14  and  C_15
REMARK   13  A    between atoms: C_15  and  C_16
REMARK   14  A    between atoms: C_16  and  N_17
REMARK   15  A    between atoms: N_20  and  C_21
REMARK   16  A    between atoms: C_21  and  C_22
REMARK   17  A    between atoms: C_22  and  C_23
REMARK   18  A    between atoms: C_23  and  N_24
REMARK   19  A    between atoms: C_25  and  C_27
REMARK   20  A    between atoms: C_29  and  O_30
REMARK   21  A    between atoms: O_30  and  C_31
REMARK   22  A    between atoms: C_34  and  C_36
REMARK   23  A    between atoms: C_36  and  O_37
REMARK   24  A    between atoms: C_38  and  O_40
REMARK   25  A    between atoms: C_41  and  O_43
REMARK   26  A    between atoms: C_44  and  O_46
REMARK   27  A    between atoms: C_48  and  N_50
REMARK   28  A    between atoms: C_59  and  O_60
REMARK   29  A    between atoms: O_60  and  C_61
REMARK   30  A    between atoms: N_63  and  C_64
REMARK   31  A    between atoms: C_64  and  C_65
REMARK   32  A    between atoms: C_65  and  N_66
REMARK   33  A    between atoms: N_66  and  C_67
REMARK   34  A    between atoms: C_68  and  N_69
REMARK   35  A    between atoms: N_69  and  C_70
REMARK   36  A    between atoms: C_70  and  C_71
REMARK   37  A    between atoms: C_71  and  C_72
REMARK   38  A    between atoms: C_72  and  N_73
REMARK   39  A    between atoms: N_76  and  C_77
REMARK   40  A    between atoms: C_77  and  C_78
REMARK   41  A    between atoms: C_78  and  C_79
REMARK   42  A    between atoms: C_79  and  N_80
REMARK   43  A    between atoms: C_81  and  C_83
REMARK   44  A    between atoms: C_85  and  O_86
REMARK   45  A    between atoms: O_86  and  C_87
REMARK   46  A    between atoms: C_90  and  C_92
REMARK   47  A    between atoms: C_92  and  O_93
REMARK   48  A    between atoms: C_94  and  O_96
REMARK   49  A    between atoms: C_97  and  O_99
REMARK   50  A    between atoms: C_100  and  O_102
REMARK   51  A    between atoms: C_104  and  N_106
REMARK                            x       y       z     vdW  Elec       q    Type
REMARK                         _______ _______ _______ _____ _____    ______ ____
ROOT
ATOM      1  C   UNL     1      10.535  -3.905  25.276  0.00  0.00    +0.127 C 
ENDROOT
BRANCH   1   2
ATOM      2  N   UNL     1      11.078  -4.949  24.379  0.00  0.00    -0.322 NA
ATOM      3  H   UNL     1      11.796  -4.540  23.777  0.00  0.00    +0.119 HD
ATOM      4  H   UNL     1      11.568  -5.635  24.956  0.00  0.00    +0.119 HD
ENDBRANCH   1   2
BRANCH   1   5
ATOM      5  C   UNL     1      10.394  -4.408  26.733  0.00  0.00    +0.255 C 
BRANCH   5   6
ATOM      6  O   UNL     1       9.146  -3.955  27.319  0.00  0.00    -0.449 OA
BRANCH   6   7
ATOM      7  C   UNL     1       8.003  -4.396  26.726  0.00  0.00    +0.400 C 
ATOM      8  N   UNL     1       7.940  -5.763  26.811  0.00  0.00    -0.280 N 
ATOM      9  H   UNL     1       8.802  -6.133  27.201  0.00  0.00    +0.152 HD
ATOM     10  O   UNL     1       7.219  -3.688  26.116  0.00  0.00    -0.226 OA
BRANCH   8  11
ATOM     11  C   UNL     1       7.286  -6.635  25.830  0.00  0.00    +0.126 C 
BRANCH  11  12
ATOM     12  C   UNL     1       5.941  -6.181  25.228  0.00  0.00    +0.120 C 
BRANCH  12  13
ATOM     13  N   UNL     1       4.860  -6.014  26.226  0.00  0.00    -0.338 N 
ATOM     14  H   UNL     1       4.079  -6.553  25.814  0.00  0.00    +0.146 HD
BRANCH  13  15
ATOM     15  C   UNL     1       5.048  -6.281  27.514  0.00  0.00    +0.103 C 
ATOM     16  C   UNL     1       5.774  -5.515  28.587  0.00  0.00    +0.250 C 
ATOM     17  O   UNL     1       6.142  -4.398  28.877  0.00  0.00    -0.282 OA
ATOM     18  C   UNL     1       5.631  -6.700  29.437  0.00  0.00    +0.250 C 
ATOM     19  O   UNL     1       6.166  -7.061  30.456  0.00  0.00    -0.282 OA
ATOM     20  C   UNL     1       4.655  -7.208  28.446  0.00  0.00    +0.103 C 
BRANCH  20  21
ATOM     21  N   UNL     1       3.881  -8.256  28.576  0.00  0.00    -0.339 N 
ATOM     22  H   UNL     1       4.017  -9.043  27.940  0.00  0.00    +0.146 HD
BRANCH  21  23
ATOM     23  C   UNL     1       2.494  -8.146  29.008  0.00  0.00    +0.103 C 
BRANCH  23  24
ATOM     24  C   UNL     1       2.506  -7.644  30.437  0.00  0.00    +0.034 C 
BRANCH  24  25
ATOM     25  C   UNL     1       2.237  -6.135  30.485  0.00  0.00    +0.086 C 
BRANCH  25  26
ATOM     26  N   UNL     1       1.224  -5.720  29.499  0.00  0.00    -0.300 NA
ATOM     27  C   UNL     1       1.875  -5.363  28.212  0.00  0.00    +0.100 C 
ATOM     28  C   UNL     1       2.599  -3.988  28.180  0.00  0.00    +0.100 C 
ATOM     29  N   UNL     1       1.822  -2.857  28.737  0.00  0.00    -0.300 NA
ATOM     30  C   UNL     1       1.284  -3.264  30.052  0.00  0.00    +0.100 C 
ATOM     31  C   UNL     1       0.443  -4.553  29.965  0.00  0.00    +0.100 C 
BRANCH  29  32
ATOM     32  C   UNL     1       0.758  -2.444  27.802  0.00  0.00    +0.086 C 
BRANCH  32  33
ATOM     33  C   UNL     1       1.311  -1.778  26.544  0.00  0.00    +0.034 C 
BRANCH  33  34
ATOM     34  C   UNL     1       0.980  -2.607  25.310  0.00  0.00    +0.106 C 
BRANCH  34  35
ATOM     35  N   UNL     1       2.156  -2.737  24.474  0.00  0.00    -0.311 N 
ATOM     36  H   UNL     1       2.153  -2.182  23.628  0.00  0.00    +0.149 HD
ATOM     37  C   UNL     1       3.051  -3.755  24.647  0.00  0.00    +0.244 C 
ATOM     38  O   UNL     1       2.942  -4.643  25.487  0.00  0.00    -0.270 OA
BRANCH  37  39
ATOM     39  C   UNL     1       4.178  -3.742  23.692  0.00  0.00    +0.047 A 
ATOM     40  C   UNL     1       4.389  -4.837  22.860  0.00  0.00    +0.097 A 
ATOM     41  C   UNL     1       5.447  -4.782  21.949  0.00  0.00    +0.277 A 
ATOM     42  C   UNL     1       6.262  -3.639  21.858  0.00  0.00    +0.130 A 
ATOM     43  C   UNL     1       6.054  -2.557  22.717  0.00  0.00    +0.131 A 
ATOM     44  C   UNL     1       5.031  -2.633  23.649  0.00  0.00    +0.059 A 
BRANCH  41  45
ATOM     45  N   UNL     1       5.714  -5.935  21.083  0.00  0.00    +0.080 N 
ATOM     46  O   UNL     1       6.283  -5.725  20.002  0.00  0.00    +0.041 OA
ATOM     47  O   UNL     1       5.352  -7.050  21.481  0.00  0.00    -0.576 OA
ENDBRANCH  41  45
BRANCH  43  48
ATOM     48  O   UNL     1       6.894  -1.497  22.552  0.00  0.00    -0.461 OA
BRANCH  48  49
ATOM     49  C   UNL     1       6.727  -0.297  23.330  0.00  0.00    +0.339 C 
ATOM     50  C   UNL     1       6.927   1.003  22.501  0.00  0.00    +0.214 C 
ATOM     51  C   UNL     1       6.770   2.223  23.423  0.00  0.00    +0.180 C 
ATOM     52  C   UNL     1       5.471   2.142  24.238  0.00  0.00    +0.177 C 
ATOM     53  C   UNL     1       5.394   0.806  24.987  0.00  0.00    +0.179 C 
ATOM     54  O   UNL     1       5.499  -0.294  24.072  0.00  0.00    -0.331 OA
BRANCH  52  55
ATOM     55  O   UNL     1       5.411   3.269  25.118  0.00  0.00    -0.386 OA
ATOM     56  H   UNL     1       6.311   3.491  25.422  0.00  0.00    +0.210 HD
ENDBRANCH  52  55
BRANCH  50  57
ATOM     57  O   UNL     1       8.197   1.015  21.833  0.00  0.00    -0.383 OA
ATOM     58  H   UNL     1       8.312   1.863  21.373  0.00  0.00    +0.210 HD
ENDBRANCH  50  57
BRANCH  51  59
ATOM     59  O   UNL     1       6.756   3.435  22.657  0.00  0.00    -0.386 OA
ATOM     60  H   UNL     1       7.290   4.087  23.153  0.00  0.00    +0.210 HD
ENDBRANCH  51  59
BRANCH  53  61
ATOM     61  C   UNL     1       4.065   0.668  25.740  0.00  0.00    +0.190 C 
BRANCH  61  62
ATOM     62  O   UNL     1       3.843  -0.704  26.065  0.00  0.00    -0.392 OA
ATOM     63  H   UNL     1       4.688  -1.043  26.418  0.00  0.00    +0.210 HD
ENDBRANCH  61  62
ENDBRANCH  53  61
ENDBRANCH  48  49
ENDBRANCH  43  48
ENDBRANCH  37  39
ENDBRANCH  34  35
ENDBRANCH  33  34
ENDBRANCH  32  33
ENDBRANCH  29  32
ENDBRANCH  25  26
ENDBRANCH  24  25
ENDBRANCH  23  24
ENDBRANCH  21  23
ENDBRANCH  20  21
ENDBRANCH  13  15
ENDBRANCH  12  13
ENDBRANCH  11  12
ENDBRANCH   8  11
ENDBRANCH   6   7
ENDBRANCH   5   6
ENDBRANCH   1   5
BRANCH   1  64
ATOM     64  C   UNL     1       9.219  -3.426  24.639  0.00  0.00    +0.255 C 
BRANCH  64  65
ATOM     65  O   UNL     1       9.518  -2.138  24.034  0.00  0.00    -0.449 OA
BRANCH  65  66
ATOM     66  C   UNL     1       9.536  -1.065  24.855  0.00  0.00    +0.400 C 
ATOM     67  N   UNL     1       8.438  -1.101  25.663  0.00  0.00    -0.280 N 
ATOM     68  H   UNL     1       7.817  -1.894  25.571  0.00  0.00    +0.152 HD
ATOM     69  O   UNL     1      10.419  -0.226  24.907  0.00  0.00    -0.226 OA
BRANCH  67  70
ATOM     70  C   UNL     1       8.117  -0.003  26.552  0.00  0.00    +0.126 C 
BRANCH  70  71
ATOM     71  C   UNL     1       9.298   0.345  27.471  0.00  0.00    +0.120 C 
BRANCH  71  72
ATOM     72  N   UNL     1       8.887   0.353  28.871  0.00  0.00    -0.338 N 
ATOM     73  H   UNL     1       9.365  -0.335  29.453  0.00  0.00    +0.146 HD
BRANCH  72  74
ATOM     74  C   UNL     1       7.787   0.926  29.313  0.00  0.00    +0.103 C 
ATOM     75  C   UNL     1       7.456   2.349  29.607  0.00  0.00    +0.250 C 
ATOM     76  O   UNL     1       7.967   3.442  29.563  0.00  0.00    -0.282 OA
ATOM     77  C   UNL     1       6.085   1.903  29.946  0.00  0.00    +0.250 C 
ATOM     78  O   UNL     1       5.112   2.465  30.384  0.00  0.00    -0.282 OA
ATOM     79  C   UNL     1       6.515   0.520  29.627  0.00  0.00    +0.103 C 
BRANCH  79  80
ATOM     80  N   UNL     1       5.809  -0.595  29.653  0.00  0.00    -0.339 N 
ATOM     81  H   UNL     1       5.703  -1.113  28.778  0.00  0.00    +0.146 HD
BRANCH  80  82
ATOM     82  C   UNL     1       4.562  -0.676  30.418  0.00  0.00    +0.103 C 
BRANCH  82  83
ATOM     83  C   UNL     1       3.358  -0.838  29.482  0.00  0.00    +0.034 C 
BRANCH  83  84
ATOM     84  C   UNL     1       2.939   0.453  28.753  0.00  0.00    +0.086 C 
BRANCH  84  85
ATOM     85  N   UNL     1       1.580   0.923  29.088  0.00  0.00    -0.300 NA
ATOM     86  C   UNL     1       0.911   1.519  27.904  0.00  0.00    +0.100 C 
ATOM     87  C   UNL     1       1.445   2.910  27.463  0.00  0.00    +0.100 C 
ATOM     88  N   UNL     1       1.674   3.896  28.544  0.00  0.00    -0.300 NA
ATOM     89  C   UNL     1       2.304   3.245  29.708  0.00  0.00    +0.100 C 
ATOM     90  C   UNL     1       1.591   1.952  30.147  0.00  0.00    +0.100 C 
BRANCH  88  91
ATOM     91  C   UNL     1       0.443   4.620  28.899  0.00  0.00    +0.086 C 
BRANCH  91  92
ATOM     92  C   UNL     1       0.728   5.860  29.755  0.00  0.00    +0.034 C 
BRANCH  92  93
ATOM     93  C   UNL     1       0.916   7.098  28.880  0.00  0.00    +0.106 C 
BRANCH  93  94
ATOM     94  N   UNL     1       1.325   6.748  27.539  0.00  0.00    -0.311 N 
ATOM     95  H   UNL     1       0.604   6.687  26.834  0.00  0.00    +0.149 HD
ATOM     96  C   UNL     1       2.657   6.644  27.217  0.00  0.00    +0.244 C 
ATOM     97  O   UNL     1       3.570   6.826  28.017  0.00  0.00    -0.270 OA
BRANCH  96  98
ATOM     98  C   UNL     1       2.978   6.282  25.817  0.00  0.00    +0.047 A 
ATOM     99  C   UNL     1       2.218   5.368  25.089  0.00  0.00    +0.097 A 
ATOM    100  C   UNL     1       2.626   5.011  23.802  0.00  0.00    +0.277 A 
ATOM    101  C   UNL     1       3.824   5.531  23.255  0.00  0.00    +0.130 A 
ATOM    102  C   UNL     1       4.601   6.414  24.013  0.00  0.00    +0.131 A 
ATOM    103  C   UNL     1       4.140   6.830  25.261  0.00  0.00    +0.059 A 
BRANCH 100 104
ATOM    104  N   UNL     1       1.800   4.094  23.019  0.00  0.00    +0.080 N 
ATOM    105  O   UNL     1       1.770   4.272  21.788  0.00  0.00    +0.041 OA
ATOM    106  O   UNL     1       1.191   3.204  23.616  0.00  0.00    -0.576 OA
ENDBRANCH 100 104
BRANCH 102 107
ATOM    107  O   UNL     1       5.788   6.814  23.458  0.00  0.00    -0.461 OA
BRANCH 107 108
ATOM    108  C   UNL     1       6.985   6.246  24.033  0.00  0.00    +0.339 C 
ATOM    109  C   UNL     1       8.172   6.498  23.078  0.00  0.00    +0.214 C 
ATOM    110  C   UNL     1       9.470   6.025  23.743  0.00  0.00    +0.180 C 
ATOM    111  C   UNL     1       9.644   6.643  25.128  0.00  0.00    +0.177 C 
ATOM    112  C   UNL     1       8.403   6.333  25.968  0.00  0.00    +0.179 C 
ATOM    113  O   UNL     1       7.217   6.828  25.324  0.00  0.00    -0.331 OA
BRANCH 109 114
ATOM    114  O   UNL     1       7.966   5.765  21.856  0.00  0.00    -0.383 OA
ATOM    115  H   UNL     1       7.367   6.294  21.297  0.00  0.00    +0.210 HD
ENDBRANCH 109 114
BRANCH 110 116
ATOM    116  O   UNL     1      10.597   6.349  22.917  0.00  0.00    -0.386 OA
ATOM    117  H   UNL     1      11.333   5.774  23.212  0.00  0.00    +0.210 HD
ENDBRANCH 110 116
BRANCH 111 118
ATOM    118  O   UNL     1      10.850   6.135  25.708  0.00  0.00    -0.386 OA
ATOM    119  H   UNL     1      11.232   6.810  26.298  0.00  0.00    +0.210 HD
ENDBRANCH 111 118
BRANCH 112 120
ATOM    120  C   UNL     1       8.499   6.985  27.351  0.00  0.00    +0.190 C 
BRANCH 120 121
ATOM    121  O   UNL     1       7.877   6.142  28.318  0.00  0.00    -0.392 OA
ATOM    122  H   UNL     1       7.315   6.724  28.864  0.00  0.00    +0.210 HD
ENDBRANCH 120 121
ENDBRANCH 112 120
ENDBRANCH 107 108
ENDBRANCH 102 107
ENDBRANCH  96  98
ENDBRANCH  93  94
ENDBRANCH  92  93
ENDBRANCH  91  92
ENDBRANCH  88  91
ENDBRANCH  84  85
ENDBRANCH  83  84
ENDBRANCH  82  83
ENDBRANCH  80  82
ENDBRANCH  79  80
ENDBRANCH  72  74
ENDBRANCH  71  72
ENDBRANCH  70  71
ENDBRANCH  67  70
ENDBRANCH  65  66
ENDBRANCH  64  65
ENDBRANCH   1  64
TORSDOF 51
ENDMDL
MODEL 3
REMARK VINA RESULT:      -0.2      2.357      6.487
REMARK  Name = 
REMARK  51 active torsions:
REMARK  status: ('A' for Active; 'I' for Inactive)
REMARK    1  A    between atoms: N_1  and  C_2
REMARK    2  A    between atoms: C_2  and  C_3
REMARK    3  A    between atoms: C_2  and  C_59
REMARK    4  A    between atoms: C_3  and  O_4
REMARK    5  A    between atoms: O_4  and  C_5
REMARK    6  A    between atoms: N_7  and  C_8
REMARK    7  A    between atoms: C_8  and  C_9
REMARK    8  A    between atoms: C_9  and  N_10
REMARK    9  A    between atoms: N_10  and  C_11
REMARK   10  A    between atoms: C_12  and  N_13
REMARK   11  A    between atoms: N_13  and  C_14
REMARK   12  A    between atoms: C_14  and  C_15
REMARK   13  A    between atoms: C_15  and  C_16
REMARK   14  A    between atoms: C_16  and  N_17
REMARK   15  A    between atoms: N_20  and  C_21
REMARK   16  A    between atoms: C_21  and  C_22
REMARK   17  A    between atoms: C_22  and  C_23
REMARK   18  A    between atoms: C_23  and  N_24
REMARK   19  A    between atoms: C_25  and  C_27
REMARK   20  A    between atoms: C_29  and  O_30
REMARK   21  A    between atoms: O_30  and  C_31
REMARK   22  A    between atoms: C_34  and  C_36
REMARK   23  A    between atoms: C_36  and  O_37
REMARK   24  A    between atoms: C_38  and  O_40
REMARK   25  A    between atoms: C_41  and  O_43
REMARK   26  A    between atoms: C_44  and  O_46
REMARK   27  A    between atoms: C_48  and  N_50
REMARK   28  A    between atoms: C_59  and  O_60
REMARK   29  A    between atoms: O_60  and  C_61
REMARK   30  A    between atoms: N_63  and  C_64
REMARK   31  A    between atoms: C_64  and  C_65
REMARK   32  A    between atoms: C_65  and  N_66
REMARK   33  A    between atoms: N_66  and  C_67
REMARK   34  A    between atoms: C_68  and  N_69
REMARK   35  A    between atoms: N_69  and  C_70
REMARK   36  A    between atoms: C_70  and  C_71
REMARK   37  A    between atoms: C_71  and  C_72
REMARK   38  A    between atoms: C_72  and  N_73
REMARK   39  A    between atoms: N_76  and  C_77
REMARK   40  A    between atoms: C_77  and  C_78
REMARK   41  A    between atoms: C_78  and  C_79
REMARK   42  A    between atoms: C_79  and  N_80
REMARK   43  A    between atoms: C_81  and  C_83
REMARK   44  A    between atoms: C_85  and  O_86
REMARK   45  A    between atoms: O_86  and  C_87
REMARK   46  A    between atoms: C_90  and  C_92
REMARK   47  A    between atoms: C_92  and  O_93
REMARK   48  A    between atoms: C_94  and  O_96
REMARK   49  A    between atoms: C_97  and  O_99
REMARK   50  A    between atoms: C_100  and  O_102
REMARK   51  A    between atoms: C_104  and  N_106
REMARK                            x       y       z     vdW  Elec       q    Type
REMARK                         _______ _______ _______ _____ _____    ______ ____
ROOT
ATOM      1  C   UNL     1       5.779  -3.398  20.324  0.00  0.00    +0.127 C 
ENDROOT
BRANCH   1   2
ATOM      2  N   UNL     1       5.075  -3.491  19.026  0.00  0.00    -0.322 NA
ATOM      3  H   UNL     1       4.946  -4.474  18.779  0.00  0.00    +0.119 HD
ATOM      4  H   UNL     1       4.132  -3.119  19.152  0.00  0.00    +0.119 HD
ENDBRANCH   1   2
BRANCH   1   5
ATOM      5  C   UNL     1       6.719  -4.605  20.562  0.00  0.00    +0.255 C 
BRANCH   5   6
ATOM      6  O   UNL     1       7.774  -4.263  21.497  0.00  0.00    -0.449 OA
BRANCH   6   7
ATOM      7  C   UNL     1       7.567  -3.162  22.269  0.00  0.00    +0.400 C 
ATOM      8  N   UNL     1       7.523  -2.046  21.475  0.00  0.00    -0.280 N 
ATOM      9  H   UNL     1       7.756  -2.286  20.515  0.00  0.00    +0.152 HD
ATOM     10  O   UNL     1       7.540  -3.164  23.489  0.00  0.00    -0.226 OA
BRANCH   8  11
ATOM     11  C   UNL     1       7.941  -0.703  21.891  0.00  0.00    +0.126 C 
BRANCH  11  12
ATOM     12  C   UNL     1       9.173  -0.075  21.208  0.00  0.00    +0.120 C 
BRANCH  12  13
ATOM     13  N   UNL     1      10.212   0.392  22.153  0.00  0.00    -0.338 N 
ATOM     14  H   UNL     1      11.006   0.620  21.530  0.00  0.00    +0.146 HD
BRANCH  13  15
ATOM     15  C   UNL     1       9.970   1.343  23.050  0.00  0.00    +0.103 C 
ATOM     16  C   UNL     1      10.362   1.459  24.498  0.00  0.00    +0.250 C 
ATOM     17  O   UNL     1      11.183   1.066  25.298  0.00  0.00    -0.282 OA
ATOM     18  C   UNL     1       9.445   2.599  24.585  0.00  0.00    +0.250 C 
ATOM     19  O   UNL     1       8.938   3.188  25.508  0.00  0.00    -0.282 OA
ATOM     20  C   UNL     1       9.404   2.592  23.105  0.00  0.00    +0.103 C 
BRANCH  20  21
ATOM     21  N   UNL     1       8.864   3.499  22.332  0.00  0.00    -0.339 N 
ATOM     22  H   UNL     1       9.024   4.483  22.552  0.00  0.00    +0.146 HD
BRANCH  21  23
ATOM     23  C   UNL     1       7.577   3.295  21.682  0.00  0.00    +0.103 C 
BRANCH  23  24
ATOM     24  C   UNL     1       6.697   4.476  22.041  0.00  0.00    +0.034 C 
BRANCH  24  25
ATOM     25  C   UNL     1       5.214   4.106  21.919  0.00  0.00    +0.086 C 
BRANCH  25  26
ATOM     26  N   UNL     1       4.351   4.998  22.712  0.00  0.00    -0.300 NA
ATOM     27  C   UNL     1       3.256   4.222  23.349  0.00  0.00    +0.100 C 
ATOM     28  C   UNL     1       2.097   3.792  22.407  0.00  0.00    +0.100 C 
ATOM     29  N   UNL     1       1.574   4.861  21.526  0.00  0.00    -0.300 NA
ATOM     30  C   UNL     1       2.719   5.522  20.867  0.00  0.00    +0.100 C 
ATOM     31  C   UNL     1       3.745   6.063  21.883  0.00  0.00    +0.100 C 
BRANCH  29  32
ATOM     32  C   UNL     1       0.747   5.811  22.293  0.00  0.00    +0.086 C 
BRANCH  32  33
ATOM     33  C   UNL     1       1.494   6.411  23.482  0.00  0.00    +0.034 C 
BRANCH  33  34
ATOM     34  C   UNL     1       1.061   5.743  24.780  0.00  0.00    +0.106 C 
BRANCH  34  35
ATOM     35  N   UNL     1       2.167   5.721  25.715  0.00  0.00    -0.311 N 
ATOM     36  H   UNL     1       1.950   5.368  26.638  0.00  0.00    +0.149 HD
ATOM     37  C   UNL     1       3.324   6.408  25.477  0.00  0.00    +0.244 C 
ATOM     38  O   UNL     1       3.529   7.105  24.487  0.00  0.00    -0.270 OA
BRANCH  37  39
ATOM     39  C   UNL     1       4.335   6.287  26.547  0.00  0.00    +0.047 A 
ATOM     40  C   UNL     1       5.658   6.630  26.287  0.00  0.00    +0.097 A 
ATOM     41  C   UNL     1       6.585   6.532  27.329  0.00  0.00    +0.277 A 
ATOM     42  C   UNL     1       6.185   6.121  28.613  0.00  0.00    +0.130 A 
ATOM     43  C   UNL     1       4.858   5.756  28.853  0.00  0.00    +0.131 A 
ATOM     44  C   UNL     1       3.951   5.812  27.807  0.00  0.00    +0.059 A 
BRANCH  41  45
ATOM     45  N   UNL     1       7.993   6.855  27.075  0.00  0.00    +0.080 N 
ATOM     46  O   UNL     1       8.325   7.107  25.909  0.00  0.00    +0.041 OA
ATOM     47  O   UNL     1       8.767   6.852  28.042  0.00  0.00    -0.576 OA
ENDBRANCH  41  45
BRANCH  43  48
ATOM     48  O   UNL     1       4.568   5.370  30.128  0.00  0.00    -0.461 OA
BRANCH  48  49
ATOM     49  C   UNL     1       3.851   4.148  30.383  0.00  0.00    +0.339 C 
ATOM     50  C   UNL     1       2.442   4.117  29.727  0.00  0.00    +0.214 C 
ATOM     51  C   UNL     1       1.743   2.796  30.089  0.00  0.00    +0.180 C 
ATOM     52  C   UNL     1       2.645   1.589  29.796  0.00  0.00    +0.177 C 
ATOM     53  C   UNL     1       4.004   1.759  30.483  0.00  0.00    +0.179 C 
ATOM     54  O   UNL     1       4.630   2.983  30.073  0.00  0.00    -0.331 OA
BRANCH  52  55
ATOM     55  O   UNL     1       1.966   0.399  30.208  0.00  0.00    -0.386 OA
ATOM     56  H   UNL     1       1.161   0.640  30.702  0.00  0.00    +0.210 HD
ENDBRANCH  52  55
BRANCH  50  57
ATOM     57  O   UNL     1       1.651   5.249  30.116  0.00  0.00    -0.383 OA
ATOM     58  H   UNL     1       1.957   5.577  30.977  0.00  0.00    +0.210 HD
ENDBRANCH  50  57
BRANCH  51  59
ATOM     59  O   UNL     1       0.525   2.651  29.345  0.00  0.00    -0.386 OA
ATOM     60  H   UNL     1      -0.151   3.187  29.806  0.00  0.00    +0.210 HD
ENDBRANCH  51  59
BRANCH  53  61
ATOM     61  C   UNL     1       4.952   0.605  30.134  0.00  0.00    +0.190 C 
BRANCH  61  62
ATOM     62  O   UNL     1       6.258   1.121  29.884  0.00  0.00    -0.392 OA
ATOM     63  H   UNL     1       6.187   1.673  29.081  0.00  0.00    +0.210 HD
ENDBRANCH  61  62
ENDBRANCH  53  61
ENDBRANCH  48  49
ENDBRANCH  43  48
ENDBRANCH  37  39
ENDBRANCH  34  35
ENDBRANCH  33  34
ENDBRANCH  32  33
ENDBRANCH  29  32
ENDBRANCH  25  26
ENDBRANCH  24  25
ENDBRANCH  23  24
ENDBRANCH  21  23
ENDBRANCH  20  21
ENDBRANCH  13  15
ENDBRANCH  12  13
ENDBRANCH  11  12
ENDBRANCH   8  11
ENDBRANCH   6   7
ENDBRANCH   5   6
ENDBRANCH   1   5
BRANCH   1  64
ATOM     64  C   UNL     1       4.692  -3.217  21.397  0.00  0.00    +0.255 C 
BRANCH  64  65
ATOM     65  O   UNL     1       4.944  -4.246  22.393  0.00  0.00    -0.449 OA
BRANCH  65  66
ATOM     66  C   UNL     1       3.883  -4.681  23.106  0.00  0.00    +0.400 C 
ATOM     67  N   UNL     1       4.222  -4.737  24.426  0.00  0.00    -0.280 N 
ATOM     68  H   UNL     1       5.150  -4.430  24.683  0.00  0.00    +0.152 HD
ATOM     69  O   UNL     1       2.779  -4.933  22.654  0.00  0.00    -0.226 OA
BRANCH  67  70
ATOM     70  C   UNL     1       3.326  -5.303  25.414  0.00  0.00    +0.126 C 
BRANCH  70  71
ATOM     71  C   UNL     1       4.079  -6.181  26.425  0.00  0.00    +0.120 C 
BRANCH  71  72
ATOM     72  N   UNL     1       3.543  -7.538  26.440  0.00  0.00    -0.338 N 
ATOM     73  H   UNL     1       4.020  -8.171  27.082  0.00  0.00    +0.146 HD
BRANCH  72  74
ATOM     74  C   UNL     1       2.760  -8.031  25.503  0.00  0.00    +0.103 C 
ATOM     75  C   UNL     1       2.842  -7.992  24.016  0.00  0.00    +0.250 C 
ATOM     76  O   UNL     1       3.561  -7.569  23.144  0.00  0.00    -0.282 OA
ATOM     77  C   UNL     1       1.614  -8.820  23.981  0.00  0.00    +0.250 C 
ATOM     78  O   UNL     1       0.907  -9.222  23.091  0.00  0.00    -0.282 OA
ATOM     79  C   UNL     1       1.624  -8.800  25.464  0.00  0.00    +0.103 C 
BRANCH  79  80
ATOM     80  N   UNL     1       0.792  -9.381  26.308  0.00  0.00    -0.339 N 
ATOM     81  H   UNL     1      -0.038  -9.837  25.921  0.00  0.00    +0.146 HD
BRANCH  80  82
ATOM     82  C   UNL     1       0.445  -8.742  27.580  0.00  0.00    +0.103 C 
BRANCH  82  83
ATOM     83  C   UNL     1       0.804  -9.649  28.762  0.00  0.00    +0.034 C 
BRANCH  83  84
ATOM     84  C   UNL     1       2.069  -9.223  29.533  0.00  0.00    +0.086 C 
BRANCH  84  85
ATOM     85  N   UNL     1       1.856  -8.102  30.471  0.00  0.00    -0.300 NA
ATOM     86  C   UNL     1       0.647  -7.321  30.107  0.00  0.00    +0.100 C 
ATOM     87  C   UNL     1       0.779  -6.433  28.839  0.00  0.00    +0.100 C 
ATOM     88  N   UNL     1       2.024  -5.640  28.723  0.00  0.00    -0.300 NA
ATOM     89  C   UNL     1       3.188  -6.449  29.131  0.00  0.00    +0.100 C 
ATOM     90  C   UNL     1       2.994  -7.162  30.484  0.00  0.00    +0.100 C 
BRANCH  88  91
ATOM     91  C   UNL     1       1.937  -4.367  29.455  0.00  0.00    +0.086 C 
BRANCH  91  92
ATOM     92  C   UNL     1       0.635  -3.613  29.150  0.00  0.00    +0.034 C 
BRANCH  92  93
ATOM     93  C   UNL     1       0.729  -2.878  27.814  0.00  0.00    +0.106 C 
BRANCH  93  94
ATOM     94  N   UNL     1       2.029  -2.279  27.623  0.00  0.00    -0.311 N 
ATOM     95  H   UNL     1       2.838  -2.869  27.756  0.00  0.00    +0.149 HD
ATOM     96  C   UNL     1       2.144  -0.997  27.141  0.00  0.00    +0.244 C 
ATOM     97  O   UNL     1       1.187  -0.285  26.853  0.00  0.00    -0.270 OA
BRANCH  96  98
ATOM     98  C   UNL     1       3.519  -0.468  26.976  0.00  0.00    +0.047 A 
ATOM     99  C   UNL     1       3.786   0.715  26.290  0.00  0.00    +0.097 A 
ATOM    100  C   UNL     1       5.112   1.111  26.100  0.00  0.00    +0.277 A 
ATOM    101  C   UNL     1       6.179   0.299  26.554  0.00  0.00    +0.130 A 
ATOM    102  C   UNL     1       5.898  -0.909  27.202  0.00  0.00    +0.131 A 
ATOM    103  C   UNL     1       4.573  -1.252  27.463  0.00  0.00    +0.059 A 
BRANCH 100 104
ATOM    104  N   UNL     1       5.390   2.379  25.429  0.00  0.00    +0.080 N 
ATOM    105  O   UNL     1       4.527   3.269  25.520  0.00  0.00    +0.041 OA
ATOM    106  O   UNL     1       6.458   2.494  24.823  0.00  0.00    -0.576 OA
ENDBRANCH 100 104
BRANCH 102 107
ATOM    107  O   UNL     1       6.975  -1.686  27.541  0.00  0.00    -0.461 OA
BRANCH 107 108
ATOM    108  C   UNL     1       7.222  -2.835  26.702  0.00  0.00    +0.339 C 
ATOM    109  C   UNL     1       8.677  -2.778  26.185  0.00  0.00    +0.214 C 
ATOM    110  C   UNL     1       8.992  -4.064  25.411  0.00  0.00    +0.180 C 
ATOM    111  C   UNL     1       8.674  -5.306  26.239  0.00  0.00    +0.177 C 
ATOM    112  C   UNL     1       7.215  -5.236  26.697  0.00  0.00    +0.179 C 
ATOM    113  O   UNL     1       6.977  -4.034  27.450  0.00  0.00    -0.331 OA
BRANCH 109 114
ATOM    114  O   UNL     1       8.830  -1.644  25.313  0.00  0.00    -0.383 OA
ATOM    115  H   UNL     1       8.296  -0.917  25.684  0.00  0.00    +0.210 HD
ENDBRANCH 109 114
BRANCH 110 116
ATOM    116  O   UNL     1      10.371  -4.079  25.016  0.00  0.00    -0.386 OA
ATOM    117  H   UNL     1      10.820  -3.388  25.546  0.00  0.00    +0.210 HD
ENDBRANCH 110 116
BRANCH 111 118
ATOM    118  O   UNL     1       8.954  -6.467  25.450  0.00  0.00    -0.386 OA
ATOM    119  H   UNL     1       9.418  -7.125  26.000  0.00  0.00    +0.210 HD
ENDBRANCH 111 118
BRANCH 112 120
ATOM    120  C   UNL     1       6.860  -6.431  27.586  0.00  0.00    +0.190 C 
BRANCH 120 121
ATOM    121  O   UNL     1       6.847  -6.020  28.952  0.00  0.00    -0.392 OA
ATOM    122  H   UNL     1       6.583  -6.805  29.468  0.00  0.00    +0.210 HD
ENDBRANCH 120 121
ENDBRANCH 112 120
ENDBRANCH 107 108
ENDBRANCH 102 107
ENDBRANCH  96  98
ENDBRANCH  93  94
ENDBRANCH  92  93
ENDBRANCH  91  92
ENDBRANCH  88  91
ENDBRANCH  84  85
ENDBRANCH  83  84
ENDBRANCH  82  83
ENDBRANCH  80  82
ENDBRANCH  79  80
ENDBRANCH  72  74
ENDBRANCH  71  72
ENDBRANCH  70  71
ENDBRANCH  67  70
ENDBRANCH  65  66
ENDBRANCH  64  65
ENDBRANCH   1  64
TORSDOF 51
ENDMDL
