MODEL 1
REMARK VINA RESULT:      -6.7      0.000      0.000
REMARK  Name = 
REMARK  8 active torsions:
REMARK  status: ('A' for Active; 'I' for Inactive)
REMARK    1  A    between atoms: C_1  and  C_2
REMARK    2  A    between atoms: C_2  and  C_3
REMARK    3  A    between atoms: N_5  and  C_6
REMARK    4  A    between atoms: N_5  and  C_21
REMARK    5  A    between atoms: N_9  and  C_10
REMARK    6  A    between atoms: C_10  and  C_11
REMARK    7  A    between atoms: C_11  and  O_12
REMARK    8  A    between atoms: C_11  and  C_13
REMARK                            x       y       z     vdW  Elec       q    Type
REMARK                         _______ _______ _______ _____ _____    ______ ____
ROOT
ATOM      1  C   UNL     1       7.899  -1.931  24.554  0.00  0.00    +0.084 C 
ATOM      2  C   UNL     1       7.437  -0.536  24.120  0.00  0.00    +0.038 C 
ATOM      3  C   UNL     1       7.970  -0.099  22.762  0.00  0.00    +0.086 C 
ATOM      4  N   UNL     1       9.421  -0.236  22.623  0.00  0.00    -0.299 NA
ATOM      5  C   UNL     1       9.855  -1.620  22.808  0.00  0.00    +0.086 C 
ATOM      6  C   UNL     1       9.313  -2.333  24.058  0.00  0.00    +0.038 C 
ENDROOT
BRANCH   1   8
ATOM      7  C   UNL     1       5.883  -3.183  25.611  0.00  0.00    +0.220 C 
ATOM      8  N   UNL     1       6.776  -2.953  24.533  0.00  0.00    -0.268 N 
ATOM      9  O   UNL     1       4.888  -3.911  25.577  0.00  0.00    -0.275 OA
BRANCH   8  10
ATOM     10  C   UNL     1       6.750  -3.870  23.359  0.00  0.00    +0.037 A 
ATOM     11  C   UNL     1       7.286  -5.177  23.410  0.00  0.00    +0.023 A 
ATOM     12  C   UNL     1       7.225  -6.067  22.322  0.00  0.00    +0.002 A 
ATOM     13  C   UNL     1       6.600  -5.693  21.145  0.00  0.00    +0.000 A 
ATOM     14  C   UNL     1       6.062  -4.421  21.052  0.00  0.00    +0.002 A 
ATOM     15  C   UNL     1       6.153  -3.527  22.132  0.00  0.00    +0.023 A 
ENDBRANCH   8  10
BRANCH   7  17
ATOM     16  C   UNL     1       5.336  -1.407  27.351  0.00  0.00    +0.013 C 
ATOM     17  C   UNL     1       6.214  -2.587  26.960  0.00  0.00    +0.093 C 
ENDBRANCH   7  17
ENDBRANCH   1   8
BRANCH   4  18
ATOM     18  C   UNL     1      10.143   0.733  23.465  0.00  0.00    +0.120 C 
BRANCH  18  19
ATOM     19  C   UNL     1      10.414   2.117  22.810  0.00  0.00    +0.158 C 
BRANCH  19  20
ATOM     20  C   UNL     1       9.861   3.224  23.680  0.00  0.00    -0.018 A 
ATOM     21  C   UNL     1      10.396   4.520  23.620  0.00  0.00    +0.006 A 
ATOM     22  C   UNL     1       9.841   5.550  24.379  0.00  0.00    +0.000 A 
ATOM     23  C   UNL     1       8.761   5.285  25.223  0.00  0.00    +0.000 A 
ATOM     24  C   UNL     1       8.240   3.997  25.309  0.00  0.00    +0.000 A 
ATOM     25  C   UNL     1       8.782   2.971  24.537  0.00  0.00    +0.006 A 
ENDBRANCH  19  20
BRANCH  19  26
ATOM     26  O   UNL     1       9.848   2.239  21.509  0.00  0.00    -0.386 OA
ATOM     27  H   UNL     1      10.429   2.818  20.991  0.00  0.00    +0.210 HD
ENDBRANCH  19  26
ENDBRANCH  18  19
ENDBRANCH   4  18
TORSDOF 7
ENDMDL
MODEL 2
REMARK VINA RESULT:      -6.5      2.514      7.405
REMARK  Name = 
REMARK  8 active torsions:
REMARK  status: ('A' for Active; 'I' for Inactive)
REMARK    1  A    between atoms: C_1  and  C_2
REMARK    2  A    between atoms: C_2  and  C_3
REMARK    3  A    between atoms: N_5  and  C_6
REMARK    4  A    between atoms: N_5  and  C_21
REMARK    5  A    between atoms: N_9  and  C_10
REMARK    6  A    between atoms: C_10  and  C_11
REMARK    7  A    between atoms: C_11  and  O_12
REMARK    8  A    between atoms: C_11  and  C_13
REMARK                            x       y       z     vdW  Elec       q    Type
REMARK                         _______ _______ _______ _____ _____    ______ ____
ROOT
ATOM      1  C   UNL     1       7.387  -1.577  24.827  0.00  0.00    +0.084 C 
ATOM      2  C   UNL     1       8.668  -2.341  24.476  0.00  0.00    +0.038 C 
ATOM      3  C   UNL     1       8.785  -2.715  23.004  0.00  0.00    +0.086 C 
ATOM      4  N   UNL     1       7.605  -3.400  22.472  0.00  0.00    -0.299 NA
ATOM      5  C   UNL     1       6.402  -2.577  22.592  0.00  0.00    +0.086 C 
ATOM      6  C   UNL     1       6.148  -1.955  23.975  0.00  0.00    +0.038 C 
ENDROOT
BRANCH   1   8
ATOM      7  C   UNL     1       7.059   0.564  26.262  0.00  0.00    +0.220 C 
ATOM      8  N   UNL     1       7.649  -0.120  25.168  0.00  0.00    -0.268 N 
ATOM      9  O   UNL     1       7.349   1.703  26.637  0.00  0.00    -0.275 OA
BRANCH   8  10
ATOM     10  C   UNL     1       8.443   0.650  24.170  0.00  0.00    +0.037 A 
ATOM     11  C   UNL     1       9.757   1.099  24.433  0.00  0.00    +0.023 A 
ATOM     12  C   UNL     1      10.532   1.786  23.482  0.00  0.00    +0.002 A 
ATOM     13  C   UNL     1      10.031   2.030  22.215  0.00  0.00    +0.000 A 
ATOM     14  C   UNL     1       8.747   1.609  21.914  0.00  0.00    +0.002 A 
ATOM     15  C   UNL     1       7.968   0.948  22.880  0.00  0.00    +0.023 A 
ENDBRANCH   8  10
BRANCH   7  17
ATOM     16  C   UNL     1       4.534   0.433  26.556  0.00  0.00    +0.013 C 
ATOM     17  C   UNL     1       5.900  -0.088  26.979  0.00  0.00    +0.093 C 
ENDBRANCH   7  17
ENDBRANCH   1   8
BRANCH   4  18
ATOM     18  C   UNL     1       7.461  -4.753  23.032  0.00  0.00    +0.120 C 
BRANCH  18  19
ATOM     19  C   UNL     1       6.058  -5.403  22.862  0.00  0.00    +0.158 C 
BRANCH  19  20
ATOM     20  C   UNL     1       5.529  -5.864  24.200  0.00  0.00    -0.018 A 
ATOM     21  C   UNL     1       4.442  -6.748  24.278  0.00  0.00    +0.006 A 
ATOM     22  C   UNL     1       4.000  -7.218  25.514  0.00  0.00    +0.000 A 
ATOM     23  C   UNL     1       4.626  -6.788  26.684  0.00  0.00    +0.000 A 
ATOM     24  C   UNL     1       5.689  -5.891  26.620  0.00  0.00    +0.000 A 
ATOM     25  C   UNL     1       6.144  -5.435  25.384  0.00  0.00    +0.006 A 
ENDBRANCH  19  20
BRANCH  19  26
ATOM     26  O   UNL     1       6.062  -6.513  21.969  0.00  0.00    -0.386 OA
ATOM     27  H   UNL     1       5.140  -6.778  21.828  0.00  0.00    +0.210 HD
ENDBRANCH  19  26
ENDBRANCH  18  19
ENDBRANCH   4  18
TORSDOF 7
ENDMDL
MODEL 3
REMARK VINA RESULT:      -6.4      2.606      4.848
REMARK  Name = 
REMARK  8 active torsions:
REMARK  status: ('A' for Active; 'I' for Inactive)
REMARK    1  A    between atoms: C_1  and  C_2
REMARK    2  A    between atoms: C_2  and  C_3
REMARK    3  A    between atoms: N_5  and  C_6
REMARK    4  A    between atoms: N_5  and  C_21
REMARK    5  A    between atoms: N_9  and  C_10
REMARK    6  A    between atoms: C_10  and  C_11
REMARK    7  A    between atoms: C_11  and  O_12
REMARK    8  A    between atoms: C_11  and  C_13
REMARK                            x       y       z     vdW  Elec       q    Type
REMARK                         _______ _______ _______ _____ _____    ______ ____
ROOT
ATOM      1  C   UNL     1       6.635  -4.125  24.615  0.00  0.00    +0.084 C 
ATOM      2  C   UNL     1       8.121  -4.497  24.637  0.00  0.00    +0.038 C 
ATOM      3  C   UNL     1       8.885  -3.936  25.829  0.00  0.00    +0.086 C 
ATOM      4  N   UNL     1       8.704  -2.497  26.025  0.00  0.00    -0.299 NA
ATOM      5  C   UNL     1       7.298  -2.153  26.240  0.00  0.00    +0.086 C 
ATOM      6  C   UNL     1       6.301  -2.740  25.228  0.00  0.00    +0.038 C 
ENDROOT
BRANCH   1   8
ATOM      7  C   UNL     1       5.196  -6.167  23.903  0.00  0.00    +0.220 C 
ATOM      8  N   UNL     1       5.731  -5.312  24.900  0.00  0.00    -0.268 N 
ATOM      9  O   UNL     1       4.568  -7.208  24.112  0.00  0.00    -0.275 OA
BRANCH   8  10
ATOM     10  C   UNL     1       5.259  -5.449  26.306  0.00  0.00    +0.037 A 
ATOM     11  C   UNL     1       3.941  -5.119  26.697  0.00  0.00    +0.023 A 
ATOM     12  C   UNL     1       3.471  -5.289  28.011  0.00  0.00    +0.002 A 
ATOM     13  C   UNL     1       4.296  -5.824  28.986  0.00  0.00    +0.000 A 
ATOM     14  C   UNL     1       5.595  -6.161  28.648  0.00  0.00    +0.002 A 
ATOM     15  C   UNL     1       6.066  -5.960  27.339  0.00  0.00    +0.023 A 
ENDBRANCH   8  10
BRANCH   7  17
ATOM     16  C   UNL     1       6.520  -6.272  21.731  0.00  0.00    +0.013 C 
ATOM     17  C   UNL     1       5.294  -5.739  22.457  0.00  0.00    +0.093 C 
ENDBRANCH   7  17
ENDBRANCH   1   8
BRANCH   4  18
ATOM     18  C   UNL     1       9.353  -1.714  24.961  0.00  0.00    +0.120 C 
BRANCH  18  19
ATOM     19  C   UNL     1       9.324  -0.172  25.150  0.00  0.00    +0.158 C 
BRANCH  19  20
ATOM     20  C   UNL     1       8.963   0.508  23.849  0.00  0.00    -0.018 A 
ATOM     21  C   UNL     1       7.626   0.609  23.436  0.00  0.00    +0.006 A 
ATOM     22  C   UNL     1       7.296   1.292  22.267  0.00  0.00    +0.000 A 
ATOM     23  C   UNL     1       8.304   1.859  21.486  0.00  0.00    +0.000 A 
ATOM     24  C   UNL     1       9.637   1.742  21.872  0.00  0.00    +0.000 A 
ATOM     25  C   UNL     1       9.966   1.076  23.051  0.00  0.00    +0.006 A 
ENDBRANCH  19  20
BRANCH  19  26
ATOM     26  O   UNL     1      10.564   0.358  25.609  0.00  0.00    -0.386 OA
ATOM     27  H   UNL     1      10.678   0.079  26.531  0.00  0.00    +0.210 HD
ENDBRANCH  19  26
ENDBRANCH  18  19
ENDBRANCH   4  18
TORSDOF 7
ENDMDL
MODEL 4
REMARK VINA RESULT:      -6.3      2.262      7.927
REMARK  Name = 
REMARK  8 active torsions:
REMARK  status: ('A' for Active; 'I' for Inactive)
REMARK    1  A    between atoms: C_1  and  C_2
REMARK    2  A    between atoms: C_2  and  C_3
REMARK    3  A    between atoms: N_5  and  C_6
REMARK    4  A    between atoms: N_5  and  C_21
REMARK    5  A    between atoms: N_9  and  C_10
REMARK    6  A    between atoms: C_10  and  C_11
REMARK    7  A    between atoms: C_11  and  O_12
REMARK    8  A    between atoms: C_11  and  C_13
REMARK                            x       y       z     vdW  Elec       q    Type
REMARK                         _______ _______ _______ _____ _____    ______ ____
ROOT
ATOM      1  C   UNL     1      10.185   2.454  23.252  0.00  0.00    +0.084 C 
ATOM      2  C   UNL     1       9.352   1.904  22.090  0.00  0.00    +0.038 C 
ATOM      3  C   UNL     1       8.264   0.926  22.514  0.00  0.00    +0.086 C 
ATOM      4  N   UNL     1       8.745  -0.159  23.371  0.00  0.00    -0.299 NA
ATOM      5  C   UNL     1       9.342   0.350  24.605  0.00  0.00    +0.086 C 
ATOM      6  C   UNL     1      10.380   1.472  24.436  0.00  0.00    +0.038 C 
ENDROOT
BRANCH   1   8
ATOM      7  C   UNL     1      10.882   4.949  23.449  0.00  0.00    +0.220 C 
ATOM      8  N   UNL     1       9.907   3.921  23.529  0.00  0.00    -0.268 N 
ATOM      9  O   UNL     1      10.659   6.158  23.543  0.00  0.00    -0.275 OA
BRANCH   8  10
ATOM     10  C   UNL     1       8.561   4.236  24.084  0.00  0.00    +0.037 A 
ATOM     11  C   UNL     1       8.292   4.217  25.472  0.00  0.00    +0.023 A 
ATOM     12  C   UNL     1       7.038   4.558  26.009  0.00  0.00    +0.002 A 
ATOM     13  C   UNL     1       6.007   4.961  25.178  0.00  0.00    +0.000 A 
ATOM     14  C   UNL     1       6.226   4.994  23.812  0.00  0.00    +0.002 A 
ATOM     15  C   UNL     1       7.473   4.622  23.281  0.00  0.00    +0.023 A 
ENDBRANCH   8  10
BRANCH   7  17
ATOM     16  C   UNL     1      13.166   5.457  22.448  0.00  0.00    +0.013 C 
ATOM     17  C   UNL     1      12.338   4.556  23.351  0.00  0.00    +0.093 C 
ENDBRANCH   7  17
ENDBRANCH   1   8
BRANCH   4  18
ATOM     18  C   UNL     1       9.609  -1.096  22.633  0.00  0.00    +0.120 C 
BRANCH  18  19
ATOM     19  C   UNL     1       9.352  -2.604  22.911  0.00  0.00    +0.158 C 
BRANCH  19  20
ATOM     20  C   UNL     1       7.885  -2.842  23.190  0.00  0.00    -0.018 A 
ATOM     21  C   UNL     1       6.939  -2.792  22.156  0.00  0.00    +0.006 A 
ATOM     22  C   UNL     1       5.597  -3.074  22.409  0.00  0.00    +0.000 A 
ATOM     23  C   UNL     1       5.187  -3.385  23.707  0.00  0.00    +0.000 A 
ATOM     24  C   UNL     1       6.114  -3.412  24.746  0.00  0.00    +0.000 A 
ATOM     25  C   UNL     1       7.458  -3.148  24.490  0.00  0.00    +0.006 A 
ENDBRANCH  19  20
BRANCH  19  26
ATOM     26  O   UNL     1      10.109  -3.106  24.009  0.00  0.00    -0.386 OA
ATOM     27  H   UNL     1      11.031  -2.839  23.873  0.00  0.00    +0.210 HD
ENDBRANCH  19  26
ENDBRANCH  18  19
ENDBRANCH   4  18
TORSDOF 7
ENDMDL
MODEL 5
REMARK VINA RESULT:      -6.2      2.679      7.583
REMARK  Name = 
REMARK  8 active torsions:
REMARK  status: ('A' for Active; 'I' for Inactive)
REMARK    1  A    between atoms: C_1  and  C_2
REMARK    2  A    between atoms: C_2  and  C_3
REMARK    3  A    between atoms: N_5  and  C_6
REMARK    4  A    between atoms: N_5  and  C_21
REMARK    5  A    between atoms: N_9  and  C_10
REMARK    6  A    between atoms: C_10  and  C_11
REMARK    7  A    between atoms: C_11  and  O_12
REMARK    8  A    between atoms: C_11  and  C_13
REMARK                            x       y       z     vdW  Elec       q    Type
REMARK                         _______ _______ _______ _____ _____    ______ ____
ROOT
ATOM      1  C   UNL     1       6.739  -0.324  25.315  0.00  0.00    +0.084 C 
ATOM      2  C   UNL     1       7.327  -0.560  26.710  0.00  0.00    +0.038 C 
ATOM      3  C   UNL     1       8.573  -1.436  26.720  0.00  0.00    +0.086 C 
ATOM      4  N   UNL     1       8.413  -2.701  26.000  0.00  0.00    -0.299 NA
ATOM      5  C   UNL     1       8.074  -2.484  24.594  0.00  0.00    +0.086 C 
ATOM      6  C   UNL     1       6.922  -1.502  24.323  0.00  0.00    +0.038 C 
ENDROOT
BRANCH   1   8
ATOM      7  C   UNL     1       6.028   2.165  25.095  0.00  0.00    +0.220 C 
ATOM      8  N   UNL     1       6.932   1.103  24.832  0.00  0.00    -0.268 N 
ATOM      9  O   UNL     1       6.220   3.353  24.827  0.00  0.00    -0.275 OA
BRANCH   8  10
ATOM     10  C   UNL     1       8.058   1.324  23.883  0.00  0.00    +0.037 A 
ATOM     11  C   UNL     1       7.879   1.307  22.481  0.00  0.00    +0.023 A 
ATOM     12  C   UNL     1       8.926   1.562  21.577  0.00  0.00    +0.002 A 
ATOM     13  C   UNL     1      10.193   1.870  22.042  0.00  0.00    +0.000 A 
ATOM     14  C   UNL     1      10.413   1.897  23.408  0.00  0.00    +0.002 A 
ATOM     15  C   UNL     1       9.369   1.613  24.304  0.00  0.00    +0.023 A 
ENDBRANCH   8  10
BRANCH   7  17
ATOM     16  C   UNL     1       4.514   2.089  27.140  0.00  0.00    +0.013 C 
ATOM     17  C   UNL     1       4.663   1.829  25.648  0.00  0.00    +0.093 C 
ENDBRANCH   7  17
ENDBRANCH   1   8
BRANCH   4  18
ATOM     18  C   UNL     1       7.495  -3.615  26.700  0.00  0.00    +0.120 C 
BRANCH  18  19
ATOM     19  C   UNL     1       7.653  -5.122  26.349  0.00  0.00    +0.158 C 
BRANCH  19  20
ATOM     20  C   UNL     1       6.393  -5.642  25.698  0.00  0.00    -0.018 A 
ATOM     21  C   UNL     1       6.179  -5.489  24.319  0.00  0.00    +0.006 A 
ATOM     22  C   UNL     1       5.044  -6.027  23.715  0.00  0.00    +0.000 A 
ATOM     23  C   UNL     1       4.099  -6.701  24.489  0.00  0.00    +0.000 A 
ATOM     24  C   UNL     1       4.288  -6.836  25.862  0.00  0.00    +0.000 A 
ATOM     25  C   UNL     1       5.432  -6.315  26.464  0.00  0.00    +0.006 A 
ENDBRANCH  19  20
BRANCH  19  26
ATOM     26  O   UNL     1       7.943  -5.931  27.485  0.00  0.00    -0.386 OA
ATOM     27  H   UNL     1       7.889  -5.364  28.270  0.00  0.00    +0.210 HD
ENDBRANCH  19  26
ENDBRANCH  18  19
ENDBRANCH   4  18
TORSDOF 7
ENDMDL
MODEL 6
REMARK VINA RESULT:      -6.2      2.727      8.440
REMARK  Name = 
REMARK  8 active torsions:
REMARK  status: ('A' for Active; 'I' for Inactive)
REMARK    1  A    between atoms: C_1  and  C_2
REMARK    2  A    between atoms: C_2  and  C_3
REMARK    3  A    between atoms: N_5  and  C_6
REMARK    4  A    between atoms: N_5  and  C_21
REMARK    5  A    between atoms: N_9  and  C_10
REMARK    6  A    between atoms: C_10  and  C_11
REMARK    7  A    between atoms: C_11  and  O_12
REMARK    8  A    between atoms: C_11  and  C_13
REMARK                            x       y       z     vdW  Elec       q    Type
REMARK                         _______ _______ _______ _____ _____    ______ ____
ROOT
ATOM      1  C   UNL     1       8.231   3.373  23.564  0.00  0.00    +0.084 C 
ATOM      2  C   UNL     1       8.965   2.661  24.705  0.00  0.00    +0.038 C 
ATOM      3  C   UNL     1      10.236   1.942  24.273  0.00  0.00    +0.086 C 
ATOM      4  N   UNL     1      10.051   1.045  23.131  0.00  0.00    -0.299 NA
ATOM      5  C   UNL     1       9.564   1.761  21.953  0.00  0.00    +0.086 C 
ATOM      6  C   UNL     1       8.356   2.685  22.179  0.00  0.00    +0.038 C 
ENDROOT
BRANCH   1   8
ATOM      7  C   UNL     1       7.269   5.774  23.322  0.00  0.00    +0.220 C 
ATOM      8  N   UNL     1       8.321   4.885  23.663  0.00  0.00    -0.268 N 
ATOM      9  O   UNL     1       7.268   6.992  23.512  0.00  0.00    -0.275 OA
BRANCH   8  10
ATOM     10  C   UNL     1       9.668   5.439  23.975  0.00  0.00    +0.037 A 
ATOM     11  C   UNL     1       9.911   6.242  25.113  0.00  0.00    +0.023 A 
ATOM     12  C   UNL     1      11.188   6.731  25.441  0.00  0.00    +0.002 A 
ATOM     13  C   UNL     1      12.283   6.413  24.656  0.00  0.00    +0.000 A 
ATOM     14  C   UNL     1      12.091   5.630  23.532  0.00  0.00    +0.002 A 
ATOM     15  C   UNL     1      10.807   5.169  23.193  0.00  0.00    +0.023 A 
ENDBRANCH   8  10
BRANCH   7  17
ATOM     16  C   UNL     1       4.810   6.047  22.720  0.00  0.00    +0.013 C 
ATOM     17  C   UNL     1       6.082   5.227  22.562  0.00  0.00    +0.093 C 
ENDBRANCH   7  17
ENDBRANCH   1   8
BRANCH   4  18
ATOM     18  C   UNL     1       9.242  -0.133  23.489  0.00  0.00    +0.120 C 
BRANCH  18  19
ATOM     19  C   UNL     1       9.259  -1.295  22.456  0.00  0.00    +0.158 C 
BRANCH  19  20
ATOM     20  C   UNL     1       8.804  -2.581  23.108  0.00  0.00    -0.018 A 
ATOM     21  C   UNL     1       7.698  -3.287  22.610  0.00  0.00    +0.006 A 
ATOM     22  C   UNL     1       7.323  -4.504  23.177  0.00  0.00    +0.000 A 
ATOM     23  C   UNL     1       8.035  -5.012  24.264  0.00  0.00    +0.000 A 
ATOM     24  C   UNL     1       9.118  -4.306  24.783  0.00  0.00    +0.000 A 
ATOM     25  C   UNL     1       9.506  -3.099  24.205  0.00  0.00    +0.006 A 
ENDBRANCH  19  20
BRANCH  19  26
ATOM     26  O   UNL     1      10.544  -1.510  21.879  0.00  0.00    -0.386 OA
ATOM     27  H   UNL     1      10.702  -0.795  21.244  0.00  0.00    +0.210 HD
ENDBRANCH  19  26
ENDBRANCH  18  19
ENDBRANCH   4  18
TORSDOF 7
ENDMDL
MODEL 7
REMARK VINA RESULT:      -6.1      2.204      4.270
REMARK  Name = 
REMARK  8 active torsions:
REMARK  status: ('A' for Active; 'I' for Inactive)
REMARK    1  A    between atoms: C_1  and  C_2
REMARK    2  A    between atoms: C_2  and  C_3
REMARK    3  A    between atoms: N_5  and  C_6
REMARK    4  A    between atoms: N_5  and  C_21
REMARK    5  A    between atoms: N_9  and  C_10
REMARK    6  A    between atoms: C_10  and  C_11
REMARK    7  A    between atoms: C_11  and  O_12
REMARK    8  A    between atoms: C_11  and  C_13
REMARK                            x       y       z     vdW  Elec       q    Type
REMARK                         _______ _______ _______ _____ _____    ______ ____
ROOT
ATOM      1  C   UNL     1       7.064  -3.547  24.010  0.00  0.00    +0.084 C 
ATOM      2  C   UNL     1       8.327  -3.874  24.815  0.00  0.00    +0.038 C 
ATOM      3  C   UNL     1       8.558  -2.958  26.009  0.00  0.00    +0.086 C 
ATOM      4  N   UNL     1       8.502  -1.532  25.681  0.00  0.00    -0.299 NA
ATOM      5  C   UNL     1       7.205  -1.156  25.120  0.00  0.00    +0.086 C 
ATOM      6  C   UNL     1       6.683  -2.045  23.978  0.00  0.00    +0.038 C 
ENDROOT
BRANCH   1   8
ATOM      7  C   UNL     1       5.919  -5.808  23.439  0.00  0.00    +0.220 C 
ATOM      8  N   UNL     1       5.978  -4.596  24.174  0.00  0.00    -0.268 N 
ATOM      9  O   UNL     1       5.126  -6.731  23.640  0.00  0.00    -0.275 OA
BRANCH   8  10
ATOM     10  C   UNL     1       4.829  -4.214  25.042  0.00  0.00    +0.037 A 
ATOM     11  C   UNL     1       3.574  -3.838  24.512  0.00  0.00    +0.023 A 
ATOM     12  C   UNL     1       2.469  -3.521  25.322  0.00  0.00    +0.002 A 
ATOM     13  C   UNL     1       2.569  -3.595  26.701  0.00  0.00    +0.000 A 
ATOM     14  C   UNL     1       3.780  -3.959  27.263  0.00  0.00    +0.002 A 
ATOM     15  C   UNL     1       4.888  -4.245  26.447  0.00  0.00    +0.023 A 
ENDBRANCH   8  10
BRANCH   7  17
ATOM     16  C   UNL     1       6.131  -5.688  20.906  0.00  0.00    +0.013 C 
ATOM     17  C   UNL     1       6.818  -5.965  22.235  0.00  0.00    +0.093 C 
ENDBRANCH   7  17
ENDBRANCH   1   8
BRANCH   4  18
ATOM     18  C   UNL     1       9.650  -1.116  24.859  0.00  0.00    +0.120 C 
BRANCH  18  19
ATOM     19  C   UNL     1       9.985   0.402  24.896  0.00  0.00    +0.158 C 
BRANCH  19  20
ATOM     20  C   UNL     1       9.294   1.118  23.759  0.00  0.00    -0.018 A 
ATOM     21  C   UNL     1       9.432   0.669  22.436  0.00  0.00    +0.006 A 
ATOM     22  C   UNL     1       8.741   1.296  21.400  0.00  0.00    +0.000 A 
ATOM     23  C   UNL     1       7.925   2.395  21.676  0.00  0.00    +0.000 A 
ATOM     24  C   UNL     1       7.802   2.865  22.980  0.00  0.00    +0.000 A 
ATOM     25  C   UNL     1       8.477   2.227  24.019  0.00  0.00    +0.006 A 
ENDBRANCH  19  20
BRANCH  19  26
ATOM     26  O   UNL     1      11.383   0.667  24.815  0.00  0.00    -0.386 OA
ATOM     27  H   UNL     1      11.691   0.888  25.707  0.00  0.00    +0.210 HD
ENDBRANCH  19  26
ENDBRANCH  18  19
ENDBRANCH   4  18
TORSDOF 7
ENDMDL
MODEL 8
REMARK VINA RESULT:      -6.0      2.205      7.846
REMARK  Name = 
REMARK  8 active torsions:
REMARK  status: ('A' for Active; 'I' for Inactive)
REMARK    1  A    between atoms: C_1  and  C_2
REMARK    2  A    between atoms: C_2  and  C_3
REMARK    3  A    between atoms: N_5  and  C_6
REMARK    4  A    between atoms: N_5  and  C_21
REMARK    5  A    between atoms: N_9  and  C_10
REMARK    6  A    between atoms: C_10  and  C_11
REMARK    7  A    between atoms: C_11  and  O_12
REMARK    8  A    between atoms: C_11  and  C_13
REMARK                            x       y       z     vdW  Elec       q    Type
REMARK                         _______ _______ _______ _____ _____    ______ ____
ROOT
ATOM      1  C   UNL     1       8.269  -0.022  24.373  0.00  0.00    +0.084 C 
ATOM      2  C   UNL     1       7.348  -1.234  24.194  0.00  0.00    +0.038 C 
ATOM      3  C   UNL     1       6.866  -1.847  25.502  0.00  0.00    +0.086 C 
ATOM      4  N   UNL     1       7.943  -2.145  26.449  0.00  0.00    -0.299 NA
ATOM      5  C   UNL     1       8.693  -0.943  26.811  0.00  0.00    +0.086 C 
ATOM      6  C   UNL     1       9.164  -0.066  25.639  0.00  0.00    +0.038 C 
ENDROOT
BRANCH   1   8
ATOM      7  C   UNL     1       7.653   1.826  22.655  0.00  0.00    +0.220 C 
ATOM      8  N   UNL     1       7.607   1.282  23.964  0.00  0.00    -0.268 N 
ATOM      9  O   UNL     1       7.022   2.811  22.264  0.00  0.00    -0.275 OA
BRANCH   8  10
ATOM     10  C   UNL     1       7.033   2.097  25.071  0.00  0.00    +0.037 A 
ATOM     11  C   UNL     1       5.797   1.782  25.679  0.00  0.00    +0.023 A 
ATOM     12  C   UNL     1       5.269   2.517  26.756  0.00  0.00    +0.002 A 
ATOM     13  C   UNL     1       5.972   3.585  27.286  0.00  0.00    +0.000 A 
ATOM     14  C   UNL     1       7.188   3.929  26.721  0.00  0.00    +0.002 A 
ATOM     15  C   UNL     1       7.695   3.208  25.626  0.00  0.00    +0.023 A 
ENDBRANCH   8  10
BRANCH   7  17
ATOM     16  C   UNL     1      10.073   1.664  21.883  0.00  0.00    +0.013 C 
ATOM     17  C   UNL     1       8.630   1.237  21.663  0.00  0.00    +0.093 C 
ENDBRANCH   7  17
ENDBRANCH   1   8
BRANCH   4  18
ATOM     18  C   UNL     1       8.787  -3.257  25.982  0.00  0.00    +0.120 C 
BRANCH  18  19
ATOM     19  C   UNL     1       8.220  -4.682  26.240  0.00  0.00    +0.158 C 
BRANCH  19  20
ATOM     20  C   UNL     1       7.387  -5.133  25.063  0.00  0.00    -0.018 A 
ATOM     21  C   UNL     1       6.052  -5.529  25.237  0.00  0.00    +0.006 A 
ATOM     22  C   UNL     1       5.270  -5.884  24.138  0.00  0.00    +0.000 A 
ATOM     23  C   UNL     1       5.826  -5.870  22.858  0.00  0.00    +0.000 A 
ATOM     24  C   UNL     1       7.157  -5.504  22.677  0.00  0.00    +0.000 A 
ATOM     25  C   UNL     1       7.933  -5.131  23.772  0.00  0.00    +0.006 A 
ENDBRANCH  19  20
BRANCH  19  26
ATOM     26  O   UNL     1       7.422  -4.760  27.417  0.00  0.00    -0.386 OA
ATOM     27  H   UNL     1       7.724  -4.065  28.022  0.00  0.00    +0.210 HD
ENDBRANCH  19  26
ENDBRANCH  18  19
ENDBRANCH   4  18
TORSDOF 7
ENDMDL
MODEL 9
REMARK VINA RESULT:      -5.9      2.503      4.190
REMARK  Name = 
REMARK  8 active torsions:
REMARK  status: ('A' for Active; 'I' for Inactive)
REMARK    1  A    between atoms: C_1  and  C_2
REMARK    2  A    between atoms: C_2  and  C_3
REMARK    3  A    between atoms: N_5  and  C_6
REMARK    4  A    between atoms: N_5  and  C_21
REMARK    5  A    between atoms: N_9  and  C_10
REMARK    6  A    between atoms: C_10  and  C_11
REMARK    7  A    between atoms: C_11  and  O_12
REMARK    8  A    between atoms: C_11  and  C_13
REMARK                            x       y       z     vdW  Elec       q    Type
REMARK                         _______ _______ _______ _____ _____    ______ ____
ROOT
ATOM      1  C   UNL     1       7.895  -1.186  24.987  0.00  0.00    +0.084 C 
ATOM      2  C   UNL     1       8.462  -0.429  26.193  0.00  0.00    +0.038 C 
ATOM      3  C   UNL     1       7.414  -0.024  27.221  0.00  0.00    +0.086 C 
ATOM      4  N   UNL     1       6.268   0.687  26.650  0.00  0.00    -0.299 NA
ATOM      5  C   UNL     1       5.571  -0.123  25.651  0.00  0.00    +0.086 C 
ATOM      6  C   UNL     1       6.458  -0.773  24.576  0.00  0.00    +0.038 C 
ENDROOT
BRANCH   1   8
ATOM      7  C   UNL     1       9.464  -3.162  24.369  0.00  0.00    +0.220 C 
ATOM      8  N   UNL     1       8.288  -2.652  24.978  0.00  0.00    -0.268 N 
ATOM      9  O   UNL     1       9.872  -4.322  24.456  0.00  0.00    -0.275 OA
BRANCH   8  10
ATOM     10  C   UNL     1       7.267  -3.604  25.499  0.00  0.00    +0.037 A 
ATOM     11  C   UNL     1       6.483  -4.413  24.645  0.00  0.00    +0.023 A 
ATOM     12  C   UNL     1       5.551  -5.349  25.127  0.00  0.00    +0.002 A 
ATOM     13  C   UNL     1       5.383  -5.532  26.489  0.00  0.00    +0.000 A 
ATOM     14  C   UNL     1       6.130  -4.760  27.362  0.00  0.00    +0.002 A 
ATOM     15  C   UNL     1       7.039  -3.807  26.872  0.00  0.00    +0.023 A 
ENDBRANCH   8  10
BRANCH   7  17
ATOM     16  C   UNL     1       9.474  -1.825  22.203  0.00  0.00    +0.013 C 
ATOM     17  C   UNL     1      10.243  -2.259  23.441  0.00  0.00    +0.093 C 
ENDBRANCH   7  17
ENDBRANCH   1   8
BRANCH   4  18
ATOM     18  C   UNL     1       6.640   2.030  26.174  0.00  0.00    +0.120 C 
BRANCH  18  19
ATOM     19  C   UNL     1       6.333   2.319  24.678  0.00  0.00    +0.158 C 
BRANCH  19  20
ATOM     20  C   UNL     1       7.608   2.285  23.866  0.00  0.00    -0.018 A 
ATOM     21  C   UNL     1       8.846   2.578  24.459  0.00  0.00    +0.006 A 
ATOM     22  C   UNL     1      10.024   2.484  23.720  0.00  0.00    +0.000 A 
ATOM     23  C   UNL     1       9.972   2.119  22.374  0.00  0.00    +0.000 A 
ATOM     24  C   UNL     1       8.747   1.851  21.769  0.00  0.00    +0.000 A 
ATOM     25  C   UNL     1       7.570   1.927  22.512  0.00  0.00    +0.006 A 
ENDBRANCH  19  20
BRANCH  19  26
ATOM     26  O   UNL     1       5.699   3.577  24.471  0.00  0.00    -0.386 OA
ATOM     27  H   UNL     1       5.102   3.730  25.220  0.00  0.00    +0.210 HD
ENDBRANCH  19  26
ENDBRANCH  18  19
ENDBRANCH   4  18
TORSDOF 7
ENDMDL
