MODEL 1
REMARK VINA RESULT:      -7.1      0.000      0.000
REMARK  Name = 
REMARK  1 active torsions:
REMARK  status: ('A' for Active; 'I' for Inactive)
REMARK    1  A    between atoms: C_2  and  C_3
REMARK                            x       y       z     vdW  Elec       q    Type
REMARK                         _______ _______ _______ _____ _____    ______ ____
ROOT
ATOM      1  O   UNL     1       8.636  -0.497  22.138  0.00  0.00    -0.275 OA
ATOM      2  C   UNL     1       8.263  -0.960  23.215  0.00  0.00    +0.219 C 
ATOM      3  N   UNL     1       7.830  -2.273  23.309  0.00  0.00    -0.290 N 
ATOM      4  C   UNL     1       7.699  -3.089  22.077  0.00  0.00    +0.203 C 
ATOM      5  C   UNL     1       6.286  -3.720  21.980  0.00  0.00    +0.233 C 
ATOM      6  O   UNL     1       5.631  -3.725  20.943  0.00  0.00    -0.274 OA
ATOM      7  N   UNL     1       5.835  -4.325  23.176  0.00  0.00    -0.291 N 
ATOM      8  C   UNL     1       4.412  -4.188  23.454  0.00  0.00    +0.113 C 
ATOM      9  C   UNL     1       3.907  -4.936  24.693  0.00  0.00    +0.054 C 
ATOM     10  C   UNL     1       4.904  -5.070  25.814  0.00  0.00    -0.041 A 
ATOM     11  C   UNL     1       6.268  -4.859  25.586  0.00  0.00    -0.022 A 
ATOM     12  C   UNL     1       7.202  -5.132  26.602  0.00  0.00    +0.006 A 
ATOM     13  C   UNL     1       6.783  -5.555  27.855  0.00  0.00    +0.000 A 
ATOM     14  C   UNL     1       5.423  -5.721  28.103  0.00  0.00    +0.000 A 
ATOM     15  C   UNL     1       4.491  -5.496  27.084  0.00  0.00    +0.004 A 
ATOM     16  C   UNL     1       6.768  -4.276  24.297  0.00  0.00    +0.124 C 
ATOM     17  C   UNL     1       7.202  -2.817  24.510  0.00  0.00    +0.135 C 
ENDROOT
BRANCH   2  18
ATOM     18  C   UNL     1       8.336  -0.128  24.516  0.00  0.00    +0.075 C 
ATOM     19  C   UNL     1       7.985   1.348  24.288  0.00  0.00    +0.013 C 
ATOM     20  C   UNL     1       9.057   2.131  23.534  0.00  0.00    +0.001 C 
ATOM     21  C   UNL     1      10.457   1.926  24.104  0.00  0.00    +0.000 C 
ATOM     22  C   UNL     1      10.797   0.462  24.367  0.00  0.00    +0.001 C 
ATOM     23  C   UNL     1       9.715  -0.246  25.177  0.00  0.00    +0.013 C 
ENDBRANCH   2  18
TORSDOF 1
ENDMDL
MODEL 2
REMARK VINA RESULT:      -7.0      2.350      3.224
REMARK  Name = 
REMARK  1 active torsions:
REMARK  status: ('A' for Active; 'I' for Inactive)
REMARK    1  A    between atoms: C_2  and  C_3
REMARK                            x       y       z     vdW  Elec       q    Type
REMARK                         _______ _______ _______ _____ _____    ______ ____
ROOT
ATOM      1  O   UNL     1       9.966  -0.331  24.973  0.00  0.00    -0.275 OA
ATOM      2  C   UNL     1       8.845  -0.669  24.597  0.00  0.00    +0.219 C 
ATOM      3  N   UNL     1       8.313  -1.894  24.968  0.00  0.00    -0.290 N 
ATOM      4  C   UNL     1       9.153  -2.857  25.720  0.00  0.00    +0.203 C 
ATOM      5  C   UNL     1       9.166  -4.241  25.022  0.00  0.00    +0.233 C 
ATOM      6  O   UNL     1      10.192  -4.894  24.860  0.00  0.00    -0.274 OA
ATOM      7  N   UNL     1       7.890  -4.707  24.628  0.00  0.00    -0.291 N 
ATOM      8  C   UNL     1       7.849  -5.445  23.373  0.00  0.00    +0.113 C 
ATOM      9  C   UNL     1       6.486  -6.041  23.003  0.00  0.00    +0.054 C 
ATOM     10  C   UNL     1       5.291  -5.256  23.477  0.00  0.00    -0.041 A 
ATOM     11  C   UNL     1       5.424  -4.286  24.476  0.00  0.00    -0.022 A 
ATOM     12  C   UNL     1       4.281  -3.668  25.014  0.00  0.00    +0.006 A 
ATOM     13  C   UNL     1       3.017  -3.965  24.524  0.00  0.00    +0.000 A 
ATOM     14  C   UNL     1       2.882  -4.895  23.496  0.00  0.00    +0.000 A 
ATOM     15  C   UNL     1       4.010  -5.548  22.987  0.00  0.00    +0.004 A 
ATOM     16  C   UNL     1       6.772  -3.827  24.951  0.00  0.00    +0.124 C 
ATOM     17  C   UNL     1       7.076  -2.425  24.401  0.00  0.00    +0.135 C 
ENDROOT
BRANCH   2  18
ATOM     18  C   UNL     1       7.954   0.285  23.769  0.00  0.00    +0.075 C 
ATOM     19  C   UNL     1       8.250   0.205  22.265  0.00  0.00    +0.013 C 
ATOM     20  C   UNL     1       9.582   0.835  21.862  0.00  0.00    +0.001 C 
ATOM     21  C   UNL     1       9.781   2.231  22.442  0.00  0.00    +0.000 C 
ATOM     22  C   UNL     1       9.453   2.324  23.929  0.00  0.00    +0.001 C 
ATOM     23  C   UNL     1       8.084   1.734  24.255  0.00  0.00    +0.013 C 
ENDBRANCH   2  18
TORSDOF 1
ENDMDL
MODEL 3
REMARK VINA RESULT:      -6.9      1.919      7.067
REMARK  Name = 
REMARK  1 active torsions:
REMARK  status: ('A' for Active; 'I' for Inactive)
REMARK    1  A    between atoms: C_2  and  C_3
REMARK                            x       y       z     vdW  Elec       q    Type
REMARK                         _______ _______ _______ _____ _____    ______ ____
ROOT
ATOM      1  O   UNL     1       6.938  -3.931  23.756  0.00  0.00    -0.275 OA
ATOM      2  C   UNL     1       6.740  -2.724  23.881  0.00  0.00    +0.219 C 
ATOM      3  N   UNL     1       7.447  -1.808  23.119  0.00  0.00    -0.290 N 
ATOM      4  C   UNL     1       8.540  -2.282  22.235  0.00  0.00    +0.203 C 
ATOM      5  C   UNL     1       9.851  -1.503  22.512  0.00  0.00    +0.233 C 
ATOM      6  O   UNL     1      10.943  -2.054  22.610  0.00  0.00    -0.274 OA
ATOM      7  N   UNL     1       9.689  -0.101  22.600  0.00  0.00    -0.291 N 
ATOM      8  C   UNL     1      10.529   0.571  23.582  0.00  0.00    +0.113 C 
ATOM      9  C   UNL     1      10.430   2.100  23.599  0.00  0.00    +0.054 C 
ATOM     10  C   UNL     1       9.084   2.661  23.221  0.00  0.00    -0.041 A 
ATOM     11  C   UNL     1       8.140   1.869  22.559  0.00  0.00    -0.022 A 
ATOM     12  C   UNL     1       6.949   2.444  22.081  0.00  0.00    +0.006 A 
ATOM     13  C   UNL     1       6.668   3.784  22.308  0.00  0.00    +0.000 A 
ATOM     14  C   UNL     1       7.582   4.567  23.009  0.00  0.00    +0.000 A 
ATOM     15  C   UNL     1       8.790   4.013  23.448  0.00  0.00    +0.004 A 
ATOM     16  C   UNL     1       8.328   0.388  22.402  0.00  0.00    +0.124 C 
ATOM     17  C   UNL     1       7.391  -0.368  23.357  0.00  0.00    +0.135 C 
ENDROOT
BRANCH   2  18
ATOM     18  C   UNL     1       5.644  -2.184  24.828  0.00  0.00    +0.075 C 
ATOM     19  C   UNL     1       6.139  -2.037  26.273  0.00  0.00    +0.013 C 
ATOM     20  C   UNL     1       6.338  -3.366  26.997  0.00  0.00    +0.001 C 
ATOM     21  C   UNL     1       5.143  -4.305  26.862  0.00  0.00    +0.000 C 
ATOM     22  C   UNL     1       4.625  -4.425  25.432  0.00  0.00    +0.001 C 
ATOM     23  C   UNL     1       4.388  -3.062  24.788  0.00  0.00    +0.013 C 
ENDBRANCH   2  18
TORSDOF 1
ENDMDL
MODEL 4
REMARK VINA RESULT:      -6.9      1.681      6.811
REMARK  Name = 
REMARK  1 active torsions:
REMARK  status: ('A' for Active; 'I' for Inactive)
REMARK    1  A    between atoms: C_2  and  C_3
REMARK                            x       y       z     vdW  Elec       q    Type
REMARK                         _______ _______ _______ _____ _____    ______ ____
ROOT
ATOM      1  O   UNL     1       7.497  -4.549  23.630  0.00  0.00    -0.275 OA
ATOM      2  C   UNL     1       7.204  -3.439  24.069  0.00  0.00    +0.219 C 
ATOM      3  N   UNL     1       7.631  -2.288  23.426  0.00  0.00    -0.290 N 
ATOM      4  C   UNL     1       8.553  -2.397  22.269  0.00  0.00    +0.203 C 
ATOM      5  C   UNL     1       9.804  -1.504  22.473  0.00  0.00    +0.233 C 
ATOM      6  O   UNL     1      10.943  -1.892  22.235  0.00  0.00    -0.274 OA
ATOM      7  N   UNL     1       9.517  -0.192  22.916  0.00  0.00    -0.291 N 
ATOM      8  C   UNL     1      10.473   0.379  23.856  0.00  0.00    +0.113 C 
ATOM      9  C   UNL     1      10.218   1.839  24.249  0.00  0.00    +0.054 C 
ATOM     10  C   UNL     1       8.771   2.257  24.269  0.00  0.00    -0.041 A 
ATOM     11  C   UNL     1       7.797   1.487  23.626  0.00  0.00    -0.022 A 
ATOM     12  C   UNL     1       6.477   1.962  23.525  0.00  0.00    +0.006 A 
ATOM     13  C   UNL     1       6.111   3.167  24.108  0.00  0.00    +0.000 A 
ATOM     14  C   UNL     1       7.066   3.915  24.791  0.00  0.00    +0.000 A 
ATOM     15  C   UNL     1       8.391   3.471  24.857  0.00  0.00    +0.004 A 
ATOM     16  C   UNL     1       8.102   0.117  23.094  0.00  0.00    +0.124 C 
ATOM     17  C   UNL     1       7.476  -0.954  24.001  0.00  0.00    +0.135 C 
ENDROOT
BRANCH   2  18
ATOM     18  C   UNL     1       6.286  -3.279  25.302  0.00  0.00    +0.075 C 
ATOM     19  C   UNL     1       6.959  -3.751  26.598  0.00  0.00    +0.013 C 
ATOM     20  C   UNL     1       7.109  -5.267  26.702  0.00  0.00    +0.001 C 
ATOM     21  C   UNL     1       5.818  -6.017  26.385  0.00  0.00    +0.000 C 
ATOM     22  C   UNL     1       5.127  -5.526  25.117  0.00  0.00    +0.001 C 
ATOM     23  C   UNL     1       4.953  -4.010  25.104  0.00  0.00    +0.013 C 
ENDBRANCH   2  18
TORSDOF 1
ENDMDL
MODEL 5
REMARK VINA RESULT:      -6.8      1.869      2.421
REMARK  Name = 
REMARK  1 active torsions:
REMARK  status: ('A' for Active; 'I' for Inactive)
REMARK    1  A    between atoms: C_2  and  C_3
REMARK                            x       y       z     vdW  Elec       q    Type
REMARK                         _______ _______ _______ _____ _____    ______ ____
ROOT
ATOM      1  O   UNL     1      10.103  -1.929  23.524  0.00  0.00    -0.275 OA
ATOM      2  C   UNL     1       8.943  -1.731  23.880  0.00  0.00    +0.219 C 
ATOM      3  N   UNL     1       8.151  -2.777  24.327  0.00  0.00    -0.290 N 
ATOM      4  C   UNL     1       8.669  -4.166  24.258  0.00  0.00    +0.203 C 
ATOM      5  C   UNL     1       7.669  -5.092  23.519  0.00  0.00    +0.233 C 
ATOM      6  O   UNL     1       8.019  -5.904  22.669  0.00  0.00    -0.274 OA
ATOM      7  N   UNL     1       6.326  -4.950  23.938  0.00  0.00    -0.291 N 
ATOM      8  C   UNL     1       5.322  -5.080  22.890  0.00  0.00    +0.113 C 
ATOM      9  C   UNL     1       3.865  -5.035  23.364  0.00  0.00    +0.054 C 
ATOM     10  C   UNL     1       3.609  -4.180  24.578  0.00  0.00    -0.041 A 
ATOM     11  C   UNL     1       4.664  -3.776  25.402  0.00  0.00    -0.022 A 
ATOM     12  C   UNL     1       4.399  -3.106  26.610  0.00  0.00    +0.006 A 
ATOM     13  C   UNL     1       3.097  -2.785  26.971  0.00  0.00    +0.000 A 
ATOM     14  C   UNL     1       2.046  -3.142  26.130  0.00  0.00    +0.000 A 
ATOM     15  C   UNL     1       2.299  -3.849  24.950  0.00  0.00    +0.004 A 
ATOM     16  C   UNL     1       6.097  -3.977  25.000  0.00  0.00    +0.124 C 
ATOM     17  C   UNL     1       6.720  -2.636  24.580  0.00  0.00    +0.135 C 
ENDROOT
BRANCH   2  18
ATOM     18  C   UNL     1       8.347  -0.305  23.920  0.00  0.00    +0.075 C 
ATOM     19  C   UNL     1       7.901   0.183  22.535  0.00  0.00    +0.013 C 
ATOM     20  C   UNL     1       9.057   0.516  21.594  0.00  0.00    +0.001 C 
ATOM     21  C   UNL     1      10.110   1.412  22.238  0.00  0.00    +0.000 C 
ATOM     22  C   UNL     1      10.530   0.951  23.631  0.00  0.00    +0.001 C 
ATOM     23  C   UNL     1       9.330   0.694  24.539  0.00  0.00    +0.013 C 
ENDBRANCH   2  18
TORSDOF 1
ENDMDL
MODEL 6
REMARK VINA RESULT:      -6.6      2.270      3.638
REMARK  Name = 
REMARK  1 active torsions:
REMARK  status: ('A' for Active; 'I' for Inactive)
REMARK    1  A    between atoms: C_2  and  C_3
REMARK                            x       y       z     vdW  Elec       q    Type
REMARK                         _______ _______ _______ _____ _____    ______ ____
ROOT
ATOM      1  O   UNL     1      10.101   2.251  24.378  0.00  0.00    -0.275 OA
ATOM      2  C   UNL     1       9.002   1.718  24.514  0.00  0.00    +0.219 C 
ATOM      3  N   UNL     1       8.889   0.339  24.592  0.00  0.00    -0.290 N 
ATOM      4  C   UNL     1      10.092  -0.505  24.384  0.00  0.00    +0.203 C 
ATOM      5  C   UNL     1       9.830  -1.582  23.299  0.00  0.00    +0.233 C 
ATOM      6  O   UNL     1      10.635  -1.837  22.409  0.00  0.00    -0.274 OA
ATOM      7  N   UNL     1       8.606  -2.273  23.448  0.00  0.00    -0.291 N 
ATOM      8  C   UNL     1       7.924  -2.622  22.209  0.00  0.00    +0.113 C 
ATOM      9  C   UNL     1       6.653  -3.465  22.370  0.00  0.00    +0.054 C 
ATOM     10  C   UNL     1       5.876  -3.221  23.637  0.00  0.00    -0.041 A 
ATOM     11  C   UNL     1       6.466  -2.564  24.722  0.00  0.00    -0.022 A 
ATOM     12  C   UNL     1       5.783  -2.475  25.949  0.00  0.00    +0.006 A 
ATOM     13  C   UNL     1       4.499  -2.983  26.082  0.00  0.00    +0.000 A 
ATOM     14  C   UNL     1       3.887  -3.596  24.992  0.00  0.00    +0.000 A 
ATOM     15  C   UNL     1       4.578  -3.729  23.782  0.00  0.00    +0.004 A 
ATOM     16  C   UNL     1       7.796  -1.879  24.597  0.00  0.00    +0.124 C 
ATOM     17  C   UNL     1       7.604  -0.355  24.563  0.00  0.00    +0.135 C 
ENDROOT
BRANCH   2  18
ATOM     18  C   UNL     1       7.716   2.558  24.685  0.00  0.00    +0.075 C 
ATOM     19  C   UNL     1       7.064   2.912  23.341  0.00  0.00    +0.013 C 
ATOM     20  C   UNL     1       7.834   3.955  22.535  0.00  0.00    +0.001 C 
ATOM     21  C   UNL     1       8.220   5.180  23.358  0.00  0.00    +0.000 C 
ATOM     22  C   UNL     1       8.835   4.833  24.711  0.00  0.00    +0.001 C 
ATOM     23  C   UNL     1       7.986   3.834  25.491  0.00  0.00    +0.013 C 
ENDBRANCH   2  18
TORSDOF 1
ENDMDL
MODEL 7
REMARK VINA RESULT:      -6.6      1.971      3.200
REMARK  Name = 
REMARK  1 active torsions:
REMARK  status: ('A' for Active; 'I' for Inactive)
REMARK    1  A    between atoms: C_2  and  C_3
REMARK                            x       y       z     vdW  Elec       q    Type
REMARK                         _______ _______ _______ _____ _____    ______ ____
ROOT
ATOM      1  O   UNL     1       9.156   1.822  24.726  0.00  0.00    -0.275 OA
ATOM      2  C   UNL     1       8.400   0.937  25.125  0.00  0.00    +0.219 C 
ATOM      3  N   UNL     1       8.761  -0.397  25.027  0.00  0.00    -0.290 N 
ATOM      4  C   UNL     1      10.013  -0.766  24.323  0.00  0.00    +0.203 C 
ATOM      5  C   UNL     1       9.739  -1.832  23.231  0.00  0.00    +0.233 C 
ATOM      6  O   UNL     1      10.218  -1.765  22.103  0.00  0.00    -0.274 OA
ATOM      7  N   UNL     1       8.927  -2.908  23.658  0.00  0.00    -0.291 N 
ATOM      8  C   UNL     1       8.000  -3.431  22.663  0.00  0.00    +0.113 C 
ATOM      9  C   UNL     1       7.200  -4.666  23.093  0.00  0.00    +0.054 C 
ATOM     10  C   UNL     1       6.882  -4.747  24.563  0.00  0.00    -0.041 A 
ATOM     11  C   UNL     1       7.577  -3.961  25.488  0.00  0.00    -0.022 A 
ATOM     12  C   UNL     1       7.377  -4.153  26.867  0.00  0.00    +0.006 A 
ATOM     13  C   UNL     1       6.449  -5.078  27.326  0.00  0.00    +0.000 A 
ATOM     14  C   UNL     1       5.719  -5.829  26.409  0.00  0.00    +0.000 A 
ATOM     15  C   UNL     1       5.946  -5.676  25.037  0.00  0.00    +0.004 A 
ATOM     16  C   UNL     1       8.493  -2.855  25.050  0.00  0.00    +0.124 C 
ATOM     17  C   UNL     1       7.834  -1.491  25.306  0.00  0.00    +0.135 C 
ENDROOT
BRANCH   2  18
ATOM     18  C   UNL     1       7.062   1.276  25.820  0.00  0.00    +0.075 C 
ATOM     19  C   UNL     1       5.940   1.577  24.817  0.00  0.00    +0.013 C 
ATOM     20  C   UNL     1       6.094   2.917  24.099  0.00  0.00    +0.001 C 
ATOM     21  C   UNL     1       6.378   4.074  25.052  0.00  0.00    +0.000 C 
ATOM     22  C   UNL     1       7.468   3.766  26.075  0.00  0.00    +0.001 C 
ATOM     23  C   UNL     1       7.221   2.445  26.799  0.00  0.00    +0.013 C 
ENDBRANCH   2  18
TORSDOF 1
ENDMDL
MODEL 8
REMARK VINA RESULT:      -6.6      2.786      6.820
REMARK  Name = 
REMARK  1 active torsions:
REMARK  status: ('A' for Active; 'I' for Inactive)
REMARK    1  A    between atoms: C_2  and  C_3
REMARK                            x       y       z     vdW  Elec       q    Type
REMARK                         _______ _______ _______ _____ _____    ______ ____
ROOT
ATOM      1  O   UNL     1       4.795  -3.343  24.053  0.00  0.00    -0.275 OA
ATOM      2  C   UNL     1       5.744  -2.651  23.686  0.00  0.00    +0.219 C 
ATOM      3  N   UNL     1       6.203  -1.606  24.472  0.00  0.00    -0.290 N 
ATOM      4  C   UNL     1       5.465  -1.241  25.706  0.00  0.00    +0.203 C 
ATOM      5  C   UNL     1       5.121   0.271  25.717  0.00  0.00    +0.233 C 
ATOM      6  O   UNL     1       4.017   0.698  26.039  0.00  0.00    -0.274 OA
ATOM      7  N   UNL     1       6.198   1.116  25.366  0.00  0.00    -0.291 N 
ATOM      8  C   UNL     1       5.846   2.297  24.589  0.00  0.00    +0.113 C 
ATOM      9  C   UNL     1       6.999   3.266  24.304  0.00  0.00    +0.054 C 
ATOM     10  C   UNL     1       8.356   2.629  24.168  0.00  0.00    -0.041 A 
ATOM     11  C   UNL     1       8.585   1.329  24.631  0.00  0.00    -0.022 A 
ATOM     12  C   UNL     1       9.889   0.801  24.635  0.00  0.00    +0.006 A 
ATOM     13  C   UNL     1      10.952   1.535  24.126  0.00  0.00    +0.000 A 
ATOM     14  C   UNL     1      10.722   2.811  23.619  0.00  0.00    +0.000 A 
ATOM     15  C   UNL     1       9.436   3.361  23.655  0.00  0.00    +0.004 A 
ATOM     16  C   UNL     1       7.457   0.440  25.068  0.00  0.00    +0.124 C 
ATOM     17  C   UNL     1       7.194  -0.639  24.007  0.00  0.00    +0.135 C 
ENDROOT
BRANCH   2  18
ATOM     18  C   UNL     1       6.512  -2.966  22.382  0.00  0.00    +0.075 C 
ATOM     19  C   UNL     1       5.743  -3.929  21.468  0.00  0.00    +0.013 C 
ATOM     20  C   UNL     1       5.698  -5.367  21.982  0.00  0.00    +0.001 C 
ATOM     21  C   UNL     1       7.068  -5.894  22.398  0.00  0.00    +0.000 C 
ATOM     22  C   UNL     1       7.851  -4.923  23.277  0.00  0.00    +0.001 C 
ATOM     23  C   UNL     1       7.910  -3.521  22.677  0.00  0.00    +0.013 C 
ENDBRANCH   2  18
TORSDOF 1
ENDMDL
MODEL 9
REMARK VINA RESULT:      -6.3      2.969      7.325
REMARK  Name = 
REMARK  1 active torsions:
REMARK  status: ('A' for Active; 'I' for Inactive)
REMARK    1  A    between atoms: C_2  and  C_3
REMARK                            x       y       z     vdW  Elec       q    Type
REMARK                         _______ _______ _______ _____ _____    ______ ____
ROOT
ATOM      1  O   UNL     1       9.140  -1.961  22.206  0.00  0.00    -0.275 OA
ATOM      2  C   UNL     1       8.210  -1.298  22.664  0.00  0.00    +0.219 C 
ATOM      3  N   UNL     1       8.066   0.040  22.336  0.00  0.00    -0.290 N 
ATOM      4  C   UNL     1       9.111   0.710  21.525  0.00  0.00    +0.203 C 
ATOM      5  C   UNL     1       9.607   2.003  22.221  0.00  0.00    +0.233 C 
ATOM      6  O   UNL     1      10.795   2.297  22.309  0.00  0.00    -0.274 OA
ATOM      7  N   UNL     1       8.573   2.835  22.710  0.00  0.00    -0.291 N 
ATOM      8  C   UNL     1       8.853   3.518  23.965  0.00  0.00    +0.113 C 
ATOM      9  C   UNL     1       7.776   4.502  24.435  0.00  0.00    +0.054 C 
ATOM     10  C   UNL     1       6.365   4.143  24.050  0.00  0.00    -0.041 A 
ATOM     11  C   UNL     1       6.117   3.205  23.042  0.00  0.00    -0.022 A 
ATOM     12  C   UNL     1       4.802   2.989  22.589  0.00  0.00    +0.006 A 
ATOM     13  C   UNL     1       3.734   3.656  23.171  0.00  0.00    +0.000 A 
ATOM     14  C   UNL     1       3.970   4.555  24.208  0.00  0.00    +0.000 A 
ATOM     15  C   UNL     1       5.278   4.810  24.633  0.00  0.00    +0.004 A 
ATOM     16  C   UNL     1       7.215   2.358  22.468  0.00  0.00    +0.124 C 
ATOM     17  C   UNL     1       7.101   0.918  22.992  0.00  0.00    +0.135 C 
ENDROOT
BRANCH   2  18
ATOM     18  C   UNL     1       7.125  -1.945  23.555  0.00  0.00    +0.075 C 
ATOM     19  C   UNL     1       7.710  -2.952  24.554  0.00  0.00    +0.013 C 
ATOM     20  C   UNL     1       8.191  -4.252  23.913  0.00  0.00    +0.001 C 
ATOM     21  C   UNL     1       7.163  -4.868  22.970  0.00  0.00    +0.000 C 
ATOM     22  C   UNL     1       6.551  -3.863  21.998  0.00  0.00    +0.001 C 
ATOM     23  C   UNL     1       6.035  -2.615  22.710  0.00  0.00    +0.013 C 
ENDBRANCH   2  18
TORSDOF 1
ENDMDL
