MODEL 1
REMARK VINA RESULT:      -7.3      0.000      0.000
REMARK  Name = 
REMARK  6 active torsions:
REMARK  status: ('A' for Active; 'I' for Inactive)
REMARK    1  A    between atoms: CA_7  and  C_25
REMARK    2  A    between atoms: CA_11  and  N_13
REMARK    3  A    between atoms: C_14  and  CA_16
REMARK    4  A    between atoms: CA_16  and  N_18
REMARK    5  A    between atoms: CA_16  and  C_19
REMARK    6  A    between atoms: C_25  and  O_26
REMARK                            x       y       z     vdW  Elec       q    Type
REMARK                         _______ _______ _______ _____ _____    ______ ____
ROOT
ATOM      1  C   UNL     1       7.828  -1.440  25.418  0.00  0.00    +0.169 C 
ATOM      2  CA  UNL     1       9.183  -0.771  25.027  0.00  0.00    +0.191 C 
ATOM      3  C   UNL     1       9.408  -2.103  24.229  0.00  0.00    +0.244 C 
ATOM      4  O   UNL     1      10.273  -2.653  23.590  0.00  0.00    -0.273 OA
ATOM      5  N   UNL     1       8.123  -2.464  24.429  0.00  0.00    -0.248 N 
ATOM      6  CA  UNL     1       7.236  -3.420  24.005  0.00  0.00    +0.137 C 
ATOM      7  C   UNL     1       5.913  -3.238  24.266  0.00  0.00    +0.057 C 
ATOM      8 CL   UNL     1       4.647  -4.356  23.819  0.00  0.00    -0.085 Cl
ATOM      9  C   UNL     1       5.301  -2.036  24.954  0.00  0.00    +0.120 C 
ATOM     10  S   UNL     1       6.333  -0.550  24.918  0.00  0.00    -0.130 S 
ENDROOT
BRANCH   2  11
ATOM     11  N   UNL     1       9.079   0.451  24.199  0.00  0.00    -0.300 N 
ATOM     12  H   UNL     1       8.206   0.699  23.729  0.00  0.00    +0.150 HD
ATOM     13  C   UNL     1      10.121   1.320  23.961  0.00  0.00    +0.235 C 
ATOM     14  O   UNL     1      11.235   1.181  24.458  0.00  0.00    -0.274 OA
BRANCH  13  15
ATOM     15  CA  UNL     1       9.734   2.482  23.013  0.00  0.00    +0.168 C 
BRANCH  15  16
ATOM     16  C   UNL     1      10.339   3.797  23.468  0.00  0.00    -0.022 A 
ATOM     17  C   UNL     1       9.590   4.775  24.146  0.00  0.00    +0.005 A 
ATOM     18  C   UNL     1      10.183   5.970  24.559  0.00  0.00    +0.000 A 
ATOM     19  C   UNL     1      11.527   6.213  24.288  0.00  0.00    +0.000 A 
ATOM     20  C   UNL     1      12.277   5.266  23.595  0.00  0.00    +0.000 A 
ATOM     21  C   UNL     1      11.687   4.068  23.185  0.00  0.00    +0.005 A 
ENDBRANCH  15  16
BRANCH  15  22
ATOM     22  N   UNL     1      10.138   2.137  21.620  0.00  0.00    -0.316 NA
ATOM     23  H1  UNL     1       9.399   1.560  21.215  0.00  0.00    +0.119 HD
ATOM     24  H2  UNL     1      10.131   3.004  21.080  0.00  0.00    +0.119 HD
ENDBRANCH  15  22
ENDBRANCH  13  15
ENDBRANCH   2  11
BRANCH   6  25
ATOM     25  C   UNL     1       7.708  -4.642  23.235  0.00  0.00    +0.353 C 
ATOM     26  OXT UNL     1       7.291  -4.966  22.133  0.00  0.00    -0.244 OA
BRANCH  25  27
ATOM     27  O   UNL     1       8.596  -5.449  23.848  0.00  0.00    -0.476 OA
ATOM     28  H   UNL     1       9.007  -6.181  23.337  0.00  0.00    +0.295 HD
ENDBRANCH  25  27
ENDBRANCH   6  25
TORSDOF 6
ENDMDL
MODEL 2
REMARK VINA RESULT:      -7.3      3.004      4.099
REMARK  Name = 
REMARK  6 active torsions:
REMARK  status: ('A' for Active; 'I' for Inactive)
REMARK    1  A    between atoms: CA_7  and  C_25
REMARK    2  A    between atoms: CA_11  and  N_13
REMARK    3  A    between atoms: C_14  and  CA_16
REMARK    4  A    between atoms: CA_16  and  N_18
REMARK    5  A    between atoms: CA_16  and  C_19
REMARK    6  A    between atoms: C_25  and  O_26
REMARK                            x       y       z     vdW  Elec       q    Type
REMARK                         _______ _______ _______ _____ _____    ______ ____
ROOT
ATOM      1  C   UNL     1       7.611  -5.195  25.381  0.00  0.00    +0.169 C 
ATOM      2  CA  UNL     1       8.655  -4.477  24.470  0.00  0.00    +0.191 C 
ATOM      3  C   UNL     1       7.577  -4.706  23.354  0.00  0.00    +0.244 C 
ATOM      4  O   UNL     1       7.448  -4.566  22.161  0.00  0.00    -0.273 OA
ATOM      5  N   UNL     1       6.669  -5.082  24.280  0.00  0.00    -0.248 N 
ATOM      6  CA  UNL     1       5.328  -5.355  24.367  0.00  0.00    +0.137 C 
ATOM      7  C   UNL     1       4.762  -5.433  25.602  0.00  0.00    +0.057 C 
ATOM      8 CL   UNL     1       3.079  -5.788  25.904  0.00  0.00    -0.085 Cl
ATOM      9  C   UNL     1       5.470  -5.199  26.920  0.00  0.00    +0.120 C 
ATOM     10  S   UNL     1       6.995  -4.234  26.787  0.00  0.00    -0.130 S 
ENDROOT
BRANCH   2  11
ATOM     11  N   UNL     1       8.929  -3.061  24.801  0.00  0.00    -0.300 N 
ATOM     12  H   UNL     1       8.478  -2.607  25.598  0.00  0.00    +0.150 HD
ATOM     13  C   UNL     1       9.761  -2.239  24.073  0.00  0.00    +0.235 C 
ATOM     14  O   UNL     1      10.394  -2.624  23.095  0.00  0.00    -0.274 OA
BRANCH  13  15
ATOM     15  CA  UNL     1       9.813  -0.791  24.624  0.00  0.00    +0.168 C 
BRANCH  15  16
ATOM     16  C   UNL     1       9.296   0.209  23.608  0.00  0.00    -0.022 A 
ATOM     17  C   UNL     1      10.153   0.937  22.764  0.00  0.00    +0.005 A 
ATOM     18  C   UNL     1       9.641   1.842  21.833  0.00  0.00    +0.000 A 
ATOM     19  C   UNL     1       8.267   2.047  21.741  0.00  0.00    +0.000 A 
ATOM     20  C   UNL     1       7.404   1.353  22.586  0.00  0.00    +0.000 A 
ATOM     21  C   UNL     1       7.914   0.443  23.515  0.00  0.00    +0.005 A 
ENDBRANCH  15  16
BRANCH  15  22
ATOM     22  N   UNL     1       9.054  -0.725  25.906  0.00  0.00    -0.316 NA
ATOM     23  H1  UNL     1       9.692  -0.388  26.629  0.00  0.00    +0.119 HD
ATOM     24  H2  UNL     1       8.351   0.009  25.803  0.00  0.00    +0.119 HD
ENDBRANCH  15  22
ENDBRANCH  13  15
ENDBRANCH   2  11
BRANCH   6  25
ATOM     25  C   UNL     1       4.481  -5.538  23.118  0.00  0.00    +0.353 C 
ATOM     26  OXT UNL     1       3.426  -4.959  22.911  0.00  0.00    -0.244 OA
BRANCH  25  27
ATOM     27  O   UNL     1       4.901  -6.451  22.221  0.00  0.00    -0.476 OA
ATOM     28  H   UNL     1       4.702  -6.309  21.269  0.00  0.00    +0.295 HD
ENDBRANCH  25  27
ENDBRANCH   6  25
TORSDOF 6
ENDMDL
MODEL 3
REMARK VINA RESULT:      -7.1      2.547      3.237
REMARK  Name = 
REMARK  6 active torsions:
REMARK  status: ('A' for Active; 'I' for Inactive)
REMARK    1  A    between atoms: CA_7  and  C_25
REMARK    2  A    between atoms: CA_11  and  N_13
REMARK    3  A    between atoms: C_14  and  CA_16
REMARK    4  A    between atoms: CA_16  and  N_18
REMARK    5  A    between atoms: CA_16  and  C_19
REMARK    6  A    between atoms: C_25  and  O_26
REMARK                            x       y       z     vdW  Elec       q    Type
REMARK                         _______ _______ _______ _____ _____    ______ ____
ROOT
ATOM      1  C   UNL     1       8.771  -4.192  24.662  0.00  0.00    +0.169 C 
ATOM      2  CA  UNL     1       9.262  -2.971  23.822  0.00  0.00    +0.191 C 
ATOM      3  C   UNL     1       8.043  -3.336  22.905  0.00  0.00    +0.244 C 
ATOM      4  O   UNL     1       7.561  -3.005  21.848  0.00  0.00    -0.273 OA
ATOM      5  N   UNL     1       7.577  -4.199  23.832  0.00  0.00    -0.248 N 
ATOM      6  CA  UNL     1       6.456  -4.950  24.081  0.00  0.00    +0.137 C 
ATOM      7  C   UNL     1       6.297  -5.484  25.321  0.00  0.00    +0.057 C 
ATOM      8 CL   UNL     1       4.946  -6.478  25.811  0.00  0.00    -0.085 Cl
ATOM      9  C   UNL     1       7.230  -5.291  26.498  0.00  0.00    +0.120 C 
ATOM     10  S   UNL     1       8.298  -3.836  26.373  0.00  0.00    -0.130 S 
ENDROOT
BRANCH   2  11
ATOM     11  N   UNL     1       9.176  -1.655  24.493  0.00  0.00    -0.300 N 
ATOM     12  H   UNL     1       8.598  -1.522  25.326  0.00  0.00    +0.150 HD
ATOM     13  C   UNL     1       9.815  -0.516  24.056  0.00  0.00    +0.235 C 
ATOM     14  O   UNL     1      10.560  -0.500  23.081  0.00  0.00    -0.274 OA
BRANCH  13  15
ATOM     15  CA  UNL     1       9.497   0.727  24.925  0.00  0.00    +0.168 C 
BRANCH  15  16
ATOM     16  C   UNL     1       8.805   1.808  24.117  0.00  0.00    -0.022 A 
ATOM     17  C   UNL     1       7.728   1.531  23.255  0.00  0.00    +0.005 A 
ATOM     18  C   UNL     1       7.109   2.554  22.534  0.00  0.00    +0.000 A 
ATOM     19  C   UNL     1       7.565   3.864  22.649  0.00  0.00    +0.000 A 
ATOM     20  C   UNL     1       8.646   4.152  23.478  0.00  0.00    +0.000 A 
ATOM     21  C   UNL     1       9.265   3.132  24.204  0.00  0.00    +0.005 A 
ENDBRANCH  15  16
BRANCH  15  22
ATOM     22  N   UNL     1       8.686   0.308  26.104  0.00  0.00    -0.316 NA
ATOM     23  H1  UNL     1       8.030  -0.409  25.793  0.00  0.00    +0.119 HD
ATOM     24  H2  UNL     1       9.318  -0.166  26.752  0.00  0.00    +0.119 HD
ENDBRANCH  15  22
ENDBRANCH  13  15
ENDBRANCH   2  11
BRANCH   6  25
ATOM     25  C   UNL     1       5.400  -5.161  23.009  0.00  0.00    +0.353 C 
ATOM     26  OXT UNL     1       4.555  -4.333  22.702  0.00  0.00    -0.244 OA
BRANCH  25  27
ATOM     27  O   UNL     1       5.362  -6.368  22.412  0.00  0.00    -0.476 OA
ATOM     28  H   UNL     1       4.492  -6.746  22.156  0.00  0.00    +0.295 HD
ENDBRANCH  25  27
ENDBRANCH   6  25
TORSDOF 6
ENDMDL
MODEL 4
REMARK VINA RESULT:      -7.1      2.390      3.708
REMARK  Name = 
REMARK  6 active torsions:
REMARK  status: ('A' for Active; 'I' for Inactive)
REMARK    1  A    between atoms: CA_7  and  C_25
REMARK    2  A    between atoms: CA_11  and  N_13
REMARK    3  A    between atoms: C_14  and  CA_16
REMARK    4  A    between atoms: CA_16  and  N_18
REMARK    5  A    between atoms: CA_16  and  C_19
REMARK    6  A    between atoms: C_25  and  O_26
REMARK                            x       y       z     vdW  Elec       q    Type
REMARK                         _______ _______ _______ _____ _____    ______ ____
ROOT
ATOM      1  C   UNL     1       7.326  -4.406  25.043  0.00  0.00    +0.169 C 
ATOM      2  CA  UNL     1       8.160  -4.296  23.728  0.00  0.00    +0.191 C 
ATOM      3  C   UNL     1       7.151  -5.377  23.205  0.00  0.00    +0.244 C 
ATOM      4  O   UNL     1       6.977  -6.076  22.235  0.00  0.00    -0.273 OA
ATOM      5  N   UNL     1       6.368  -5.202  24.292  0.00  0.00    -0.248 N 
ATOM      6  CA  UNL     1       5.130  -5.572  24.750  0.00  0.00    +0.137 C 
ATOM      7  C   UNL     1       4.615  -4.918  25.825  0.00  0.00    +0.057 C 
ATOM      8 CL   UNL     1       3.066  -5.266  26.554  0.00  0.00    -0.085 Cl
ATOM      9  C   UNL     1       5.265  -3.763  26.558  0.00  0.00    +0.120 C 
ATOM     10  S   UNL     1       6.520  -2.882  25.597  0.00  0.00    -0.130 S 
ENDROOT
BRANCH   2  11
ATOM     11  N   UNL     1       8.099  -2.989  23.036  0.00  0.00    -0.300 N 
ATOM     12  H   UNL     1       7.281  -2.720  22.485  0.00  0.00    +0.150 HD
ATOM     13  C   UNL     1       9.114  -2.059  23.041  0.00  0.00    +0.235 C 
ATOM     14  O   UNL     1      10.160  -2.214  23.663  0.00  0.00    -0.274 OA
BRANCH  13  15
ATOM     15  CA  UNL     1       8.791  -0.808  22.186  0.00  0.00    +0.168 C 
BRANCH  15  16
ATOM     16  C   UNL     1       8.991   0.472  22.975  0.00  0.00    -0.022 A 
ATOM     17  C   UNL     1       8.269   0.753  24.149  0.00  0.00    +0.005 A 
ATOM     18  C   UNL     1       8.487   1.937  24.856  0.00  0.00    +0.000 A 
ATOM     19  C   UNL     1       9.416   2.866  24.393  0.00  0.00    +0.000 A 
ATOM     20  C   UNL     1      10.121   2.615  23.219  0.00  0.00    +0.000 A 
ATOM     21  C   UNL     1       9.908   1.429  22.512  0.00  0.00    +0.005 A 
ENDBRANCH  15  16
BRANCH  15  22
ATOM     22  N   UNL     1       9.617  -0.831  20.945  0.00  0.00    -0.316 NA
ATOM     23  H1  UNL     1       9.177  -1.478  20.290  0.00  0.00    +0.119 HD
ATOM     24  H2  UNL     1       9.536   0.090  20.511  0.00  0.00    +0.119 HD
ENDBRANCH  15  22
ENDBRANCH  13  15
ENDBRANCH   2  11
BRANCH   6  25
ATOM     25  C   UNL     1       4.333  -6.667  24.060  0.00  0.00    +0.353 C 
ATOM     26  OXT UNL     1       4.091  -7.758  24.554  0.00  0.00    -0.244 OA
BRANCH  25  27
ATOM     27  O   UNL     1       3.931  -6.431  22.796  0.00  0.00    -0.476 OA
ATOM     28  H   UNL     1       4.413  -6.859  22.055  0.00  0.00    +0.295 HD
ENDBRANCH  25  27
ENDBRANCH   6  25
TORSDOF 6
ENDMDL
MODEL 5
REMARK VINA RESULT:      -7.1      3.167      8.000
REMARK  Name = 
REMARK  6 active torsions:
REMARK  status: ('A' for Active; 'I' for Inactive)
REMARK    1  A    between atoms: CA_7  and  C_25
REMARK    2  A    between atoms: CA_11  and  N_13
REMARK    3  A    between atoms: C_14  and  CA_16
REMARK    4  A    between atoms: CA_16  and  N_18
REMARK    5  A    between atoms: CA_16  and  C_19
REMARK    6  A    between atoms: C_25  and  O_26
REMARK                            x       y       z     vdW  Elec       q    Type
REMARK                         _______ _______ _______ _____ _____    ______ ____
ROOT
ATOM      1  C   UNL     1       7.198  -0.983  22.939  0.00  0.00    +0.169 C 
ATOM      2  CA  UNL     1       8.054  -2.287  22.869  0.00  0.00    +0.191 C 
ATOM      3  C   UNL     1       9.226  -1.291  22.563  0.00  0.00    +0.244 C 
ATOM      4  O   UNL     1      10.392  -1.317  22.248  0.00  0.00    -0.273 OA
ATOM      5  N   UNL     1       8.447  -0.239  22.892  0.00  0.00    -0.248 N 
ATOM      6  CA  UNL     1       8.561   1.110  23.110  0.00  0.00    +0.137 C 
ATOM      7  C   UNL     1       7.528   1.759  23.711  0.00  0.00    +0.057 C 
ATOM      8 CL   UNL     1       7.492   3.472  24.051  0.00  0.00    -0.085 Cl
ATOM      9  C   UNL     1       6.252   1.120  24.218  0.00  0.00    +0.120 C 
ATOM     10  S   UNL     1       6.378  -0.659  24.521  0.00  0.00    -0.130 S 
ENDROOT
BRANCH   2  11
ATOM     11  N   UNL     1       8.180  -3.040  24.137  0.00  0.00    -0.300 N 
ATOM     12  H   UNL     1       8.217  -2.558  25.038  0.00  0.00    +0.150 HD
ATOM     13  C   UNL     1       8.291  -4.410  24.220  0.00  0.00    +0.235 C 
ATOM     14  O   UNL     1       8.251  -5.145  23.237  0.00  0.00    -0.274 OA
BRANCH  13  15
ATOM     15  CA  UNL     1       8.465  -4.915  25.674  0.00  0.00    +0.168 C 
BRANCH  15  16
ATOM     16  C   UNL     1       7.162  -5.453  26.235  0.00  0.00    -0.022 A 
ATOM     17  C   UNL     1       6.072  -5.792  25.415  0.00  0.00    +0.005 A 
ATOM     18  C   UNL     1       4.891  -6.294  25.965  0.00  0.00    +0.000 A 
ATOM     19  C   UNL     1       4.775  -6.449  27.344  0.00  0.00    +0.000 A 
ATOM     20  C   UNL     1       5.836  -6.095  28.174  0.00  0.00    +0.000 A 
ATOM     21  C   UNL     1       7.020  -5.597  27.625  0.00  0.00    +0.005 A 
ENDBRANCH  15  16
BRANCH  15  22
ATOM     22  N   UNL     1       9.552  -5.935  25.715  0.00  0.00    -0.316 NA
ATOM     23  H1  UNL     1       9.416  -6.502  26.554  0.00  0.00    +0.119 HD
ATOM     24  H2  UNL     1       9.397  -6.572  24.931  0.00  0.00    +0.119 HD
ENDBRANCH  15  22
ENDBRANCH  13  15
ENDBRANCH   2  11
BRANCH   6  25
ATOM     25  C   UNL     1       9.821   1.863  22.718  0.00  0.00    +0.353 C 
ATOM     26  OXT UNL     1      10.674   2.237  23.509  0.00  0.00    -0.244 OA
BRANCH  25  27
ATOM     27  O   UNL     1       9.962   2.191  21.419  0.00  0.00    -0.476 OA
ATOM     28  H   UNL     1      10.852   2.134  21.007  0.00  0.00    +0.295 HD
ENDBRANCH  25  27
ENDBRANCH   6  25
TORSDOF 6
ENDMDL
MODEL 6
REMARK VINA RESULT:      -6.9      1.571      2.080
REMARK  Name = 
REMARK  6 active torsions:
REMARK  status: ('A' for Active; 'I' for Inactive)
REMARK    1  A    between atoms: CA_7  and  C_25
REMARK    2  A    between atoms: CA_11  and  N_13
REMARK    3  A    between atoms: C_14  and  CA_16
REMARK    4  A    between atoms: CA_16  and  N_18
REMARK    5  A    between atoms: CA_16  and  C_19
REMARK    6  A    between atoms: C_25  and  O_26
REMARK                            x       y       z     vdW  Elec       q    Type
REMARK                         _______ _______ _______ _____ _____    ______ ____
ROOT
ATOM      1  C   UNL     1       9.689  -1.449  24.761  0.00  0.00    +0.169 C 
ATOM      2  CA  UNL     1      10.183  -0.414  23.701  0.00  0.00    +0.191 C 
ATOM      3  C   UNL     1       9.356  -1.302  22.707  0.00  0.00    +0.244 C 
ATOM      4  O   UNL     1       9.145  -1.397  21.521  0.00  0.00    -0.273 OA
ATOM      5  N   UNL     1       8.800  -1.974  23.738  0.00  0.00    -0.248 N 
ATOM      6  CA  UNL     1       7.800  -2.886  23.964  0.00  0.00    +0.137 C 
ATOM      7  C   UNL     1       7.388  -3.091  25.244  0.00  0.00    +0.057 C 
ATOM      8 CL   UNL     1       6.145  -4.222  25.720  0.00  0.00    -0.085 Cl
ATOM      9  C   UNL     1       7.902  -2.364  26.469  0.00  0.00    +0.120 C 
ATOM     10  S   UNL     1       8.696  -0.777  26.118  0.00  0.00    -0.130 S 
ENDROOT
BRANCH   2  11
ATOM     11  N   UNL     1       9.686   0.969  23.875  0.00  0.00    -0.300 N 
ATOM     12  H   UNL     1       9.271   1.275  24.757  0.00  0.00    +0.150 HD
ATOM     13  C   UNL     1       9.704   1.931  22.889  0.00  0.00    +0.235 C 
ATOM     14  O   UNL     1      10.180   1.738  21.775  0.00  0.00    -0.274 OA
BRANCH  13  15
ATOM     15  CA  UNL     1       9.068   3.270  23.341  0.00  0.00    +0.168 C 
BRANCH  15  16
ATOM     16  C   UNL     1      10.127   4.305  23.669  0.00  0.00    -0.022 A 
ATOM     17  C   UNL     1      11.475   4.147  23.301  0.00  0.00    +0.005 A 
ATOM     18  C   UNL     1      12.420   5.126  23.611  0.00  0.00    +0.000 A 
ATOM     19  C   UNL     1      12.038   6.270  24.307  0.00  0.00    +0.000 A 
ATOM     20  C   UNL     1      10.713   6.432  24.700  0.00  0.00    +0.000 A 
ATOM     21  C   UNL     1       9.763   5.456  24.387  0.00  0.00    +0.005 A 
ENDBRANCH  15  16
BRANCH  15  22
ATOM     22  N   UNL     1       8.128   3.749  22.287  0.00  0.00    -0.316 NA
ATOM     23  H1  UNL     1       8.320   3.220  21.435  0.00  0.00    +0.119 HD
ATOM     24  H2  UNL     1       7.188   3.469  22.573  0.00  0.00    +0.119 HD
ENDBRANCH  15  22
ENDBRANCH  13  15
ENDBRANCH   2  11
BRANCH   6  25
ATOM     25  C   UNL     1       7.144  -3.631  22.814  0.00  0.00    +0.353 C 
ATOM     26  OXT UNL     1       7.348  -4.806  22.550  0.00  0.00    -0.244 OA
BRANCH  25  27
ATOM     27  O   UNL     1       6.338  -2.921  22.002  0.00  0.00    -0.476 OA
ATOM     28  H   UNL     1       5.937  -2.089  22.337  0.00  0.00    +0.295 HD
ENDBRANCH  25  27
ENDBRANCH   6  25
TORSDOF 6
ENDMDL
MODEL 7
REMARK VINA RESULT:      -6.9      3.056      7.821
REMARK  Name = 
REMARK  6 active torsions:
REMARK  status: ('A' for Active; 'I' for Inactive)
REMARK    1  A    between atoms: CA_7  and  C_25
REMARK    2  A    between atoms: CA_11  and  N_13
REMARK    3  A    between atoms: C_14  and  CA_16
REMARK    4  A    between atoms: CA_16  and  N_18
REMARK    5  A    between atoms: CA_16  and  C_19
REMARK    6  A    between atoms: C_25  and  O_26
REMARK                            x       y       z     vdW  Elec       q    Type
REMARK                         _______ _______ _______ _____ _____    ______ ____
ROOT
ATOM      1  C   UNL     1       8.561   1.966  21.854  0.00  0.00    +0.169 C 
ATOM      2  CA  UNL     1       9.704   0.990  22.278  0.00  0.00    +0.191 C 
ATOM      3  C   UNL     1      10.241   2.239  23.061  0.00  0.00    +0.244 C 
ATOM      4  O   UNL     1      11.206   2.571  23.707  0.00  0.00    -0.273 OA
ATOM      5  N   UNL     1       9.087   2.903  22.833  0.00  0.00    -0.248 N 
ATOM      6  CA  UNL     1       8.458   4.056  23.228  0.00  0.00    +0.137 C 
ATOM      7  C   UNL     1       7.135   4.201  22.946  0.00  0.00    +0.057 C 
ATOM      8 CL   UNL     1       6.178   5.604  23.355  0.00  0.00    -0.085 Cl
ATOM      9  C   UNL     1       6.254   3.175  22.265  0.00  0.00    +0.120 C 
ATOM     10  S   UNL     1       6.886   1.481  22.341  0.00  0.00    -0.130 S 
ENDROOT
BRANCH   2  11
ATOM     11  N   UNL     1       9.291  -0.153  23.122  0.00  0.00    -0.300 N 
ATOM     12  H   UNL     1       8.950  -0.012  24.075  0.00  0.00    +0.150 HD
ATOM     13  C   UNL     1       9.356  -1.472  22.731  0.00  0.00    +0.235 C 
ATOM     14  O   UNL     1       9.727  -1.821  21.614  0.00  0.00    -0.274 OA
BRANCH  13  15
ATOM     15  CA  UNL     1       8.908  -2.455  23.842  0.00  0.00    +0.168 C 
BRANCH  15  16
ATOM     16  C   UNL     1       7.681  -3.243  23.425  0.00  0.00    -0.022 A 
ATOM     17  C   UNL     1       7.623  -4.646  23.509  0.00  0.00    +0.005 A 
ATOM     18  C   UNL     1       6.473  -5.338  23.126  0.00  0.00    +0.000 A 
ATOM     19  C   UNL     1       5.370  -4.643  22.638  0.00  0.00    +0.000 A 
ATOM     20  C   UNL     1       5.419  -3.256  22.525  0.00  0.00    +0.000 A 
ATOM     21  C   UNL     1       6.567  -2.560  22.912  0.00  0.00    +0.005 A 
ENDBRANCH  15  16
BRANCH  15  22
ATOM     22  N   UNL     1      10.048  -3.347  24.199  0.00  0.00    -0.316 NA
ATOM     23  H1  UNL     1      10.731  -3.299  23.442  0.00  0.00    +0.119 HD
ATOM     24  H2  UNL     1      10.513  -2.931  25.009  0.00  0.00    +0.119 HD
ENDBRANCH  15  22
ENDBRANCH  13  15
ENDBRANCH   2  11
BRANCH   6  25
ATOM     25  C   UNL     1       9.207   5.138  23.988  0.00  0.00    +0.353 C 
ATOM     26  OXT UNL     1       9.153   5.292  25.199  0.00  0.00    -0.244 OA
BRANCH  25  27
ATOM     27  O   UNL     1       9.921   6.018  23.260  0.00  0.00    -0.476 OA
ATOM     28  H   UNL     1      10.689   6.468  23.676  0.00  0.00    +0.295 HD
ENDBRANCH  25  27
ENDBRANCH   6  25
TORSDOF 6
ENDMDL
MODEL 8
REMARK VINA RESULT:      -6.9      1.715      2.153
REMARK  Name = 
REMARK  6 active torsions:
REMARK  status: ('A' for Active; 'I' for Inactive)
REMARK    1  A    between atoms: CA_7  and  C_25
REMARK    2  A    between atoms: CA_11  and  N_13
REMARK    3  A    between atoms: C_14  and  CA_16
REMARK    4  A    between atoms: CA_16  and  N_18
REMARK    5  A    between atoms: CA_16  and  C_19
REMARK    6  A    between atoms: C_25  and  O_26
REMARK                            x       y       z     vdW  Elec       q    Type
REMARK                         _______ _______ _______ _____ _____    ______ ____
ROOT
ATOM      1  C   UNL     1       8.584  -1.706  26.035  0.00  0.00    +0.169 C 
ATOM      2  CA  UNL     1       9.438  -0.820  25.074  0.00  0.00    +0.191 C 
ATOM      3  C   UNL     1       9.791  -2.194  24.406  0.00  0.00    +0.244 C 
ATOM      4  O   UNL     1      10.515  -2.636  23.545  0.00  0.00    -0.273 OA
ATOM      5  N   UNL     1       8.836  -2.816  25.130  0.00  0.00    -0.248 N 
ATOM      6  CA  UNL     1       8.212  -4.035  25.195  0.00  0.00    +0.137 C 
ATOM      7  C   UNL     1       7.072  -4.140  25.930  0.00  0.00    +0.057 C 
ATOM      8 CL   UNL     1       6.156  -5.612  26.140  0.00  0.00    -0.085 Cl
ATOM      9  C   UNL     1       6.381  -3.010  26.664  0.00  0.00    +0.120 C 
ATOM     10  S   UNL     1       6.808  -1.358  26.062  0.00  0.00    -0.130 S 
ENDROOT
BRANCH   2  11
ATOM     11  N   UNL     1       8.677   0.119  24.222  0.00  0.00    -0.300 N 
ATOM     12  H   UNL     1       7.677   0.276  24.369  0.00  0.00    +0.150 HD
ATOM     13  C   UNL     1       9.214   0.820  23.164  0.00  0.00    +0.235 C 
ATOM     14  O   UNL     1      10.400   0.761  22.857  0.00  0.00    -0.274 OA
BRANCH  13  15
ATOM     15  CA  UNL     1       8.166   1.685  22.419  0.00  0.00    +0.168 C 
BRANCH  15  16
ATOM     16  C   UNL     1       8.276   3.148  22.807  0.00  0.00    -0.022 A 
ATOM     17  C   UNL     1       9.214   3.609  23.747  0.00  0.00    +0.005 A 
ATOM     18  C   UNL     1       9.294   4.964  24.071  0.00  0.00    +0.000 A 
ATOM     19  C   UNL     1       8.427   5.877  23.476  0.00  0.00    +0.000 A 
ATOM     20  C   UNL     1       7.475   5.434  22.562  0.00  0.00    +0.000 A 
ATOM     21  C   UNL     1       7.396   4.079  22.232  0.00  0.00    +0.005 A 
ENDBRANCH  15  16
BRANCH  15  22
ATOM     22  N   UNL     1       8.318   1.486  20.950  0.00  0.00    -0.316 NA
ATOM     23  H1  UNL     1       7.383   1.399  20.548  0.00  0.00    +0.119 HD
ATOM     24  H2  UNL     1       8.698   2.353  20.565  0.00  0.00    +0.119 HD
ENDBRANCH  15  22
ENDBRANCH  13  15
ENDBRANCH   2  11
BRANCH   6  25
ATOM     25  C   UNL     1       8.758  -5.238  24.444  0.00  0.00    +0.353 C 
ATOM     26  OXT UNL     1       8.316  -5.643  23.380  0.00  0.00    -0.244 OA
BRANCH  25  27
ATOM     27  O   UNL     1       9.751  -5.931  25.033  0.00  0.00    -0.476 OA
ATOM     28  H   UNL     1       9.614  -6.883  25.233  0.00  0.00    +0.295 HD
ENDBRANCH  25  27
ENDBRANCH   6  25
TORSDOF 6
ENDMDL
MODEL 9
REMARK VINA RESULT:      -6.8      3.501      7.957
REMARK  Name = 
REMARK  6 active torsions:
REMARK  status: ('A' for Active; 'I' for Inactive)
REMARK    1  A    between atoms: CA_7  and  C_25
REMARK    2  A    between atoms: CA_11  and  N_13
REMARK    3  A    between atoms: C_14  and  CA_16
REMARK    4  A    between atoms: CA_16  and  N_18
REMARK    5  A    between atoms: CA_16  and  C_19
REMARK    6  A    between atoms: C_25  and  O_26
REMARK                            x       y       z     vdW  Elec       q    Type
REMARK                         _______ _______ _______ _____ _____    ______ ____
ROOT
ATOM      1  C   UNL     1       9.489  -1.303  25.320  0.00  0.00    +0.169 C 
ATOM      2  CA  UNL     1       8.533  -1.744  26.473  0.00  0.00    +0.191 C 
ATOM      3  C   UNL     1       8.064  -0.248  26.419  0.00  0.00    +0.244 C 
ATOM      4  O   UNL     1       7.342   0.508  27.023  0.00  0.00    -0.273 OA
ATOM      5  N   UNL     1       8.746  -0.054  25.270  0.00  0.00    -0.248 N 
ATOM      6  CA  UNL     1       8.879   0.896  24.289  0.00  0.00    +0.137 C 
ATOM      7  C   UNL     1       9.494   0.546  23.128  0.00  0.00    +0.057 C 
ATOM      8 CL   UNL     1       9.766   1.626  21.782  0.00  0.00    -0.085 Cl
ATOM      9  C   UNL     1      10.018  -0.831  22.780  0.00  0.00    +0.120 C 
ATOM     10  S   UNL     1       9.285  -2.174  23.746  0.00  0.00    -0.130 S 
ENDROOT
BRANCH   2  11
ATOM     11  N   UNL     1       7.504  -2.742  26.106  0.00  0.00    -0.300 N 
ATOM     12  H   UNL     1       6.648  -2.465  25.621  0.00  0.00    +0.150 HD
ATOM     13  C   UNL     1       7.582  -4.084  26.403  0.00  0.00    +0.235 C 
ATOM     14  O   UNL     1       8.546  -4.589  26.969  0.00  0.00    -0.274 OA
BRANCH  13  15
ATOM     15  CA  UNL     1       6.333  -4.878  25.943  0.00  0.00    +0.168 C 
BRANCH  15  16
ATOM     16  C   UNL     1       6.388  -5.193  24.461  0.00  0.00    -0.022 A 
ATOM     17  C   UNL     1       7.603  -5.360  23.772  0.00  0.00    +0.005 A 
ATOM     18  C   UNL     1       7.616  -5.659  22.408  0.00  0.00    +0.000 A 
ATOM     19  C   UNL     1       6.418  -5.780  21.708  0.00  0.00    +0.000 A 
ATOM     20  C   UNL     1       5.207  -5.593  22.369  0.00  0.00    +0.000 A 
ATOM     21  C   UNL     1       5.191  -5.298  23.735  0.00  0.00    +0.005 A 
ENDBRANCH  15  16
BRANCH  15  22
ATOM     22  N   UNL     1       6.201  -6.111  26.770  0.00  0.00    -0.316 NA
ATOM     23  H1  UNL     1       5.362  -6.014  27.344  0.00  0.00    +0.119 HD
ATOM     24  H2  UNL     1       6.003  -6.883  26.130  0.00  0.00    +0.119 HD
ENDBRANCH  15  22
ENDBRANCH  13  15
ENDBRANCH   2  11
BRANCH   6  25
ATOM     25  C   UNL     1       8.330   2.300  24.478  0.00  0.00    +0.353 C 
ATOM     26  OXT UNL     1       9.020   3.290  24.668  0.00  0.00    -0.244 OA
BRANCH  25  27
ATOM     27  O   UNL     1       6.990   2.438  24.501  0.00  0.00    -0.476 OA
ATOM     28  H   UNL     1       6.456   1.811  25.036  0.00  0.00    +0.295 HD
ENDBRANCH  25  27
ENDBRANCH   6  25
TORSDOF 6
ENDMDL
