MODEL 1
REMARK VINA RESULT:      -6.2      0.000      0.000
REMARK  Name = 
REMARK  11 active torsions:
REMARK  status: ('A' for Active; 'I' for Inactive)
REMARK    1  A    between atoms: C_2  and  C_3
REMARK    2  A    between atoms: C_2  and  O_18
REMARK    3  A    between atoms: C_2  and  C_27
REMARK    4  A    between atoms: C_3  and  S_4
REMARK    5  A    between atoms: S_4  and  C_7
REMARK    6  A    between atoms: C_7  and  C_8
REMARK    7  A    between atoms: C_9  and  O_10
REMARK    8  A    between atoms: O_10  and  C_11
REMARK    9  A    between atoms: O_18  and  C_19
REMARK   10  A    between atoms: N_29  and  C_30
REMARK   11  A    between atoms: C_30  and  C_31
REMARK                            x       y       z     vdW  Elec       q    Type
REMARK                         _______ _______ _______ _____ _____    ______ ____
ROOT
ATOM      1  C   UNL     1       6.564  -3.422  26.051  0.00  0.00    +0.284 C 
ENDROOT
BRANCH   1   2
ATOM      2  C   UNL     1       7.227  -4.527  25.205  0.00  0.00    +0.256 C 
ATOM      3  N   UNL     1       7.045  -4.392  23.848  0.00  0.00    -0.299 N 
ATOM      4  H   UNL     1       6.370  -3.698  23.543  0.00  0.00    +0.150 HD
ATOM      5  O   UNL     1       7.874  -5.441  25.709  0.00  0.00    -0.272 OA
BRANCH   3   6
ATOM      6  C   UNL     1       7.493  -5.397  22.908  0.00  0.00    +0.223 C 
BRANCH   6   7
ATOM      7  C   UNL     1       6.645  -5.429  21.698  0.00  0.00    +0.081 C 
ATOM      8  N   UNL     1       6.008  -5.432  20.729  0.00  0.00    -0.195 NA
ENDBRANCH   6   7
ENDBRANCH   3   6
ENDBRANCH   1   2
BRANCH   1   9
ATOM      9  O   UNL     1       6.090  -3.989  27.277  0.00  0.00    -0.436 OA
BRANCH   9  10
ATOM     10  C   UNL     1       4.907  -4.650  27.240  0.00  0.00    +0.404 C 
ATOM     11  N   UNL     1       4.964  -5.816  27.961  0.00  0.00    -0.263 N 
ATOM     12  C   UNL     1       3.751  -6.581  28.236  0.00  0.00    +0.139 C 
ATOM     13  C   UNL     1       3.466  -6.596  29.744  0.00  0.00    +0.179 C 
ATOM     14  O   UNL     1       4.606  -7.068  30.485  0.00  0.00    -0.377 OA
ATOM     15  C   UNL     1       5.743  -6.218  30.256  0.00  0.00    +0.179 C 
ATOM     16  C   UNL     1       6.117  -6.214  28.773  0.00  0.00    +0.139 C 
ATOM     17  O   UNL     1       3.918  -4.228  26.661  0.00  0.00    -0.226 OA
ENDBRANCH   9  10
ENDBRANCH   1   9
BRANCH   1  18
ATOM     18  C   UNL     1       7.518  -2.252  26.266  0.00  0.00    +0.220 C 
BRANCH  18  19
ATOM     19  S   UNL     1       6.825  -0.697  25.701  0.00  0.00    -0.023 S 
ATOM     20  O   UNL     1       7.812   0.357  25.839  0.00  0.00    -0.174 OA
ATOM     21  O   UNL     1       5.546  -0.538  26.372  0.00  0.00    -0.174 OA
BRANCH  19  22
ATOM     22  C   UNL     1       6.471  -0.938  23.961  0.00  0.00    +0.204 C 
BRANCH  22  23
ATOM     23  C   UNL     1       7.309  -0.128  22.991  0.00  0.00    +0.015 A 
ATOM     24  C   UNL     1       6.954   1.143  22.510  0.00  0.00    +0.009 A 
ATOM     25  C   UNL     1       7.830   1.908  21.742  0.00  0.00    +0.001 A 
ATOM     26  C   UNL     1       9.053   1.385  21.362  0.00  0.00    +0.004 A 
ATOM     27  C   UNL     1       9.393   0.085  21.732  0.00  0.00    +0.046 A 
ATOM     28  C   UNL     1       8.524  -0.679  22.524  0.00  0.00    +0.132 A 
BRANCH  28  29
ATOM     29  O   UNL     1       8.804  -1.968  22.905  0.00  0.00    -0.434 OA
BRANCH  29  30
ATOM     30  C   UNL     1      10.071  -2.145  23.535  0.00  0.00    +0.541 C 
ATOM     31  F   UNL     1      10.053  -3.355  24.148  0.00  0.00    -0.166 F 
ATOM     32  F   UNL     1      10.204  -1.217  24.515  0.00  0.00    -0.166 F 
ENDBRANCH  29  30
ENDBRANCH  28  29
ENDBRANCH  22  23
ENDBRANCH  19  22
ENDBRANCH  18  19
ENDBRANCH   1  18
TORSDOF 11
ENDMDL
MODEL 2
REMARK VINA RESULT:      -6.1      2.607      6.894
REMARK  Name = 
REMARK  11 active torsions:
REMARK  status: ('A' for Active; 'I' for Inactive)
REMARK    1  A    between atoms: C_2  and  C_3
REMARK    2  A    between atoms: C_2  and  O_18
REMARK    3  A    between atoms: C_2  and  C_27
REMARK    4  A    between atoms: C_3  and  S_4
REMARK    5  A    between atoms: S_4  and  C_7
REMARK    6  A    between atoms: C_7  and  C_8
REMARK    7  A    between atoms: C_9  and  O_10
REMARK    8  A    between atoms: O_10  and  C_11
REMARK    9  A    between atoms: O_18  and  C_19
REMARK   10  A    between atoms: N_29  and  C_30
REMARK   11  A    between atoms: C_30  and  C_31
REMARK                            x       y       z     vdW  Elec       q    Type
REMARK                         _______ _______ _______ _____ _____    ______ ____
ROOT
ATOM      1  C   UNL     1       8.535  -1.495  23.870  0.00  0.00    +0.284 C 
ENDROOT
BRANCH   1   2
ATOM      2  C   UNL     1       8.714  -3.011  23.653  0.00  0.00    +0.256 C 
ATOM      3  N   UNL     1       7.701  -3.608  22.939  0.00  0.00    -0.299 N 
ATOM      4  H   UNL     1       6.868  -3.051  22.772  0.00  0.00    +0.150 HD
ATOM      5  O   UNL     1       9.691  -3.624  24.073  0.00  0.00    -0.272 OA
BRANCH   3   6
ATOM      6  C   UNL     1       7.639  -5.040  22.741  0.00  0.00    +0.223 C 
BRANCH   6   7
ATOM      7  C   UNL     1       6.540  -5.418  21.829  0.00  0.00    +0.081 C 
ATOM      8  N   UNL     1       5.693  -5.751  21.110  0.00  0.00    -0.195 NA
ENDBRANCH   6   7
ENDBRANCH   3   6
ENDBRANCH   1   2
BRANCH   1   9
ATOM      9  O   UNL     1       9.372  -0.786  22.950  0.00  0.00    -0.436 OA
BRANCH   9  10
ATOM     10  C   UNL     1      10.143   0.210  23.452  0.00  0.00    +0.404 C 
ATOM     11  N   UNL     1       9.877   1.407  22.837  0.00  0.00    -0.263 N 
ATOM     12  C   UNL     1      10.433   2.652  23.358  0.00  0.00    +0.139 C 
ATOM     13  C   UNL     1       9.306   3.567  23.856  0.00  0.00    +0.179 C 
ATOM     14  O   UNL     1       8.318   3.780  22.831  0.00  0.00    -0.377 OA
ATOM     15  C   UNL     1       7.731   2.530  22.429  0.00  0.00    +0.179 C 
ATOM     16  C   UNL     1       8.801   1.596  21.861  0.00  0.00    +0.139 C 
ATOM     17  O   UNL     1      10.943   0.048  24.362  0.00  0.00    -0.226 OA
ENDBRANCH   9  10
ENDBRANCH   1   9
BRANCH   1  18
ATOM     18  C   UNL     1       7.066  -1.099  23.765  0.00  0.00    +0.220 C 
BRANCH  18  19
ATOM     19  S   UNL     1       6.511  -0.168  25.195  0.00  0.00    -0.023 S 
ATOM     20  O   UNL     1       5.307   0.569  24.860  0.00  0.00    -0.174 OA
ATOM     21  O   UNL     1       7.660   0.573  25.686  0.00  0.00    -0.174 OA
BRANCH  19  22
ATOM     22  C   UNL     1       6.115  -1.394  26.438  0.00  0.00    +0.204 C 
BRANCH  22  23
ATOM     23  C   UNL     1       5.403  -2.640  25.945  0.00  0.00    +0.015 A 
ATOM     24  C   UNL     1       4.123  -2.642  25.367  0.00  0.00    +0.009 A 
ATOM     25  C   UNL     1       3.579  -3.789  24.793  0.00  0.00    +0.001 A 
ATOM     26  C   UNL     1       4.267  -4.987  24.858  0.00  0.00    +0.004 A 
ATOM     27  C   UNL     1       5.492  -5.044  25.519  0.00  0.00    +0.046 A 
ATOM     28  C   UNL     1       6.054  -3.888  26.078  0.00  0.00    +0.132 A 
BRANCH  28  29
ATOM     29  O   UNL     1       7.251  -3.891  26.751  0.00  0.00    -0.434 OA
BRANCH  29  30
ATOM     30  C   UNL     1       7.943  -5.137  26.735  0.00  0.00    +0.541 C 
ATOM     31  F   UNL     1       7.573  -5.821  27.846  0.00  0.00    -0.166 F 
ATOM     32  F   UNL     1       9.273  -4.899  26.852  0.00  0.00    -0.166 F 
ENDBRANCH  29  30
ENDBRANCH  28  29
ENDBRANCH  22  23
ENDBRANCH  19  22
ENDBRANCH  18  19
ENDBRANCH   1  18
TORSDOF 11
ENDMDL
MODEL 3
REMARK VINA RESULT:      -6.1      3.752      5.844
REMARK  Name = 
REMARK  11 active torsions:
REMARK  status: ('A' for Active; 'I' for Inactive)
REMARK    1  A    between atoms: C_2  and  C_3
REMARK    2  A    between atoms: C_2  and  O_18
REMARK    3  A    between atoms: C_2  and  C_27
REMARK    4  A    between atoms: C_3  and  S_4
REMARK    5  A    between atoms: S_4  and  C_7
REMARK    6  A    between atoms: C_7  and  C_8
REMARK    7  A    between atoms: C_9  and  O_10
REMARK    8  A    between atoms: O_10  and  C_11
REMARK    9  A    between atoms: O_18  and  C_19
REMARK   10  A    between atoms: N_29  and  C_30
REMARK   11  A    between atoms: C_30  and  C_31
REMARK                            x       y       z     vdW  Elec       q    Type
REMARK                         _______ _______ _______ _____ _____    ______ ____
ROOT
ATOM      1  C   UNL     1       9.626  -0.916  24.482  0.00  0.00    +0.284 C 
ENDROOT
BRANCH   1   2
ATOM      2  C   UNL     1       8.629  -0.884  25.656  0.00  0.00    +0.256 C 
ATOM      3  N   UNL     1       7.425  -0.285  25.365  0.00  0.00    -0.299 N 
ATOM      4  H   UNL     1       7.364   0.218  24.486  0.00  0.00    +0.150 HD
ATOM      5  O   UNL     1       8.891  -1.367  26.754  0.00  0.00    -0.272 OA
BRANCH   3   6
ATOM      6  C   UNL     1       6.414  -0.058  26.375  0.00  0.00    +0.223 C 
BRANCH   6   7
ATOM      7  C   UNL     1       6.621   1.227  27.075  0.00  0.00    +0.081 C 
ATOM      8  N   UNL     1       6.777   2.217  27.659  0.00  0.00    -0.195 NA
ENDBRANCH   6   7
ENDBRANCH   3   6
ENDBRANCH   1   2
BRANCH   1   9
ATOM      9  O   UNL     1       9.760  -2.263  24.014  0.00  0.00    -0.436 OA
BRANCH   9  10
ATOM     10  C   UNL     1       8.625  -2.911  23.655  0.00  0.00    +0.404 C 
ATOM     11  N   UNL     1       8.561  -4.159  24.221  0.00  0.00    -0.263 N 
ATOM     12  C   UNL     1       7.336  -4.950  24.146  0.00  0.00    +0.139 C 
ATOM     13  C   UNL     1       6.752  -5.155  25.550  0.00  0.00    +0.179 C 
ATOM     14  O   UNL     1       7.730  -5.720  26.443  0.00  0.00    -0.377 OA
ATOM     15  C   UNL     1       8.869  -4.850  26.559  0.00  0.00    +0.179 C 
ATOM     16  C   UNL     1       9.536  -4.659  25.195  0.00  0.00    +0.139 C 
ATOM     17  O   UNL     1       7.763  -2.416  22.943  0.00  0.00    -0.226 OA
ENDBRANCH   9  10
ENDBRANCH   1   9
BRANCH   1  18
ATOM     18  C   UNL     1       9.207   0.055  23.383  0.00  0.00    +0.220 C 
BRANCH  18  19
ATOM     19  S   UNL     1      10.147   1.583  23.433  0.00  0.00    -0.023 S 
ATOM     20  O   UNL     1      10.340   2.083  22.085  0.00  0.00    -0.174 OA
ATOM     21  O   UNL     1      11.322   1.327  24.250  0.00  0.00    -0.174 OA
BRANCH  19  22
ATOM     22  C   UNL     1       9.127   2.741  24.342  0.00  0.00    +0.204 C 
BRANCH  22  23
ATOM     23  C   UNL     1       8.638   3.950  23.568  0.00  0.00    +0.015 A 
ATOM     24  C   UNL     1       7.502   3.954  22.742  0.00  0.00    +0.009 A 
ATOM     25  C   UNL     1       7.010   5.128  22.176  0.00  0.00    +0.001 A 
ATOM     26  C   UNL     1       7.693   6.319  22.353  0.00  0.00    +0.004 A 
ATOM     27  C   UNL     1       8.882   6.332  23.078  0.00  0.00    +0.046 A 
ATOM     28  C   UNL     1       9.368   5.157  23.668  0.00  0.00    +0.132 A 
BRANCH  28  29
ATOM     29  O   UNL     1      10.541   5.112  24.382  0.00  0.00    -0.434 OA
BRANCH  29  30
ATOM     30  C   UNL     1      11.712   5.419  23.630  0.00  0.00    +0.541 C 
ATOM     31  F   UNL     1      12.319   4.244  23.328  0.00  0.00    -0.166 F 
ATOM     32  F   UNL     1      12.572   6.106  24.422  0.00  0.00    -0.166 F 
ENDBRANCH  29  30
ENDBRANCH  28  29
ENDBRANCH  22  23
ENDBRANCH  19  22
ENDBRANCH  18  19
ENDBRANCH   1  18
TORSDOF 11
ENDMDL
MODEL 4
REMARK VINA RESULT:      -6.1      2.096      4.360
REMARK  Name = 
REMARK  11 active torsions:
REMARK  status: ('A' for Active; 'I' for Inactive)
REMARK    1  A    between atoms: C_2  and  C_3
REMARK    2  A    between atoms: C_2  and  O_18
REMARK    3  A    between atoms: C_2  and  C_27
REMARK    4  A    between atoms: C_3  and  S_4
REMARK    5  A    between atoms: S_4  and  C_7
REMARK    6  A    between atoms: C_7  and  C_8
REMARK    7  A    between atoms: C_9  and  O_10
REMARK    8  A    between atoms: O_10  and  C_11
REMARK    9  A    between atoms: O_18  and  C_19
REMARK   10  A    between atoms: N_29  and  C_30
REMARK   11  A    between atoms: C_30  and  C_31
REMARK                            x       y       z     vdW  Elec       q    Type
REMARK                         _______ _______ _______ _____ _____    ______ ____
ROOT
ATOM      1  C   UNL     1       7.633  -3.123  26.302  0.00  0.00    +0.284 C 
ENDROOT
BRANCH   1   2
ATOM      2  C   UNL     1       7.024  -4.422  26.864  0.00  0.00    +0.256 C 
ATOM      3  N   UNL     1       5.676  -4.568  26.630  0.00  0.00    -0.299 N 
ATOM      4  H   UNL     1       5.183  -3.756  26.271  0.00  0.00    +0.150 HD
ATOM      5  O   UNL     1       7.696  -5.260  27.460  0.00  0.00    -0.272 OA
BRANCH   3   6
ATOM      6  C   UNL     1       4.911  -5.663  27.185  0.00  0.00    +0.223 C 
BRANCH   6   7
ATOM      7  C   UNL     1       4.536  -6.647  26.149  0.00  0.00    +0.081 C 
ATOM      8  N   UNL     1       4.264  -7.447  25.355  0.00  0.00    -0.195 NA
ENDBRANCH   6   7
ENDBRANCH   3   6
ENDBRANCH   1   2
BRANCH   1   9
ATOM      9  O   UNL     1       7.630  -3.182  24.872  0.00  0.00    -0.436 OA
BRANCH   9  10
ATOM     10  C   UNL     1       8.002  -4.353  24.298  0.00  0.00    +0.404 C 
ATOM     11  N   UNL     1       6.998  -4.867  23.517  0.00  0.00    -0.263 N 
ATOM     12  C   UNL     1       7.248  -6.005  22.637  0.00  0.00    +0.139 C 
ATOM     13  C   UNL     1       7.090  -5.584  21.170  0.00  0.00    +0.179 C 
ATOM     14  O   UNL     1       5.810  -4.968  20.940  0.00  0.00    -0.377 OA
ATOM     15  C   UNL     1       5.660  -3.795  21.757  0.00  0.00    +0.179 C 
ATOM     16  C   UNL     1       5.743  -4.163  23.240  0.00  0.00    +0.139 C 
ATOM     17  O   UNL     1       9.107  -4.853  24.443  0.00  0.00    -0.226 OA
ENDBRANCH   9  10
ENDBRANCH   1   9
BRANCH   1  18
ATOM     18  C   UNL     1       6.906  -1.899  26.848  0.00  0.00    +0.220 C 
BRANCH  18  19
ATOM     19  S   UNL     1       7.876  -0.400  26.674  0.00  0.00    -0.023 S 
ATOM     20  O   UNL     1       9.272  -0.741  26.479  0.00  0.00    -0.174 OA
ATOM     21  O   UNL     1       7.525   0.461  27.791  0.00  0.00    -0.174 OA
BRANCH  19  22
ATOM     22  C   UNL     1       7.260   0.397  25.193  0.00  0.00    +0.204 C 
BRANCH  22  23
ATOM     23  C   UNL     1       8.268   1.210  24.403  0.00  0.00    +0.015 A 
ATOM     24  C   UNL     1       8.637   2.529  24.713  0.00  0.00    +0.009 A 
ATOM     25  C   UNL     1       9.677   3.176  24.049  0.00  0.00    +0.001 A 
ATOM     26  C   UNL     1      10.321   2.549  22.997  0.00  0.00    +0.004 A 
ATOM     27  C   UNL     1       9.909   1.281  22.593  0.00  0.00    +0.046 A 
ATOM     28  C   UNL     1       8.877   0.618  23.273  0.00  0.00    +0.132 A 
BRANCH  28  29
ATOM     29  O   UNL     1       8.425  -0.627  22.908  0.00  0.00    -0.434 OA
BRANCH  29  30
ATOM     30  C   UNL     1       9.408  -1.473  22.319  0.00  0.00    +0.541 C 
ATOM     31  F   UNL     1       8.755  -2.512  21.741  0.00  0.00    -0.166 F 
ATOM     32  F   UNL     1      10.178  -2.000  23.304  0.00  0.00    -0.166 F 
ENDBRANCH  29  30
ENDBRANCH  28  29
ENDBRANCH  22  23
ENDBRANCH  19  22
ENDBRANCH  18  19
ENDBRANCH   1  18
TORSDOF 11
ENDMDL
MODEL 5
REMARK VINA RESULT:      -6.1      2.953      7.143
REMARK  Name = 
REMARK  11 active torsions:
REMARK  status: ('A' for Active; 'I' for Inactive)
REMARK    1  A    between atoms: C_2  and  C_3
REMARK    2  A    between atoms: C_2  and  O_18
REMARK    3  A    between atoms: C_2  and  C_27
REMARK    4  A    between atoms: C_3  and  S_4
REMARK    5  A    between atoms: S_4  and  C_7
REMARK    6  A    between atoms: C_7  and  C_8
REMARK    7  A    between atoms: C_9  and  O_10
REMARK    8  A    between atoms: O_10  and  C_11
REMARK    9  A    between atoms: O_18  and  C_19
REMARK   10  A    between atoms: N_29  and  C_30
REMARK   11  A    between atoms: C_30  and  C_31
REMARK                            x       y       z     vdW  Elec       q    Type
REMARK                         _______ _______ _______ _____ _____    ______ ____
ROOT
ATOM      1  C   UNL     1       8.280  -1.517  23.767  0.00  0.00    +0.284 C 
ENDROOT
BRANCH   1   2
ATOM      2  C   UNL     1       8.561  -3.016  23.541  0.00  0.00    +0.256 C 
ATOM      3  N   UNL     1       7.565  -3.687  22.869  0.00  0.00    -0.299 N 
ATOM      4  H   UNL     1       6.687  -3.193  22.737  0.00  0.00    +0.150 HD
ATOM      5  O   UNL     1       9.596  -3.556  23.920  0.00  0.00    -0.272 OA
BRANCH   3   6
ATOM      6  C   UNL     1       7.599  -5.120  22.672  0.00  0.00    +0.223 C 
BRANCH   6   7
ATOM      7  C   UNL     1       6.767  -5.533  21.523  0.00  0.00    +0.081 C 
ATOM      8  N   UNL     1       6.086  -5.832  20.633  0.00  0.00    -0.195 NA
ENDBRANCH   6   7
ENDBRANCH   3   6
ENDBRANCH   1   2
BRANCH   1   9
ATOM      9  O   UNL     1       9.067  -0.748  22.852  0.00  0.00    -0.436 OA
BRANCH   9  10
ATOM     10  C   UNL     1       9.887   0.196  23.377  0.00  0.00    +0.404 C 
ATOM     11  N   UNL     1       9.683   1.418  22.790  0.00  0.00    -0.263 N 
ATOM     12  C   UNL     1      10.299   2.622  23.341  0.00  0.00    +0.139 C 
ATOM     13  C   UNL     1       9.218   3.580  23.859  0.00  0.00    +0.179 C 
ATOM     14  O   UNL     1       8.244   3.866  22.839  0.00  0.00    -0.377 OA
ATOM     15  C   UNL     1       7.595   2.657  22.407  0.00  0.00    +0.179 C 
ATOM     16  C   UNL     1       8.618   1.684  21.818  0.00  0.00    +0.139 C 
ATOM     17  O   UNL     1      10.676  -0.027  24.283  0.00  0.00    -0.226 OA
ENDBRANCH   9  10
ENDBRANCH   1   9
BRANCH   1  18
ATOM     18  C   UNL     1       6.788  -1.220  23.664  0.00  0.00    +0.220 C 
BRANCH  18  19
ATOM     19  S   UNL     1       6.170  -0.346  25.104  0.00  0.00    -0.023 S 
ATOM     20  O   UNL     1       5.269   0.711  24.685  0.00  0.00    -0.174 OA
ATOM     21  O   UNL     1       7.326   0.011  25.908  0.00  0.00    -0.174 OA
BRANCH  19  22
ATOM     22  C   UNL     1       5.245  -1.562  26.038  0.00  0.00    +0.204 C 
BRANCH  22  23
ATOM     23  C   UNL     1       5.862  -2.945  26.131  0.00  0.00    +0.015 A 
ATOM     24  C   UNL     1       7.091  -3.222  26.751  0.00  0.00    +0.009 A 
ATOM     25  C   UNL     1       7.540  -4.527  26.942  0.00  0.00    +0.001 A 
ATOM     26  C   UNL     1       6.808  -5.589  26.440  0.00  0.00    +0.004 A 
ATOM     27  C   UNL     1       5.638  -5.344  25.725  0.00  0.00    +0.046 A 
ATOM     28  C   UNL     1       5.172  -4.034  25.550  0.00  0.00    +0.132 A 
BRANCH  28  29
ATOM     29  O   UNL     1       4.032  -3.736  24.844  0.00  0.00    -0.434 OA
BRANCH  29  30
ATOM     30  C   UNL     1       3.848  -4.500  23.654  0.00  0.00    +0.541 C 
ATOM     31  F   UNL     1       4.371  -3.783  22.628  0.00  0.00    -0.166 F 
ATOM     32  F   UNL     1       2.519  -4.613  23.409  0.00  0.00    -0.166 F 
ENDBRANCH  29  30
ENDBRANCH  28  29
ENDBRANCH  22  23
ENDBRANCH  19  22
ENDBRANCH  18  19
ENDBRANCH   1  18
TORSDOF 11
ENDMDL
MODEL 6
REMARK VINA RESULT:      -6.0      3.156      7.694
REMARK  Name = 
REMARK  11 active torsions:
REMARK  status: ('A' for Active; 'I' for Inactive)
REMARK    1  A    between atoms: C_2  and  C_3
REMARK    2  A    between atoms: C_2  and  O_18
REMARK    3  A    between atoms: C_2  and  C_27
REMARK    4  A    between atoms: C_3  and  S_4
REMARK    5  A    between atoms: S_4  and  C_7
REMARK    6  A    between atoms: C_7  and  C_8
REMARK    7  A    between atoms: C_9  and  O_10
REMARK    8  A    between atoms: O_10  and  C_11
REMARK    9  A    between atoms: O_18  and  C_19
REMARK   10  A    between atoms: N_29  and  C_30
REMARK   11  A    between atoms: C_30  and  C_31
REMARK                            x       y       z     vdW  Elec       q    Type
REMARK                         _______ _______ _______ _____ _____    ______ ____
ROOT
ATOM      1  C   UNL     1       7.578  -2.498  22.295  0.00  0.00    +0.284 C 
ENDROOT
BRANCH   1   2
ATOM      2  C   UNL     1       7.000  -1.648  23.442  0.00  0.00    +0.256 C 
ATOM      3  N   UNL     1       6.942  -2.292  24.657  0.00  0.00    -0.299 N 
ATOM      4  H   UNL     1       7.119  -3.292  24.653  0.00  0.00    +0.150 HD
ATOM      5  O   UNL     1       6.635  -0.487  23.281  0.00  0.00    -0.272 OA
BRANCH   3   6
ATOM      6  C   UNL     1       6.320  -1.694  25.817  0.00  0.00    +0.223 C 
BRANCH   6   7
ATOM      7  C   UNL     1       4.859  -1.912  25.827  0.00  0.00    +0.081 C 
ATOM      8  N   UNL     1       3.718  -2.121  25.824  0.00  0.00    -0.195 NA
ENDBRANCH   6   7
ENDBRANCH   3   6
ENDBRANCH   1   2
BRANCH   1   9
ATOM      9  O   UNL     1       8.911  -2.060  22.010  0.00  0.00    -0.436 OA
BRANCH   9  10
ATOM     10  C   UNL     1       9.673  -1.665  23.059  0.00  0.00    +0.404 C 
ATOM     11  N   UNL     1      10.155  -0.394  22.877  0.00  0.00    -0.263 N 
ATOM     12  C   UNL     1      10.820   0.314  23.966  0.00  0.00    +0.139 C 
ATOM     13  C   UNL     1       9.997   1.542  24.380  0.00  0.00    +0.179 C 
ATOM     14  O   UNL     1       9.720   2.388  23.248  0.00  0.00    -0.377 OA
ATOM     15  C   UNL     1       8.974   1.668  22.251  0.00  0.00    +0.179 C 
ATOM     16  C   UNL     1       9.775   0.465  21.751  0.00  0.00    +0.139 C 
ATOM     17  O   UNL     1       9.866  -2.355  24.049  0.00  0.00    -0.226 OA
ENDBRANCH   9  10
ENDBRANCH   1   9
BRANCH   1  18
ATOM     18  C   UNL     1       7.499  -3.985  22.624  0.00  0.00    +0.220 C 
BRANCH  18  19
ATOM     19  S   UNL     1       6.067  -4.770  21.880  0.00  0.00    -0.023 S 
ATOM     20  O   UNL     1       6.242  -6.210  21.884  0.00  0.00    -0.174 OA
ATOM     21  O   UNL     1       5.837  -4.105  20.609  0.00  0.00    -0.174 OA
BRANCH  19  22
ATOM     22  C   UNL     1       4.688  -4.349  22.942  0.00  0.00    +0.204 C 
BRANCH  22  23
ATOM     23  C   UNL     1       4.074  -5.494  23.725  0.00  0.00    +0.015 A 
ATOM     24  C   UNL     1       2.921  -6.192  23.332  0.00  0.00    +0.009 A 
ATOM     25  C   UNL     1       2.487  -7.332  24.005  0.00  0.00    +0.001 A 
ATOM     26  C   UNL     1       3.149  -7.755  25.144  0.00  0.00    +0.004 A 
ATOM     27  C   UNL     1       4.233  -7.024  25.624  0.00  0.00    +0.046 A 
ATOM     28  C   UNL     1       4.686  -5.889  24.937  0.00  0.00    +0.132 A 
BRANCH  28  29
ATOM     29  O   UNL     1       5.742  -5.126  25.373  0.00  0.00    -0.434 OA
BRANCH  29  30
ATOM     30  C   UNL     1       6.401  -5.623  26.535  0.00  0.00    +0.541 C 
ATOM     31  F   UNL     1       6.228  -4.709  27.522  0.00  0.00    -0.166 F 
ATOM     32  F   UNL     1       7.733  -5.681  26.290  0.00  0.00    -0.166 F 
ENDBRANCH  29  30
ENDBRANCH  28  29
ENDBRANCH  22  23
ENDBRANCH  19  22
ENDBRANCH  18  19
ENDBRANCH   1  18
TORSDOF 11
ENDMDL
MODEL 7
REMARK VINA RESULT:      -6.0      2.209      6.893
REMARK  Name = 
REMARK  11 active torsions:
REMARK  status: ('A' for Active; 'I' for Inactive)
REMARK    1  A    between atoms: C_2  and  C_3
REMARK    2  A    between atoms: C_2  and  O_18
REMARK    3  A    between atoms: C_2  and  C_27
REMARK    4  A    between atoms: C_3  and  S_4
REMARK    5  A    between atoms: S_4  and  C_7
REMARK    6  A    between atoms: C_7  and  C_8
REMARK    7  A    between atoms: C_9  and  O_10
REMARK    8  A    between atoms: O_10  and  C_11
REMARK    9  A    between atoms: O_18  and  C_19
REMARK   10  A    between atoms: N_29  and  C_30
REMARK   11  A    between atoms: C_30  and  C_31
REMARK                            x       y       z     vdW  Elec       q    Type
REMARK                         _______ _______ _______ _____ _____    ______ ____
ROOT
ATOM      1  C   UNL     1       7.022  -2.597  23.398  0.00  0.00    +0.284 C 
ENDROOT
BRANCH   1   2
ATOM      2  C   UNL     1       6.155  -3.618  22.636  0.00  0.00    +0.256 C 
ATOM      3  N   UNL     1       5.885  -4.772  23.335  0.00  0.00    -0.299 N 
ATOM      4  H   UNL     1       6.405  -4.918  24.195  0.00  0.00    +0.150 HD
ATOM      5  O   UNL     1       5.733  -3.406  21.502  0.00  0.00    -0.272 OA
BRANCH   3   6
ATOM      6  C   UNL     1       5.189  -5.890  22.737  0.00  0.00    +0.223 C 
BRANCH   6   7
ATOM      7  C   UNL     1       4.575  -6.761  23.760  0.00  0.00    +0.081 C 
ATOM      8  N   UNL     1       4.067  -7.460  24.534  0.00  0.00    -0.195 NA
ENDBRANCH   6   7
ENDBRANCH   3   6
ENDBRANCH   1   2
BRANCH   1   9
ATOM      9  O   UNL     1       8.167  -2.267  22.605  0.00  0.00    -0.436 OA
BRANCH   9  10
ATOM     10  C   UNL     1       9.278  -1.849  23.260  0.00  0.00    +0.404 C 
ATOM     11  N   UNL     1       9.682  -0.614  22.823  0.00  0.00    -0.263 N 
ATOM     12  C   UNL     1      10.725   0.123  23.531  0.00  0.00    +0.139 C 
ATOM     13  C   UNL     1      10.146   1.408  24.138  0.00  0.00    +0.179 C 
ATOM     14  O   UNL     1       9.480   2.201  23.139  0.00  0.00    -0.377 OA
ATOM     15  C   UNL     1       8.397   1.462  22.548  0.00  0.00    +0.179 C 
ATOM     16  C   UNL     1       8.923   0.197  21.867  0.00  0.00    +0.139 C 
ATOM     17  O   UNL     1       9.816  -2.492  24.150  0.00  0.00    -0.226 OA
ENDBRANCH   9  10
ENDBRANCH   1   9
BRANCH   1  18
ATOM     18  C   UNL     1       6.202  -1.374  23.796  0.00  0.00    +0.220 C 
BRANCH  18  19
ATOM     19  S   UNL     1       5.204  -1.673  25.256  0.00  0.00    -0.023 S 
ATOM     20  O   UNL     1       4.161  -2.633  24.948  0.00  0.00    -0.174 OA
ATOM     21  O   UNL     1       4.813  -0.372  25.772  0.00  0.00    -0.174 OA
BRANCH  19  22
ATOM     22  C   UNL     1       6.320  -2.392  26.458  0.00  0.00    +0.204 C 
BRANCH  22  23
ATOM     23  C   UNL     1       5.813  -3.621  27.189  0.00  0.00    +0.015 A 
ATOM     24  C   UNL     1       4.880  -3.587  28.239  0.00  0.00    +0.009 A 
ATOM     25  C   UNL     1       4.334  -4.753  28.773  0.00  0.00    +0.001 A 
ATOM     26  C   UNL     1       4.772  -5.987  28.327  0.00  0.00    +0.004 A 
ATOM     27  C   UNL     1       5.774  -6.058  27.362  0.00  0.00    +0.046 A 
ATOM     28  C   UNL     1       6.310  -4.888  26.807  0.00  0.00    +0.132 A 
BRANCH  28  29
ATOM     29  O   UNL     1       7.307  -4.901  25.862  0.00  0.00    -0.434 OA
BRANCH  29  30
ATOM     30  C   UNL     1       8.588  -5.292  26.349  0.00  0.00    +0.541 C 
ATOM     31  F   UNL     1       9.155  -4.201  26.923  0.00  0.00    -0.166 F 
ATOM     32  F   UNL     1       9.373  -5.625  25.295  0.00  0.00    -0.166 F 
ENDBRANCH  29  30
ENDBRANCH  28  29
ENDBRANCH  22  23
ENDBRANCH  19  22
ENDBRANCH  18  19
ENDBRANCH   1  18
TORSDOF 11
ENDMDL
MODEL 8
REMARK VINA RESULT:      -6.0      5.331      8.331
REMARK  Name = 
REMARK  11 active torsions:
REMARK  status: ('A' for Active; 'I' for Inactive)
REMARK    1  A    between atoms: C_2  and  C_3
REMARK    2  A    between atoms: C_2  and  O_18
REMARK    3  A    between atoms: C_2  and  C_27
REMARK    4  A    between atoms: C_3  and  S_4
REMARK    5  A    between atoms: S_4  and  C_7
REMARK    6  A    between atoms: C_7  and  C_8
REMARK    7  A    between atoms: C_9  and  O_10
REMARK    8  A    between atoms: O_10  and  C_11
REMARK    9  A    between atoms: O_18  and  C_19
REMARK   10  A    between atoms: N_29  and  C_30
REMARK   11  A    between atoms: C_30  and  C_31
REMARK                            x       y       z     vdW  Elec       q    Type
REMARK                         _______ _______ _______ _____ _____    ______ ____
ROOT
ATOM      1  C   UNL     1       9.074   2.729  23.565  0.00  0.00    +0.284 C 
ENDROOT
BRANCH   1   2
ATOM      2  C   UNL     1       9.805   4.019  23.987  0.00  0.00    +0.256 C 
ATOM      3  N   UNL     1      10.964   4.271  23.289  0.00  0.00    -0.299 N 
ATOM      4  H   UNL     1      11.315   3.524  22.698  0.00  0.00    +0.150 HD
ATOM      5  O   UNL     1       9.375   4.761  24.865  0.00  0.00    -0.272 OA
BRANCH   3   6
ATOM      6  C   UNL     1      11.843   5.369  23.628  0.00  0.00    +0.223 C 
BRANCH   6   7
ATOM      7  C   UNL     1      12.946   5.506  22.655  0.00  0.00    +0.081 C 
ATOM      8  N   UNL     1      13.786   5.604  21.861  0.00  0.00    -0.195 NA
ENDBRANCH   6   7
ENDBRANCH   3   6
ENDBRANCH   1   2
BRANCH   1   9
ATOM      9  O   UNL     1      10.038   1.759  23.143  0.00  0.00    -0.436 OA
BRANCH   9  10
ATOM     10  C   UNL     1       9.653   0.874  22.190  0.00  0.00    +0.404 C 
ATOM     11  N   UNL     1       9.867  -0.419  22.593  0.00  0.00    -0.263 N 
ATOM     12  C   UNL     1       9.334  -1.537  21.821  0.00  0.00    +0.139 C 
ATOM     13  C   UNL     1       8.283  -2.295  22.643  0.00  0.00    +0.179 C 
ATOM     14  O   UNL     1       8.811  -2.698  23.920  0.00  0.00    -0.377 OA
ATOM     15  C   UNL     1       9.225  -1.549  24.679  0.00  0.00    +0.179 C 
ATOM     16  C   UNL     1      10.324  -0.786  23.936  0.00  0.00    +0.139 C 
ATOM     17  O   UNL     1       9.151   1.207  21.127  0.00  0.00    -0.226 OA
ENDBRANCH   9  10
ENDBRANCH   1   9
BRANCH   1  18
ATOM     18  C   UNL     1       8.173   2.222  24.686  0.00  0.00    +0.220 C 
BRANCH  18  19
ATOM     19  S   UNL     1       6.503   1.894  24.117  0.00  0.00    -0.023 S 
ATOM     20  O   UNL     1       5.548   2.387  25.092  0.00  0.00    -0.174 OA
ATOM     21  O   UNL     1       6.452   0.489  23.751  0.00  0.00    -0.174 OA
BRANCH  19  22
ATOM     22  C   UNL     1       6.323   2.831  22.601  0.00  0.00    +0.204 C 
BRANCH  22  23
ATOM     23  C   UNL     1       5.190   3.840  22.571  0.00  0.00    +0.015 A 
ATOM     24  C   UNL     1       3.869   3.535  22.206  0.00  0.00    +0.009 A 
ATOM     25  C   UNL     1       2.837   4.461  22.341  0.00  0.00    +0.001 A 
ATOM     26  C   UNL     1       3.117   5.748  22.765  0.00  0.00    +0.004 A 
ATOM     27  C   UNL     1       4.433   6.117  23.034  0.00  0.00    +0.046 A 
ATOM     28  C   UNL     1       5.471   5.181  22.920  0.00  0.00    +0.132 A 
BRANCH  28  29
ATOM     29  O   UNL     1       6.786   5.495  23.160  0.00  0.00    -0.434 OA
BRANCH  29  30
ATOM     30  C   UNL     1       7.271   6.630  22.447  0.00  0.00    +0.541 C 
ATOM     31  F   UNL     1       7.225   6.328  21.125  0.00  0.00    -0.166 F 
ATOM     32  F   UNL     1       8.578   6.814  22.756  0.00  0.00    -0.166 F 
ENDBRANCH  29  30
ENDBRANCH  28  29
ENDBRANCH  22  23
ENDBRANCH  19  22
ENDBRANCH  18  19
ENDBRANCH   1  18
TORSDOF 11
ENDMDL
MODEL 9
REMARK VINA RESULT:      -5.9      3.807      5.878
REMARK  Name = 
REMARK  11 active torsions:
REMARK  status: ('A' for Active; 'I' for Inactive)
REMARK    1  A    between atoms: C_2  and  C_3
REMARK    2  A    between atoms: C_2  and  O_18
REMARK    3  A    between atoms: C_2  and  C_27
REMARK    4  A    between atoms: C_3  and  S_4
REMARK    5  A    between atoms: S_4  and  C_7
REMARK    6  A    between atoms: C_7  and  C_8
REMARK    7  A    between atoms: C_9  and  O_10
REMARK    8  A    between atoms: O_10  and  C_11
REMARK    9  A    between atoms: O_18  and  C_19
REMARK   10  A    between atoms: N_29  and  C_30
REMARK   11  A    between atoms: C_30  and  C_31
REMARK                            x       y       z     vdW  Elec       q    Type
REMARK                         _______ _______ _______ _____ _____    ______ ____
ROOT
ATOM      1  C   UNL     1       8.569  -1.237  25.067  0.00  0.00    +0.284 C 
ENDROOT
BRANCH   1   2
ATOM      2  C   UNL     1       8.091  -0.258  26.158  0.00  0.00    +0.256 C 
ATOM      3  N   UNL     1       7.561   0.917  25.677  0.00  0.00    -0.299 N 
ATOM      4  H   UNL     1       7.684   1.104  24.687  0.00  0.00    +0.150 HD
ATOM      5  O   UNL     1       8.168  -0.519  27.355  0.00  0.00    -0.272 OA
BRANCH   3   6
ATOM      6  C   UNL     1       7.172   2.001  26.552  0.00  0.00    +0.223 C 
BRANCH   6   7
ATOM      7  C   UNL     1       5.736   2.324  26.417  0.00  0.00    +0.081 C 
ATOM      8  N   UNL     1       4.615   2.579  26.271  0.00  0.00    -0.195 NA
ENDBRANCH   6   7
ENDBRANCH   3   6
ENDBRANCH   1   2
BRANCH   1   9
ATOM      9  O   UNL     1       7.806  -2.445  25.152  0.00  0.00    -0.436 OA
BRANCH   9  10
ATOM     10  C   UNL     1       8.258  -3.516  24.454  0.00  0.00    +0.404 C 
ATOM     11  N   UNL     1       7.220  -4.269  23.967  0.00  0.00    -0.263 N 
ATOM     12  C   UNL     1       7.465  -5.344  23.010  0.00  0.00    +0.139 C 
ATOM     13  C   UNL     1       6.809  -5.014  21.663  0.00  0.00    +0.179 C 
ATOM     14  O   UNL     1       5.410  -4.715  21.824  0.00  0.00    -0.377 OA
ATOM     15  C   UNL     1       5.233  -3.584  22.694  0.00  0.00    +0.179 C 
ATOM     16  C   UNL     1       5.811  -3.879  24.079  0.00  0.00    +0.139 C 
ATOM     17  O   UNL     1       9.443  -3.744  24.264  0.00  0.00    -0.226 OA
ENDBRANCH   9  10
ENDBRANCH   1   9
BRANCH   1  18
ATOM     18  C   UNL     1       8.505  -0.590  23.688  0.00  0.00    +0.220 C 
BRANCH  18  19
ATOM     19  S   UNL     1      10.136  -0.313  22.992  0.00  0.00    -0.023 S 
ATOM     20  O   UNL     1      10.530  -1.462  22.199  0.00  0.00    -0.174 OA
ATOM     21  O   UNL     1      10.996   0.097  24.088  0.00  0.00    -0.174 OA
BRANCH  19  22
ATOM     22  C   UNL     1       9.959   1.105  21.913  0.00  0.00    +0.204 C 
BRANCH  22  23
ATOM     23  C   UNL     1       8.876   2.099  22.288  0.00  0.00    +0.015 A 
ATOM     24  C   UNL     1       7.579   2.095  21.748  0.00  0.00    +0.009 A 
ATOM     25  C   UNL     1       6.578   2.932  22.237  0.00  0.00    +0.001 A 
ATOM     26  C   UNL     1       6.872   3.857  23.223  0.00  0.00    +0.004 A 
ATOM     27  C   UNL     1       8.175   3.960  23.707  0.00  0.00    +0.046 A 
ATOM     28  C   UNL     1       9.179   3.105  23.233  0.00  0.00    +0.132 A 
BRANCH  28  29
ATOM     29  O   UNL     1      10.481   3.174  23.665  0.00  0.00    -0.434 OA
BRANCH  29  30
ATOM     30  C   UNL     1      11.180   4.353  23.276  0.00  0.00    +0.541 C 
ATOM     31  F   UNL     1      12.506   4.069  23.313  0.00  0.00    -0.166 F 
ATOM     32  F   UNL     1      10.965   5.316  24.207  0.00  0.00    -0.166 F 
ENDBRANCH  29  30
ENDBRANCH  28  29
ENDBRANCH  22  23
ENDBRANCH  19  22
ENDBRANCH  18  19
ENDBRANCH   1  18
TORSDOF 11
ENDMDL
