MODEL 1
REMARK VINA RESULT:      -4.8      0.000      0.000
REMARK  Name = 
REMARK  6 active torsions:
REMARK  status: ('A' for Active; 'I' for Inactive)
REMARK    1  A    between atoms: O_1  and  C_2
REMARK    2  A    between atoms: C_2  and  C_3
REMARK    3  A    between atoms: C_6  and  O_8
REMARK    4  A    between atoms: C_9  and  O_11
REMARK    5  A    between atoms: C_12  and  O_14
REMARK    6  A    between atoms: C_15  and  O_17
REMARK                            x       y       z     vdW  Elec       q    Type
REMARK                         _______ _______ _______ _____ _____    ______ ____
ROOT
ATOM      1  C   UNL     1       9.473  -2.211  23.643  0.00  0.00    +0.178 C 
ATOM      2  C   UNL     1       8.150  -2.575  22.949  0.00  0.00    +0.177 C 
ATOM      3  C   UNL     1       7.340  -3.518  23.858  0.00  0.00    +0.179 C 
ATOM      4  C   UNL     1       8.179  -4.704  24.340  0.00  0.00    +0.201 C 
ATOM      5  C   UNL     1       9.514  -4.199  24.908  0.00  0.00    +0.279 C 
ATOM      6  O   UNL     1      10.209  -3.406  23.963  0.00  0.00    -0.341 OA
ENDROOT
BRANCH   2   7
ATOM      7  O   UNL     1       7.420  -1.376  22.661  0.00  0.00    -0.386 OA
ATOM      8  H   UNL     1       6.469  -1.579  22.676  0.00  0.00    +0.210 HD
ENDBRANCH   2   7
BRANCH   3   9
ATOM      9  O   UNL     1       6.175  -4.000  23.176  0.00  0.00    -0.386 OA
ATOM     10  H   UNL     1       5.526  -4.211  23.875  0.00  0.00    +0.210 HD
ENDBRANCH   3   9
BRANCH   4  11
ATOM     11  O   UNL     1       7.420  -5.399  25.337  0.00  0.00    -0.384 OA
ATOM     12  H   UNL     1       6.853  -4.725  25.768  0.00  0.00    +0.210 HD
ENDBRANCH   4  11
BRANCH   5  13
ATOM     13  O   UNL     1      10.320  -5.323  25.226  0.00  0.00    -0.365 OA
ATOM     14  H   UNL     1      11.171  -5.132  24.793  0.00  0.00    +0.213 HD
ENDBRANCH   5  13
BRANCH   1  15
ATOM     15  C   UNL     1      10.339  -1.304  22.761  0.00  0.00    +0.190 C 
BRANCH  15  16
ATOM     16  O   UNL     1      10.063  -1.579  21.385  0.00  0.00    -0.392 OA
ATOM     17  H   UNL     1       9.334  -2.221  21.372  0.00  0.00    +0.210 HD
ENDBRANCH  15  16
ENDBRANCH   1  15
TORSDOF 6
ENDMDL
MODEL 2
REMARK VINA RESULT:      -4.6      1.859      4.968
REMARK  Name = 
REMARK  6 active torsions:
REMARK  status: ('A' for Active; 'I' for Inactive)
REMARK    1  A    between atoms: O_1  and  C_2
REMARK    2  A    between atoms: C_2  and  C_3
REMARK    3  A    between atoms: C_6  and  O_8
REMARK    4  A    between atoms: C_9  and  O_11
REMARK    5  A    between atoms: C_12  and  O_14
REMARK    6  A    between atoms: C_15  and  O_17
REMARK                            x       y       z     vdW  Elec       q    Type
REMARK                         _______ _______ _______ _____ _____    ______ ____
ROOT
ATOM      1  C   UNL     1       6.612  -4.545  26.035  0.00  0.00    +0.178 C 
ATOM      2  C   UNL     1       7.842  -5.452  26.208  0.00  0.00    +0.177 C 
ATOM      3  C   UNL     1       9.101  -4.700  25.740  0.00  0.00    +0.179 C 
ATOM      4  C   UNL     1       8.919  -4.096  24.346  0.00  0.00    +0.201 C 
ATOM      5  C   UNL     1       7.601  -3.309  24.289  0.00  0.00    +0.279 C 
ATOM      6  O   UNL     1       6.501  -4.118  24.664  0.00  0.00    -0.341 OA
ENDROOT
BRANCH   2   7
ATOM      7  O   UNL     1       7.950  -5.847  27.581  0.00  0.00    -0.386 OA
ATOM      8  H   UNL     1       8.499  -5.195  28.050  0.00  0.00    +0.210 HD
ENDBRANCH   2   7
BRANCH   3   9
ATOM      9  O   UNL     1      10.240  -5.572  25.742  0.00  0.00    -0.386 OA
ATOM     10  H   UNL     1       9.957  -6.379  25.270  0.00  0.00    +0.210 HD
ENDBRANCH   3   9
BRANCH   4  11
ATOM     11  O   UNL     1      10.044  -3.246  24.089  0.00  0.00    -0.384 OA
ATOM     12  H   UNL     1       9.996  -2.522  24.749  0.00  0.00    +0.210 HD
ENDBRANCH   4  11
BRANCH   5  13
ATOM     13  O   UNL     1       7.398  -2.872  22.954  0.00  0.00    -0.365 OA
ATOM     14  H   UNL     1       6.437  -2.721  22.899  0.00  0.00    +0.213 HD
ENDBRANCH   5  13
BRANCH   1  15
ATOM     15  C   UNL     1       5.322  -5.262  26.448  0.00  0.00    +0.190 C 
BRANCH  15  16
ATOM     16  O   UNL     1       5.543  -6.674  26.445  0.00  0.00    -0.392 OA
ATOM     17  H   UNL     1       6.315  -6.834  27.014  0.00  0.00    +0.210 HD
ENDBRANCH  15  16
ENDBRANCH   1  15
TORSDOF 6
ENDMDL
MODEL 3
REMARK VINA RESULT:      -4.6      2.713      3.702
REMARK  Name = 
REMARK  6 active torsions:
REMARK  status: ('A' for Active; 'I' for Inactive)
REMARK    1  A    between atoms: O_1  and  C_2
REMARK    2  A    between atoms: C_2  and  C_3
REMARK    3  A    between atoms: C_6  and  O_8
REMARK    4  A    between atoms: C_9  and  O_11
REMARK    5  A    between atoms: C_12  and  O_14
REMARK    6  A    between atoms: C_15  and  O_17
REMARK                            x       y       z     vdW  Elec       q    Type
REMARK                         _______ _______ _______ _____ _____    ______ ____
ROOT
ATOM      1  C   UNL     1       7.039  -4.898  23.353  0.00  0.00    +0.178 C 
ATOM      2  C   UNL     1       6.166  -5.671  24.355  0.00  0.00    +0.177 C 
ATOM      3  C   UNL     1       6.645  -5.372  25.787  0.00  0.00    +0.179 C 
ATOM      4  C   UNL     1       8.155  -5.572  25.936  0.00  0.00    +0.201 C 
ATOM      5  C   UNL     1       8.891  -4.835  24.809  0.00  0.00    +0.279 C 
ATOM      6  O   UNL     1       8.425  -5.243  23.535  0.00  0.00    -0.341 OA
ENDROOT
BRANCH   2   7
ATOM      7  O   UNL     1       4.795  -5.298  24.175  0.00  0.00    -0.386 OA
ATOM      8  H   UNL     1       4.650  -4.432  24.594  0.00  0.00    +0.210 HD
ENDBRANCH   2   7
BRANCH   3   9
ATOM      9  O   UNL     1       5.954  -6.197  26.734  0.00  0.00    -0.386 OA
ATOM     10  H   UNL     1       5.475  -5.581  27.323  0.00  0.00    +0.210 HD
ENDBRANCH   3   9
BRANCH   4  11
ATOM     11  O   UNL     1       8.537  -5.070  27.223  0.00  0.00    -0.384 OA
ATOM     12  H   UNL     1       8.291  -5.764  27.871  0.00  0.00    +0.210 HD
ENDBRANCH   4  11
BRANCH   5  13
ATOM     13  O   UNL     1      10.274  -5.145  24.897  0.00  0.00    -0.365 OA
ATOM     14  H   UNL     1      10.375  -5.933  24.334  0.00  0.00    +0.213 HD
ENDBRANCH   5  13
BRANCH   1  15
ATOM     15  C   UNL     1       6.630  -5.195  21.905  0.00  0.00    +0.190 C 
BRANCH  15  16
ATOM     16  O   UNL     1       6.079  -6.512  21.829  0.00  0.00    -0.392 OA
ATOM     17  H   UNL     1       5.865  -6.668  20.894  0.00  0.00    +0.210 HD
ENDBRANCH  15  16
ENDBRANCH   1  15
TORSDOF 6
ENDMDL
MODEL 4
REMARK VINA RESULT:      -4.6      1.814      3.655
REMARK  Name = 
REMARK  6 active torsions:
REMARK  status: ('A' for Active; 'I' for Inactive)
REMARK    1  A    between atoms: O_1  and  C_2
REMARK    2  A    between atoms: C_2  and  C_3
REMARK    3  A    between atoms: C_6  and  O_8
REMARK    4  A    between atoms: C_9  and  O_11
REMARK    5  A    between atoms: C_12  and  O_14
REMARK    6  A    between atoms: C_15  and  O_17
REMARK                            x       y       z     vdW  Elec       q    Type
REMARK                         _______ _______ _______ _____ _____    ______ ____
ROOT
ATOM      1  C   UNL     1       6.477  -4.498  24.388  0.00  0.00    +0.178 C 
ATOM      2  C   UNL     1       7.619  -3.570  23.944  0.00  0.00    +0.177 C 
ATOM      3  C   UNL     1       8.970  -4.209  24.316  0.00  0.00    +0.179 C 
ATOM      4  C   UNL     1       9.008  -4.647  25.782  0.00  0.00    +0.201 C 
ATOM      5  C   UNL     1       7.756  -5.473  26.110  0.00  0.00    +0.279 C 
ATOM      6  O   UNL     1       6.573  -4.760  25.801  0.00  0.00    -0.341 OA
ENDROOT
BRANCH   2   7
ATOM      7  O   UNL     1       7.522  -3.340  22.533  0.00  0.00    -0.386 OA
ATOM      8  H   UNL     1       6.976  -2.549  22.383  0.00  0.00    +0.210 HD
ENDBRANCH   2   7
BRANCH   3   9
ATOM      9  O   UNL     1      10.048  -3.299  24.057  0.00  0.00    -0.386 OA
ATOM     10  H   UNL     1      10.421  -3.074  24.932  0.00  0.00    +0.210 HD
ENDBRANCH   3   9
BRANCH   4  11
ATOM     11  O   UNL     1      10.203  -5.414  25.977  0.00  0.00    -0.384 OA
ATOM     12  H   UNL     1      10.016  -6.028  26.718  0.00  0.00    +0.210 HD
ENDBRANCH   4  11
BRANCH   5  13
ATOM     13  O   UNL     1       7.756  -5.753  27.502  0.00  0.00    -0.365 OA
ATOM     14  H   UNL     1       8.296  -6.559  27.580  0.00  0.00    +0.213 HD
ENDBRANCH   5  13
BRANCH   1  15
ATOM     15  C   UNL     1       5.105  -3.889  24.078  0.00  0.00    +0.190 C 
BRANCH  15  16
ATOM     16  O   UNL     1       4.765  -4.155  22.716  0.00  0.00    -0.392 OA
ATOM     17  H   UNL     1       5.510  -4.652  22.337  0.00  0.00    +0.210 HD
ENDBRANCH  15  16
ENDBRANCH   1  15
TORSDOF 6
ENDMDL
MODEL 5
REMARK VINA RESULT:      -4.5      2.792      5.114
REMARK  Name = 
REMARK  6 active torsions:
REMARK  status: ('A' for Active; 'I' for Inactive)
REMARK    1  A    between atoms: O_1  and  C_2
REMARK    2  A    between atoms: C_2  and  C_3
REMARK    3  A    between atoms: C_6  and  O_8
REMARK    4  A    between atoms: C_9  and  O_11
REMARK    5  A    between atoms: C_12  and  O_14
REMARK    6  A    between atoms: C_15  and  O_17
REMARK                            x       y       z     vdW  Elec       q    Type
REMARK                         _______ _______ _______ _____ _____    ______ ____
ROOT
ATOM      1  C   UNL     1       9.924  -0.992  23.722  0.00  0.00    +0.178 C 
ATOM      2  C   UNL     1       9.406  -0.711  22.302  0.00  0.00    +0.177 C 
ATOM      3  C   UNL     1       9.546   0.791  21.994  0.00  0.00    +0.179 C 
ATOM      4  C   UNL     1       8.941   1.658  23.100  0.00  0.00    +0.201 C 
ATOM      5  C   UNL     1       9.465   1.197  24.468  0.00  0.00    +0.279 C 
ATOM      6  O   UNL     1       9.214  -0.181  24.677  0.00  0.00    -0.341 OA
ENDROOT
BRANCH   2   7
ATOM      7  O   UNL     1      10.140  -1.507  21.364  0.00  0.00    -0.386 OA
ATOM      8  H   UNL     1      10.295  -2.385  21.754  0.00  0.00    +0.210 HD
ENDBRANCH   2   7
BRANCH   3   9
ATOM      9  O   UNL     1       8.929   1.109  20.740  0.00  0.00    -0.386 OA
ATOM     10  H   UNL     1       9.597   0.907  20.056  0.00  0.00    +0.210 HD
ENDBRANCH   3   9
BRANCH   4  11
ATOM     11  O   UNL     1       9.305   3.019  22.836  0.00  0.00    -0.384 OA
ATOM     12  H   UNL     1      10.231   2.995  22.511  0.00  0.00    +0.210 HD
ENDBRANCH   4  11
BRANCH   5  13
ATOM     13  O   UNL     1       8.789   1.931  25.478  0.00  0.00    -0.365 OA
ATOM     14  H   UNL     1       9.072   1.506  26.307  0.00  0.00    +0.213 HD
ENDBRANCH   5  13
BRANCH   1  15
ATOM     15  C   UNL     1       9.768  -2.470  24.096  0.00  0.00    +0.190 C 
BRANCH  15  16
ATOM     16  O   UNL     1       8.653  -3.021  23.391  0.00  0.00    -0.392 OA
ATOM     17  H   UNL     1       8.126  -3.510  24.045  0.00  0.00    +0.210 HD
ENDBRANCH  15  16
ENDBRANCH   1  15
TORSDOF 6
ENDMDL
MODEL 6
REMARK VINA RESULT:      -4.5      3.077      4.318
REMARK  Name = 
REMARK  6 active torsions:
REMARK  status: ('A' for Active; 'I' for Inactive)
REMARK    1  A    between atoms: O_1  and  C_2
REMARK    2  A    between atoms: C_2  and  C_3
REMARK    3  A    between atoms: C_6  and  O_8
REMARK    4  A    between atoms: C_9  and  O_11
REMARK    5  A    between atoms: C_12  and  O_14
REMARK    6  A    between atoms: C_15  and  O_17
REMARK                            x       y       z     vdW  Elec       q    Type
REMARK                         _______ _______ _______ _____ _____    ______ ____
ROOT
ATOM      1  C   UNL     1       9.086   1.635  23.499  0.00  0.00    +0.178 C 
ATOM      2  C   UNL     1       9.819   0.785  22.449  0.00  0.00    +0.177 C 
ATOM      3  C   UNL     1       9.542  -0.707  22.715  0.00  0.00    +0.179 C 
ATOM      4  C   UNL     1       9.810  -1.085  24.174  0.00  0.00    +0.201 C 
ATOM      5  C   UNL     1       9.106  -0.089  25.106  0.00  0.00    +0.279 C 
ATOM      6  O   UNL     1       9.493   1.244  24.824  0.00  0.00    -0.341 OA
ENDROOT
BRANCH   2   7
ATOM      7  O   UNL     1       9.385   1.170  21.140  0.00  0.00    -0.386 OA
ATOM      8  H   UNL     1       8.421   1.046  21.082  0.00  0.00    +0.210 HD
ENDBRANCH   2   7
BRANCH   3   9
ATOM      9  O   UNL     1      10.335  -1.530  21.850  0.00  0.00    -0.386 OA
ATOM     10  H   UNL     1       9.810  -2.341  21.701  0.00  0.00    +0.210 HD
ENDBRANCH   3   9
BRANCH   4  11
ATOM     11  O   UNL     1       9.326  -2.418  24.375  0.00  0.00    -0.384 OA
ATOM     12  H   UNL     1       8.733  -2.610  23.617  0.00  0.00    +0.210 HD
ENDBRANCH   4  11
BRANCH   5  13
ATOM     13  O   UNL     1       9.478  -0.387  26.444  0.00  0.00    -0.365 OA
ATOM     14  H   UNL     1       9.016  -1.222  26.636  0.00  0.00    +0.213 HD
ENDBRANCH   5  13
BRANCH   1  15
ATOM     15  C   UNL     1       9.363   3.130  23.305  0.00  0.00    +0.190 C 
BRANCH  15  16
ATOM     16  O   UNL     1      10.647   3.299  22.699  0.00  0.00    -0.392 OA
ATOM     17  H   UNL     1      10.921   4.214  22.881  0.00  0.00    +0.210 HD
ENDBRANCH  15  16
ENDBRANCH   1  15
TORSDOF 6
ENDMDL
MODEL 7
REMARK VINA RESULT:      -4.4      1.527      2.088
REMARK  Name = 
REMARK  6 active torsions:
REMARK  status: ('A' for Active; 'I' for Inactive)
REMARK    1  A    between atoms: O_1  and  C_2
REMARK    2  A    between atoms: C_2  and  C_3
REMARK    3  A    between atoms: C_6  and  O_8
REMARK    4  A    between atoms: C_9  and  O_11
REMARK    5  A    between atoms: C_12  and  O_14
REMARK    6  A    between atoms: C_15  and  O_17
REMARK                            x       y       z     vdW  Elec       q    Type
REMARK                         _______ _______ _______ _____ _____    ______ ____
ROOT
ATOM      1  C   UNL     1       8.204  -3.184  24.018  0.00  0.00    +0.178 C 
ATOM      2  C   UNL     1       6.832  -3.790  24.355  0.00  0.00    +0.177 C 
ATOM      3  C   UNL     1       6.884  -4.424  25.757  0.00  0.00    +0.179 C 
ATOM      4  C   UNL     1       8.078  -5.369  25.911  0.00  0.00    +0.201 C 
ATOM      5  C   UNL     1       9.360  -4.668  25.438  0.00  0.00    +0.279 C 
ATOM      6  O   UNL     1       9.227  -4.193  24.111  0.00  0.00    -0.341 OA
ENDROOT
BRANCH   2   7
ATOM      7  O   UNL     1       5.831  -2.768  24.282  0.00  0.00    -0.386 OA
ATOM      8  H   UNL     1       4.985  -3.137  24.592  0.00  0.00    +0.210 HD
ENDBRANCH   2   7
BRANCH   3   9
ATOM      9  O   UNL     1       5.670  -5.133  26.036  0.00  0.00    -0.386 OA
ATOM     10  H   UNL     1       5.470  -5.647  25.229  0.00  0.00    +0.210 HD
ENDBRANCH   3   9
BRANCH   4  11
ATOM     11  O   UNL     1       8.166  -5.738  27.293  0.00  0.00    -0.384 OA
ATOM     12  H   UNL     1       7.260  -5.649  27.658  0.00  0.00    +0.210 HD
ENDBRANCH   4  11
BRANCH   5  13
ATOM     13  O   UNL     1      10.423  -5.608  25.471  0.00  0.00    -0.365 OA
ATOM     14  H   UNL     1      10.214  -6.173  26.235  0.00  0.00    +0.213 HD
ENDBRANCH   5  13
BRANCH   1  15
ATOM     15  C   UNL     1       8.220  -2.575  22.611  0.00  0.00    +0.190 C 
BRANCH  15  16
ATOM     16  O   UNL     1       7.751  -1.226  22.674  0.00  0.00    -0.392 OA
ATOM     17  H   UNL     1       7.854  -0.855  21.781  0.00  0.00    +0.210 HD
ENDBRANCH  15  16
ENDBRANCH   1  15
TORSDOF 6
ENDMDL
MODEL 8
REMARK VINA RESULT:      -4.4      3.132      5.051
REMARK  Name = 
REMARK  6 active torsions:
REMARK  status: ('A' for Active; 'I' for Inactive)
REMARK    1  A    between atoms: O_1  and  C_2
REMARK    2  A    between atoms: C_2  and  C_3
REMARK    3  A    between atoms: C_6  and  O_8
REMARK    4  A    between atoms: C_9  and  O_11
REMARK    5  A    between atoms: C_12  and  O_14
REMARK    6  A    between atoms: C_15  and  O_17
REMARK                            x       y       z     vdW  Elec       q    Type
REMARK                         _______ _______ _______ _____ _____    ______ ____
ROOT
ATOM      1  C   UNL     1       5.977  -5.320  26.017  0.00  0.00    +0.178 C 
ATOM      2  C   UNL     1       7.051  -4.949  24.981  0.00  0.00    +0.177 C 
ATOM      3  C   UNL     1       6.414  -4.908  23.579  0.00  0.00    +0.179 C 
ATOM      4  C   UNL     1       5.618  -6.180  23.278  0.00  0.00    +0.201 C 
ATOM      5  C   UNL     1       4.666  -6.485  24.444  0.00  0.00    +0.279 C 
ATOM      6  O   UNL     1       5.367  -6.577  25.670  0.00  0.00    -0.341 OA
ENDROOT
BRANCH   2   7
ATOM      7  O   UNL     1       7.629  -3.686  25.328  0.00  0.00    -0.386 OA
ATOM      8  H   UNL     1       8.358  -3.497  24.711  0.00  0.00    +0.210 HD
ENDBRANCH   2   7
BRANCH   3   9
ATOM      9  O   UNL     1       7.419  -4.720  22.573  0.00  0.00    -0.386 OA
ATOM     10  H   UNL     1       7.786  -3.828  22.729  0.00  0.00    +0.210 HD
ENDBRANCH   3   9
BRANCH   4  11
ATOM     11  O   UNL     1       4.895  -5.963  22.059  0.00  0.00    -0.384 OA
ATOM     12  H   UNL     1       3.953  -5.866  22.314  0.00  0.00    +0.210 HD
ENDBRANCH   4  11
BRANCH   5  13
ATOM     13  O   UNL     1       4.038  -7.734  24.195  0.00  0.00    -0.365 OA
ATOM     14  H   UNL     1       3.764  -8.040  25.077  0.00  0.00    +0.213 HD
ENDBRANCH   5  13
BRANCH   1  15
ATOM     15  C   UNL     1       6.568  -5.416  27.429  0.00  0.00    +0.190 C 
BRANCH  15  16
ATOM     16  O   UNL     1       7.940  -5.810  27.342  0.00  0.00    -0.392 OA
ATOM     17  H   UNL     1       8.158  -6.239  28.186  0.00  0.00    +0.210 HD
ENDBRANCH  15  16
ENDBRANCH   1  15
TORSDOF 6
ENDMDL
MODEL 9
REMARK VINA RESULT:      -4.3      1.259      3.024
REMARK  Name = 
REMARK  6 active torsions:
REMARK  status: ('A' for Active; 'I' for Inactive)
REMARK    1  A    between atoms: O_1  and  C_2
REMARK    2  A    between atoms: C_2  and  C_3
REMARK    3  A    between atoms: C_6  and  O_8
REMARK    4  A    between atoms: C_9  and  O_11
REMARK    5  A    between atoms: C_12  and  O_14
REMARK    6  A    between atoms: C_15  and  O_17
REMARK                            x       y       z     vdW  Elec       q    Type
REMARK                         _______ _______ _______ _____ _____    ______ ____
ROOT
ATOM      1  C   UNL     1       8.354  -2.693  22.421  0.00  0.00    +0.178 C 
ATOM      2  C   UNL     1       8.705  -3.124  23.855  0.00  0.00    +0.177 C 
ATOM      3  C   UNL     1       8.025  -4.471  24.165  0.00  0.00    +0.179 C 
ATOM      4  C   UNL     1       6.532  -4.445  23.832  0.00  0.00    +0.201 C 
ATOM      5  C   UNL     1       6.325  -3.894  22.413  0.00  0.00    +0.279 C 
ATOM      6  O   UNL     1       6.924  -2.619  22.263  0.00  0.00    -0.341 OA
ENDROOT
BRANCH   2   7
ATOM      7  O   UNL     1      10.129  -3.216  23.986  0.00  0.00    -0.386 OA
ATOM      8  H   UNL     1      10.525  -3.214  23.097  0.00  0.00    +0.210 HD
ENDBRANCH   2   7
BRANCH   3   9
ATOM      9  O   UNL     1       8.205  -4.822  25.543  0.00  0.00    -0.386 OA
ATOM     10  H   UNL     1       8.251  -3.975  26.029  0.00  0.00    +0.210 HD
ENDBRANCH   3   9
BRANCH   4  11
ATOM     11  O   UNL     1       6.036  -5.784  23.947  0.00  0.00    -0.384 OA
ATOM     12  H   UNL     1       5.127  -5.771  23.579  0.00  0.00    +0.210 HD
ENDBRANCH   4  11
BRANCH   5  13
ATOM     13  O   UNL     1       4.931  -3.760  22.183  0.00  0.00    -0.365 OA
ATOM     14  H   UNL     1       4.871  -3.082  21.487  0.00  0.00    +0.213 HD
ENDBRANCH   5  13
BRANCH   1  15
ATOM     15  C   UNL     1       8.973  -1.335  22.074  0.00  0.00    +0.190 C 
BRANCH  15  16
ATOM     16  O   UNL     1      10.272  -1.535  21.513  0.00  0.00    -0.392 OA
ATOM     17  H   UNL     1      10.180  -1.418  20.553  0.00  0.00    +0.210 HD
ENDBRANCH  15  16
ENDBRANCH   1  15
TORSDOF 6
ENDMDL
