MODEL 1
REMARK VINA RESULT:      -4.4      0.000      0.000
REMARK  Name = 
REMARK  48 active torsions:
REMARK  status: ('A' for Active; 'I' for Inactive)
REMARK    1  A    between atoms: C_1  and  C_2
REMARK    2  A    between atoms: C_2  and  C_3
REMARK    3  A    between atoms: C_3  and  C_4
REMARK    4  A    between atoms: C_4  and  C_5
REMARK    5  A    between atoms: C_5  and  C_6
REMARK    6  A    between atoms: C_6  and  C_7
REMARK    7  A    between atoms: C_7  and  C_8
REMARK    8  A    between atoms: C_8  and  C_9
REMARK    9  A    between atoms: C_10  and  C_11
REMARK   10  A    between atoms: C_11  and  C_12
REMARK   11  A    between atoms: C_12  and  C_13
REMARK   12  A    between atoms: C_13  and  C_14
REMARK   13  A    between atoms: C_14  and  C_15
REMARK   14  A    between atoms: C_15  and  C_16
REMARK   15  A    between atoms: C_16  and  C_17
REMARK   16  A    between atoms: C_17  and  C_18
REMARK   17  A    between atoms: C_18  and  O_20
REMARK   18  A    between atoms: O_20  and  C_21
REMARK   19  A    between atoms: C_21  and  C_22
REMARK   20  A    between atoms: C_22  and  C_24
REMARK   21  A    between atoms: C_22  and  O_36
REMARK   22  A    between atoms: C_24  and  O_25
REMARK   23  A    between atoms: O_25  and  P_26
REMARK   24  A    between atoms: P_26  and  O_28
REMARK   25  A    between atoms: P_26  and  O_29
REMARK   26  A    between atoms: O_29  and  C_30
REMARK   27  A    between atoms: C_30  and  C_31
REMARK   28  A    between atoms: C_31  and  N_32
REMARK   29  A    between atoms: N_32  and  C_33
REMARK   30  A    between atoms: N_32  and  C_34
REMARK   31  A    between atoms: N_32  and  C_35
REMARK   32  A    between atoms: O_36  and  C_37
REMARK   33  A    between atoms: C_37  and  C_39
REMARK   34  A    between atoms: C_39  and  C_40
REMARK   35  A    between atoms: C_40  and  C_41
REMARK   36  A    between atoms: C_41  and  C_42
REMARK   37  A    between atoms: C_42  and  C_43
REMARK   38  A    between atoms: C_43  and  C_44
REMARK   39  A    between atoms: C_44  and  C_45
REMARK   40  A    between atoms: C_45  and  C_46
REMARK   41  A    between atoms: C_47  and  C_48
REMARK   42  A    between atoms: C_48  and  C_49
REMARK   43  A    between atoms: C_49  and  C_50
REMARK   44  A    between atoms: C_50  and  C_51
REMARK   45  A    between atoms: C_51  and  C_52
REMARK   46  A    between atoms: C_52  and  C_53
REMARK   47  A    between atoms: C_53  and  C_54
REMARK   48  A    between atoms: C_54  and  C_55
REMARK                            x       y       z     vdW  Elec       q    Type
REMARK                         _______ _______ _______ _____ _____    ______ ____
ROOT
ATOM      1  C   UNL     1       7.650  -3.761  26.209  0.00  0.00    +0.240 C 
ENDROOT
BRANCH   1   2
ATOM      2  C   UNL     1       7.769  -5.183  26.964  0.00  0.00    +0.220 C 
BRANCH   2   3
ATOM      3  O   UNL     1       6.486  -5.902  27.108  0.00  0.00    -0.283 OA
BRANCH   3   4
ATOM      4  P   UNL     1       5.622  -6.055  28.474  0.00  0.00    +0.475 P 
ATOM      5  O   UNL     1       6.241  -5.575  29.697  0.00  0.00    -0.227 OA
BRANCH   4   6
ATOM      6  O   UNL     1       5.446  -7.664  28.531  0.00  0.00    -0.302 OA
ATOM      7  H   UNL     1       5.881  -8.115  27.804  0.00  0.00    +0.222 HD
ENDBRANCH   4   6
BRANCH   4   8
ATOM      8  O   UNL     1       4.005  -5.592  28.186  0.00  0.00    -0.281 OA
BRANCH   8   9
ATOM      9  C   UNL     1       3.250  -6.173  27.084  0.00  0.00    +0.223 C 
BRANCH   9  10
ATOM     10  C   UNL     1       2.887  -5.536  25.453  0.00  0.00    +0.161 C 
BRANCH  10  11
ATOM     11  N   UNL     1       3.742  -5.671  24.012  0.00  0.00    +0.239 N 
ATOM     12  C   UNL     1       4.165  -4.308  23.429  0.00  0.00    +0.192 C 
ATOM     13  C   UNL     1       2.713  -6.169  23.074  0.00  0.00    +0.192 C 
ATOM     14  C   UNL     1       5.117  -6.436  23.859  0.00  0.00    +0.192 C 
ENDBRANCH  10  11
ENDBRANCH   9  10
ENDBRANCH   8   9
ENDBRANCH   4   8
ENDBRANCH   3   4
ENDBRANCH   2   3
ENDBRANCH   1   2
BRANCH   1  15
ATOM     15  C   UNL     1       6.225  -3.167  26.352  0.00  0.00    +0.279 C 
BRANCH  15  16
ATOM     16  O   UNL     1       6.207  -1.945  27.135  0.00  0.00    -0.461 OA
BRANCH  16  17
ATOM     17  C   UNL     1       4.953  -1.555  27.542  0.00  0.00    +0.307 C 
ATOM     18  O   UNL     1       4.711  -0.844  28.521  0.00  0.00    -0.251 OA
BRANCH  17  19
ATOM     19  C   UNL     1       3.877  -2.060  26.586  0.00  0.00    +0.120 C 
BRANCH  19  20
ATOM     20  C   UNL     1       2.580  -2.370  27.294  0.00  0.00    +0.011 C 
BRANCH  20  21
ATOM     21  C   UNL     1       1.518  -1.293  27.060  0.00  0.00    +0.001 C 
BRANCH  21  22
ATOM     22  C   UNL     1       1.110  -0.644  28.377  0.00  0.00    +0.000 C 
BRANCH  22  23
ATOM     23  C   UNL     1       1.517   0.825  28.413  0.00  0.00    +0.000 C 
BRANCH  23  24
ATOM     24  C   UNL     1       2.184   1.233  27.102  0.00  0.00    +0.004 C 
BRANCH  24  25
ATOM     25  C   UNL     1       1.459   2.420  26.470  0.00  0.00    +0.027 C 
BRANCH  25  27
ATOM     26  C   UNL     1       3.309   3.829  27.386  0.00  0.00    -0.031 C 
ATOM     27  C   UNL     1       2.055   3.718  26.923  0.00  0.00    -0.031 C 
BRANCH  26  28
ATOM     28  C   UNL     1       3.930   5.125  27.816  0.00  0.00    +0.027 C 
BRANCH  28  29
ATOM     29  C   UNL     1       5.217   4.868  28.598  0.00  0.00    +0.004 C 
BRANCH  29  30
ATOM     30  C   UNL     1       5.443   3.371  28.800  0.00  0.00    +0.000 C 
BRANCH  30  31
ATOM     31  C   UNL     1       6.890   2.989  28.485  0.00  0.00    +0.000 C 
BRANCH  31  32
ATOM     32  C   UNL     1       6.933   1.707  27.652  0.00  0.00    -0.000 C 
BRANCH  32  33
ATOM     33  C   UNL     1       6.198   1.904  26.314  0.00  0.00    -0.000 C 
BRANCH  33  35
ATOM     34  C   UNL     1       6.135   0.243  24.433  0.00  0.00    +0.004 C 
ATOM     35  C   UNL     1       6.983   1.266  25.167  0.00  0.00    -0.003 C 
ENDBRANCH  33  35
ENDBRANCH  32  33
ENDBRANCH  31  32
ENDBRANCH  30  31
ENDBRANCH  29  30
ENDBRANCH  28  29
ENDBRANCH  26  28
ENDBRANCH  25  27
ENDBRANCH  24  25
ENDBRANCH  23  24
ENDBRANCH  22  23
ENDBRANCH  21  22
ENDBRANCH  20  21
ENDBRANCH  19  20
ENDBRANCH  17  19
ENDBRANCH  16  17
ENDBRANCH  15  16
ENDBRANCH   1  15
BRANCH   1  36
ATOM     36  O   UNL     1       7.853  -3.832  24.741  0.00  0.00    -0.456 OA
BRANCH  36  37
ATOM     37  C   UNL     1       9.157  -3.583  24.313  0.00  0.00    +0.308 C 
ATOM     38  O   UNL     1      10.104  -4.299  24.534  0.00  0.00    -0.251 OA
BRANCH  37  39
ATOM     39  C   UNL     1       9.291  -2.300  23.487  0.00  0.00    +0.120 C 
BRANCH  39  40
ATOM     40  C   UNL     1       9.694  -1.090  24.370  0.00  0.00    +0.011 C 
BRANCH  40  41
ATOM     41  C   UNL     1      10.636  -0.134  23.668  0.00  0.00    +0.001 C 
BRANCH  41  42
ATOM     42  C   UNL     1      10.657   1.209  24.377  0.00  0.00    +0.000 C 
BRANCH  42  43
ATOM     43  C   UNL     1      10.242   2.302  23.436  0.00  0.00    +0.000 C 
BRANCH  43  44
ATOM     44  C   UNL     1      10.001   1.735  22.050  0.00  0.00    +0.004 C 
BRANCH  44  45
ATOM     45  C   UNL     1       8.528   1.803  21.605  0.00  0.00    +0.027 C 
BRANCH  45  46
ATOM     46  C   UNL     1       7.226   2.658  21.846  0.00  0.00    -0.031 C 
ATOM     47  C   UNL     1       7.153   3.854  22.470  0.00  0.00    -0.031 C 
BRANCH  47  48
ATOM     48  C   UNL     1       6.202   5.012  22.885  0.00  0.00    +0.027 C 
BRANCH  48  49
ATOM     49  C   UNL     1       5.728   5.153  24.378  0.00  0.00    +0.004 C 
BRANCH  49  50
ATOM     50  C   UNL     1       6.573   5.976  25.353  0.00  0.00    +0.000 C 
BRANCH  50  51
ATOM     51  C   UNL     1       7.853   5.190  25.735  0.00  0.00    +0.000 C 
BRANCH  51  52
ATOM     52  C   UNL     1       9.025   6.143  25.939  0.00  0.00    -0.000 C 
BRANCH  52  53
ATOM     53  C   UNL     1       9.338   6.991  24.703  0.00  0.00    -0.000 C 
BRANCH  53  54
ATOM     54  C   UNL     1       9.895   6.086  23.602  0.00  0.00    -0.003 C 
ATOM     55  C   UNL     1      11.383   5.837  23.756  0.00  0.00    +0.004 C 
ENDBRANCH  53  54
ENDBRANCH  52  53
ENDBRANCH  51  52
ENDBRANCH  50  51
ENDBRANCH  49  50
ENDBRANCH  48  49
ENDBRANCH  47  48
ENDBRANCH  45  46
ENDBRANCH  44  45
ENDBRANCH  43  44
ENDBRANCH  42  43
ENDBRANCH  41  42
ENDBRANCH  40  41
ENDBRANCH  39  40
ENDBRANCH  37  39
ENDBRANCH  36  37
ENDBRANCH   1  36
TORSDOF 43
ENDMDL
MODEL 2
REMARK VINA RESULT:      -4.3      3.258      8.385
REMARK  Name = 
REMARK  48 active torsions:
REMARK  status: ('A' for Active; 'I' for Inactive)
REMARK    1  A    between atoms: C_1  and  C_2
REMARK    2  A    between atoms: C_2  and  C_3
REMARK    3  A    between atoms: C_3  and  C_4
REMARK    4  A    between atoms: C_4  and  C_5
REMARK    5  A    between atoms: C_5  and  C_6
REMARK    6  A    between atoms: C_6  and  C_7
REMARK    7  A    between atoms: C_7  and  C_8
REMARK    8  A    between atoms: C_8  and  C_9
REMARK    9  A    between atoms: C_10  and  C_11
REMARK   10  A    between atoms: C_11  and  C_12
REMARK   11  A    between atoms: C_12  and  C_13
REMARK   12  A    between atoms: C_13  and  C_14
REMARK   13  A    between atoms: C_14  and  C_15
REMARK   14  A    between atoms: C_15  and  C_16
REMARK   15  A    between atoms: C_16  and  C_17
REMARK   16  A    between atoms: C_17  and  C_18
REMARK   17  A    between atoms: C_18  and  O_20
REMARK   18  A    between atoms: O_20  and  C_21
REMARK   19  A    between atoms: C_21  and  C_22
REMARK   20  A    between atoms: C_22  and  C_24
REMARK   21  A    between atoms: C_22  and  O_36
REMARK   22  A    between atoms: C_24  and  O_25
REMARK   23  A    between atoms: O_25  and  P_26
REMARK   24  A    between atoms: P_26  and  O_28
REMARK   25  A    between atoms: P_26  and  O_29
REMARK   26  A    between atoms: O_29  and  C_30
REMARK   27  A    between atoms: C_30  and  C_31
REMARK   28  A    between atoms: C_31  and  N_32
REMARK   29  A    between atoms: N_32  and  C_33
REMARK   30  A    between atoms: N_32  and  C_34
REMARK   31  A    between atoms: N_32  and  C_35
REMARK   32  A    between atoms: O_36  and  C_37
REMARK   33  A    between atoms: C_37  and  C_39
REMARK   34  A    between atoms: C_39  and  C_40
REMARK   35  A    between atoms: C_40  and  C_41
REMARK   36  A    between atoms: C_41  and  C_42
REMARK   37  A    between atoms: C_42  and  C_43
REMARK   38  A    between atoms: C_43  and  C_44
REMARK   39  A    between atoms: C_44  and  C_45
REMARK   40  A    between atoms: C_45  and  C_46
REMARK   41  A    between atoms: C_47  and  C_48
REMARK   42  A    between atoms: C_48  and  C_49
REMARK   43  A    between atoms: C_49  and  C_50
REMARK   44  A    between atoms: C_50  and  C_51
REMARK   45  A    between atoms: C_51  and  C_52
REMARK   46  A    between atoms: C_52  and  C_53
REMARK   47  A    between atoms: C_53  and  C_54
REMARK   48  A    between atoms: C_54  and  C_55
REMARK                            x       y       z     vdW  Elec       q    Type
REMARK                         _______ _______ _______ _____ _____    ______ ____
ROOT
ATOM      1  C   UNL     1       9.441  -1.256  24.371  0.00  0.00    +0.240 C 
ENDROOT
BRANCH   1   2
ATOM      2  C   UNL     1      10.237  -0.525  23.171  0.00  0.00    +0.220 C 
BRANCH   2   3
ATOM      3  O   UNL     1      10.885   0.745  23.559  0.00  0.00    -0.283 OA
BRANCH   3   4
ATOM      4  P   UNL     1      10.221   2.225  23.474  0.00  0.00    +0.475 P 
ATOM      5  O   UNL     1      11.138   3.351  23.432  0.00  0.00    -0.227 OA
BRANCH   4   6
ATOM      6  O   UNL     1       9.375   2.246  24.854  0.00  0.00    -0.302 OA
ATOM      7  H   UNL     1       9.901   2.509  25.613  0.00  0.00    +0.222 HD
ENDBRANCH   4   6
BRANCH   4   8
ATOM      8  O   UNL     1       8.943   2.217  22.345  0.00  0.00    -0.281 OA
BRANCH   8   9
ATOM      9  C   UNL     1       7.680   2.878  22.646  0.00  0.00    +0.223 C 
BRANCH   9  10
ATOM     10  C   UNL     1       7.090   4.514  22.231  0.00  0.00    +0.161 C 
BRANCH  10  11
ATOM     11  N   UNL     1       7.484   6.014  22.879  0.00  0.00    +0.239 N 
ATOM     12  C   UNL     1       6.756   6.310  24.206  0.00  0.00    +0.192 C 
ATOM     13  C   UNL     1       6.877   6.952  21.910  0.00  0.00    +0.192 C 
ATOM     14  C   UNL     1       8.944   6.447  23.303  0.00  0.00    +0.192 C 
ENDBRANCH  10  11
ENDBRANCH   9  10
ENDBRANCH   8   9
ENDBRANCH   4   8
ENDBRANCH   3   4
ENDBRANCH   2   3
ENDBRANCH   1   2
BRANCH   1  15
ATOM     15  C   UNL     1       8.845  -2.609  23.905  0.00  0.00    +0.279 C 
BRANCH  15  16
ATOM     16  O   UNL     1       9.733  -3.728  24.160  0.00  0.00    -0.461 OA
BRANCH  16  17
ATOM     17  C   UNL     1       9.365  -4.507  25.231  0.00  0.00    +0.307 C 
ATOM     18  O   UNL     1      10.121  -5.247  25.867  0.00  0.00    -0.251 OA
BRANCH  17  19
ATOM     19  C   UNL     1       7.897  -4.298  25.591  0.00  0.00    +0.120 C 
BRANCH  19  20
ATOM     20  C   UNL     1       7.082  -5.559  25.430  0.00  0.00    +0.011 C 
BRANCH  20  21
ATOM     21  C   UNL     1       5.927  -5.636  26.431  0.00  0.00    +0.001 C 
BRANCH  21  22
ATOM     22  C   UNL     1       6.447  -5.542  27.860  0.00  0.00    +0.000 C 
BRANCH  22  23
ATOM     23  C   UNL     1       5.428  -6.096  28.851  0.00  0.00    +0.000 C 
BRANCH  23  24
ATOM     24  C   UNL     1       4.621  -4.965  29.486  0.00  0.00    +0.004 C 
BRANCH  24  25
ATOM     25  C   UNL     1       3.130  -5.293  29.484  0.00  0.00    +0.027 C 
BRANCH  25  27
ATOM     26  C   UNL     1       1.847  -5.630  27.365  0.00  0.00    -0.031 C 
ATOM     27  C   UNL     1       2.750  -6.065  28.257  0.00  0.00    -0.031 C 
BRANCH  26  28
ATOM     28  C   UNL     1       1.477  -6.377  26.118  0.00  0.00    +0.027 C 
BRANCH  28  29
ATOM     29  C   UNL     1       2.662  -6.431  25.155  0.00  0.00    +0.004 C 
BRANCH  29  30
ATOM     30  C   UNL     1       2.775  -5.134  24.356  0.00  0.00    +0.000 C 
BRANCH  30  31
ATOM     31  C   UNL     1       3.890  -5.228  23.314  0.00  0.00    +0.000 C 
BRANCH  31  32
ATOM     32  C   UNL     1       4.688  -3.924  23.269  0.00  0.00    -0.000 C 
BRANCH  32  33
ATOM     33  C   UNL     1       5.728  -3.962  22.135  0.00  0.00    -0.000 C 
BRANCH  33  35
ATOM     34  C   UNL     1       7.328  -5.886  21.926  0.00  0.00    +0.004 C 
ATOM     35  C   UNL     1       5.923  -5.392  21.629  0.00  0.00    -0.003 C 
ENDBRANCH  33  35
ENDBRANCH  32  33
ENDBRANCH  31  32
ENDBRANCH  30  31
ENDBRANCH  29  30
ENDBRANCH  28  29
ENDBRANCH  26  28
ENDBRANCH  25  27
ENDBRANCH  24  25
ENDBRANCH  23  24
ENDBRANCH  22  23
ENDBRANCH  21  22
ENDBRANCH  20  21
ENDBRANCH  19  20
ENDBRANCH  17  19
ENDBRANCH  16  17
ENDBRANCH  15  16
ENDBRANCH   1  15
BRANCH   1  36
ATOM     36  O   UNL     1       8.261  -0.505  24.866  0.00  0.00    -0.456 OA
BRANCH  36  37
ATOM     37  C   UNL     1       7.098  -0.673  24.115  0.00  0.00    +0.308 C 
ATOM     38  O   UNL     1       7.027  -0.547  22.916  0.00  0.00    -0.251 OA
BRANCH  37  39
ATOM     39  C   UNL     1       5.882  -1.071  24.958  0.00  0.00    +0.120 C 
BRANCH  39  40
ATOM     40  C   UNL     1       6.228  -1.132  26.469  0.00  0.00    +0.011 C 
BRANCH  40  41
ATOM     41  C   UNL     1       5.330  -2.073  27.244  0.00  0.00    +0.001 C 
BRANCH  41  42
ATOM     42  C   UNL     1       4.029  -2.304  26.495  0.00  0.00    +0.000 C 
BRANCH  42  43
ATOM     43  C   UNL     1       2.866  -2.265  27.444  0.00  0.00    +0.000 C 
BRANCH  43  44
ATOM     44  C   UNL     1       2.007  -1.046  27.167  0.00  0.00    +0.004 C 
BRANCH  44  45
ATOM     45  C   UNL     1       2.259   0.119  28.142  0.00  0.00    +0.027 C 
BRANCH  45  46
ATOM     46  C   UNL     1       3.354   0.644  29.148  0.00  0.00    -0.031 C 
ATOM     47  C   UNL     1       4.587   1.095  28.831  0.00  0.00    -0.031 C 
BRANCH  47  48
ATOM     48  C   UNL     1       5.899   1.704  29.401  0.00  0.00    +0.027 C 
BRANCH  48  49
ATOM     49  C   UNL     1       6.787   2.650  28.510  0.00  0.00    +0.004 C 
BRANCH  49  50
ATOM     50  C   UNL     1       6.105   3.604  27.527  0.00  0.00    +0.000 C 
BRANCH  50  51
ATOM     51  C   UNL     1       6.292   3.090  26.077  0.00  0.00    +0.000 C 
BRANCH  51  52
ATOM     52  C   UNL     1       5.040   2.362  25.602  0.00  0.00    -0.000 C 
BRANCH  52  53
ATOM     53  C   UNL     1       3.983   3.297  25.008  0.00  0.00    -0.000 C 
BRANCH  53  54
ATOM     54  C   UNL     1       2.628   2.996  25.649  0.00  0.00    -0.003 C 
ATOM     55  C   UNL     1       2.472   3.654  27.007  0.00  0.00    +0.004 C 
ENDBRANCH  53  54
ENDBRANCH  52  53
ENDBRANCH  51  52
ENDBRANCH  50  51
ENDBRANCH  49  50
ENDBRANCH  48  49
ENDBRANCH  47  48
ENDBRANCH  45  46
ENDBRANCH  44  45
ENDBRANCH  43  44
ENDBRANCH  42  43
ENDBRANCH  41  42
ENDBRANCH  40  41
ENDBRANCH  39  40
ENDBRANCH  37  39
ENDBRANCH  36  37
ENDBRANCH   1  36
TORSDOF 43
ENDMDL
MODEL 3
REMARK VINA RESULT:      -4.2      2.228      5.173
REMARK  Name = 
REMARK  48 active torsions:
REMARK  status: ('A' for Active; 'I' for Inactive)
REMARK    1  A    between atoms: C_1  and  C_2
REMARK    2  A    between atoms: C_2  and  C_3
REMARK    3  A    between atoms: C_3  and  C_4
REMARK    4  A    between atoms: C_4  and  C_5
REMARK    5  A    between atoms: C_5  and  C_6
REMARK    6  A    between atoms: C_6  and  C_7
REMARK    7  A    between atoms: C_7  and  C_8
REMARK    8  A    between atoms: C_8  and  C_9
REMARK    9  A    between atoms: C_10  and  C_11
REMARK   10  A    between atoms: C_11  and  C_12
REMARK   11  A    between atoms: C_12  and  C_13
REMARK   12  A    between atoms: C_13  and  C_14
REMARK   13  A    between atoms: C_14  and  C_15
REMARK   14  A    between atoms: C_15  and  C_16
REMARK   15  A    between atoms: C_16  and  C_17
REMARK   16  A    between atoms: C_17  and  C_18
REMARK   17  A    between atoms: C_18  and  O_20
REMARK   18  A    between atoms: O_20  and  C_21
REMARK   19  A    between atoms: C_21  and  C_22
REMARK   20  A    between atoms: C_22  and  C_24
REMARK   21  A    between atoms: C_22  and  O_36
REMARK   22  A    between atoms: C_24  and  O_25
REMARK   23  A    between atoms: O_25  and  P_26
REMARK   24  A    between atoms: P_26  and  O_28
REMARK   25  A    between atoms: P_26  and  O_29
REMARK   26  A    between atoms: O_29  and  C_30
REMARK   27  A    between atoms: C_30  and  C_31
REMARK   28  A    between atoms: C_31  and  N_32
REMARK   29  A    between atoms: N_32  and  C_33
REMARK   30  A    between atoms: N_32  and  C_34
REMARK   31  A    between atoms: N_32  and  C_35
REMARK   32  A    between atoms: O_36  and  C_37
REMARK   33  A    between atoms: C_37  and  C_39
REMARK   34  A    between atoms: C_39  and  C_40
REMARK   35  A    between atoms: C_40  and  C_41
REMARK   36  A    between atoms: C_41  and  C_42
REMARK   37  A    between atoms: C_42  and  C_43
REMARK   38  A    between atoms: C_43  and  C_44
REMARK   39  A    between atoms: C_44  and  C_45
REMARK   40  A    between atoms: C_45  and  C_46
REMARK   41  A    between atoms: C_47  and  C_48
REMARK   42  A    between atoms: C_48  and  C_49
REMARK   43  A    between atoms: C_49  and  C_50
REMARK   44  A    between atoms: C_50  and  C_51
REMARK   45  A    between atoms: C_51  and  C_52
REMARK   46  A    between atoms: C_52  and  C_53
REMARK   47  A    between atoms: C_53  and  C_54
REMARK   48  A    between atoms: C_54  and  C_55
REMARK                            x       y       z     vdW  Elec       q    Type
REMARK                         _______ _______ _______ _____ _____    ______ ____
ROOT
ATOM      1  C   UNL     1       2.639  -5.894  27.824  0.00  0.00    +0.240 C 
ENDROOT
BRANCH   1   2
ATOM      2  C   UNL     1       1.509  -6.412  26.795  0.00  0.00    +0.220 C 
BRANCH   2   3
ATOM      3  O   UNL     1       1.665  -7.822  26.382  0.00  0.00    -0.283 OA
BRANCH   3   4
ATOM      4  P   UNL     1       2.081  -8.346  24.902  0.00  0.00    +0.475 P 
ATOM      5  O   UNL     1       1.101  -8.167  23.845  0.00  0.00    -0.227 OA
BRANCH   4   6
ATOM      6  O   UNL     1       2.299  -9.922  25.200  0.00  0.00    -0.302 OA
ATOM      7  H   UNL     1       2.682 -10.092  26.064  0.00  0.00    +0.222 HD
ENDBRANCH   4   6
BRANCH   4   8
ATOM      8  O   UNL     1       3.688  -7.886  24.561  0.00  0.00    -0.281 OA
BRANCH   8   9
ATOM      9  C   UNL     1       3.969  -6.685  23.786  0.00  0.00    +0.223 C 
BRANCH   9  10
ATOM     10  C   UNL     1       5.351  -5.553  23.847  0.00  0.00    +0.161 C 
BRANCH  10  11
ATOM     11  N   UNL     1       6.137  -4.720  22.615  0.00  0.00    +0.239 N 
ATOM     12  C   UNL     1       6.181  -5.503  21.288  0.00  0.00    +0.192 C 
ATOM     13  C   UNL     1       7.540  -4.706  23.081  0.00  0.00    +0.192 C 
ATOM     14  C   UNL     1       5.675  -3.317  22.051  0.00  0.00    +0.192 C 
ENDBRANCH  10  11
ENDBRANCH   9  10
ENDBRANCH   8   9
ENDBRANCH   4   8
ENDBRANCH   3   4
ENDBRANCH   2   3
ENDBRANCH   1   2
BRANCH   1  15
ATOM     15  C   UNL     1       2.655  -4.346  27.908  0.00  0.00    +0.279 C 
BRANCH  15  16
ATOM     16  O   UNL     1       2.822  -3.718  26.610  0.00  0.00    -0.461 OA
BRANCH  16  17
ATOM     17  C   UNL     1       2.367  -2.423  26.547  0.00  0.00    +0.307 C 
ATOM     18  O   UNL     1       1.309  -2.064  26.024  0.00  0.00    -0.251 OA
BRANCH  17  19
ATOM     19  C   UNL     1       3.310  -1.468  27.273  0.00  0.00    +0.120 C 
BRANCH  19  20
ATOM     20  C   UNL     1       2.733  -0.078  27.400  0.00  0.00    +0.011 C 
BRANCH  20  21
ATOM     21  C   UNL     1       3.557   0.810  28.334  0.00  0.00    +0.001 C 
BRANCH  21  22
ATOM     22  C   UNL     1       3.768   2.188  27.719  0.00  0.00    +0.000 C 
BRANCH  22  23
ATOM     23  C   UNL     1       3.520   2.160  26.214  0.00  0.00    +0.000 C 
BRANCH  23  24
ATOM     24  C   UNL     1       3.122   3.544  25.706  0.00  0.00    +0.004 C 
BRANCH  24  25
ATOM     25  C   UNL     1       3.546   3.732  24.251  0.00  0.00    +0.027 C 
BRANCH  25  27
ATOM     26  C   UNL     1       5.092   5.260  23.017  0.00  0.00    -0.031 C 
ATOM     27  C   UNL     1       4.737   4.636  24.150  0.00  0.00    -0.031 C 
BRANCH  26  28
ATOM     28  C   UNL     1       6.263   6.190  22.906  0.00  0.00    +0.027 C 
BRANCH  28  29
ATOM     29  C   UNL     1       7.465   5.468  22.296  0.00  0.00    +0.004 C 
BRANCH  29  30
ATOM     30  C   UNL     1       8.388   4.930  23.387  0.00  0.00    +0.000 C 
BRANCH  30  31
ATOM     31  C   UNL     1       8.470   5.903  24.564  0.00  0.00    +0.000 C 
BRANCH  31  32
ATOM     32  C   UNL     1       8.259   5.160  25.885  0.00  0.00    -0.000 C 
BRANCH  32  33
ATOM     33  C   UNL     1       7.133   5.817  26.703  0.00  0.00    -0.000 C 
BRANCH  33  35
ATOM     34  C   UNL     1       6.747   4.651  28.893  0.00  0.00    +0.004 C 
ATOM     35  C   UNL     1       6.314   4.757  27.442  0.00  0.00    -0.003 C 
ENDBRANCH  33  35
ENDBRANCH  32  33
ENDBRANCH  31  32
ENDBRANCH  30  31
ENDBRANCH  29  30
ENDBRANCH  28  29
ENDBRANCH  26  28
ENDBRANCH  25  27
ENDBRANCH  24  25
ENDBRANCH  23  24
ENDBRANCH  22  23
ENDBRANCH  21  22
ENDBRANCH  20  21
ENDBRANCH  19  20
ENDBRANCH  17  19
ENDBRANCH  16  17
ENDBRANCH  15  16
ENDBRANCH   1  15
BRANCH   1  36
ATOM     36  O   UNL     1       4.028  -6.236  27.427  0.00  0.00    -0.456 OA
BRANCH  36  37
ATOM     37  C   UNL     1       4.887  -6.533  28.484  0.00  0.00    +0.308 C 
ATOM     38  O   UNL     1       4.606  -7.235  29.425  0.00  0.00    -0.251 OA
BRANCH  37  39
ATOM     39  C   UNL     1       6.273  -5.898  28.337  0.00  0.00    +0.120 C 
BRANCH  39  40
ATOM     40  C   UNL     1       6.401  -5.102  27.012  0.00  0.00    +0.011 C 
BRANCH  40  41
ATOM     41  C   UNL     1       6.250  -3.607  27.202  0.00  0.00    +0.001 C 
BRANCH  41  42
ATOM     42  C   UNL     1       7.298  -2.859  26.397  0.00  0.00    +0.000 C 
BRANCH  42  43
ATOM     43  C   UNL     1       6.756  -1.537  25.936  0.00  0.00    +0.000 C 
BRANCH  43  44
ATOM     44  C   UNL     1       6.904  -0.501  27.035  0.00  0.00    +0.004 C 
BRANCH  44  45
ATOM     45  C   UNL     1       7.141   0.926  26.508  0.00  0.00    +0.027 C 
BRANCH  45  46
ATOM     46  C   UNL     1       6.847   1.816  25.240  0.00  0.00    -0.031 C 
ATOM     47  C   UNL     1       6.817   1.400  23.955  0.00  0.00    -0.031 C 
BRANCH  47  48
ATOM     48  C   UNL     1       6.557   1.838  22.486  0.00  0.00    +0.027 C 
BRANCH  48  49
ATOM     49  C   UNL     1       7.735   1.856  21.442  0.00  0.00    +0.004 C 
BRANCH  49  50
ATOM     50  C   UNL     1       9.135   1.432  21.892  0.00  0.00    +0.000 C 
BRANCH  50  51
ATOM     51  C   UNL     1       9.355  -0.072  21.583  0.00  0.00    +0.000 C 
BRANCH  51  52
ATOM     52  C   UNL     1      10.399  -0.663  22.524  0.00  0.00    -0.000 C 
BRANCH  52  53
ATOM     53  C   UNL     1       9.796  -1.266  23.796  0.00  0.00    -0.000 C 
BRANCH  53  54
ATOM     54  C   UNL     1      10.041  -0.315  24.968  0.00  0.00    -0.003 C 
ATOM     55  C   UNL     1      11.177   0.654  24.698  0.00  0.00    +0.004 C 
ENDBRANCH  53  54
ENDBRANCH  52  53
ENDBRANCH  51  52
ENDBRANCH  50  51
ENDBRANCH  49  50
ENDBRANCH  48  49
ENDBRANCH  47  48
ENDBRANCH  45  46
ENDBRANCH  44  45
ENDBRANCH  43  44
ENDBRANCH  42  43
ENDBRANCH  41  42
ENDBRANCH  40  41
ENDBRANCH  39  40
ENDBRANCH  37  39
ENDBRANCH  36  37
ENDBRANCH   1  36
TORSDOF 43
ENDMDL
MODEL 4
REMARK VINA RESULT:      -4.2      2.743      5.412
REMARK  Name = 
REMARK  48 active torsions:
REMARK  status: ('A' for Active; 'I' for Inactive)
REMARK    1  A    between atoms: C_1  and  C_2
REMARK    2  A    between atoms: C_2  and  C_3
REMARK    3  A    between atoms: C_3  and  C_4
REMARK    4  A    between atoms: C_4  and  C_5
REMARK    5  A    between atoms: C_5  and  C_6
REMARK    6  A    between atoms: C_6  and  C_7
REMARK    7  A    between atoms: C_7  and  C_8
REMARK    8  A    between atoms: C_8  and  C_9
REMARK    9  A    between atoms: C_10  and  C_11
REMARK   10  A    between atoms: C_11  and  C_12
REMARK   11  A    between atoms: C_12  and  C_13
REMARK   12  A    between atoms: C_13  and  C_14
REMARK   13  A    between atoms: C_14  and  C_15
REMARK   14  A    between atoms: C_15  and  C_16
REMARK   15  A    between atoms: C_16  and  C_17
REMARK   16  A    between atoms: C_17  and  C_18
REMARK   17  A    between atoms: C_18  and  O_20
REMARK   18  A    between atoms: O_20  and  C_21
REMARK   19  A    between atoms: C_21  and  C_22
REMARK   20  A    between atoms: C_22  and  C_24
REMARK   21  A    between atoms: C_22  and  O_36
REMARK   22  A    between atoms: C_24  and  O_25
REMARK   23  A    between atoms: O_25  and  P_26
REMARK   24  A    between atoms: P_26  and  O_28
REMARK   25  A    between atoms: P_26  and  O_29
REMARK   26  A    between atoms: O_29  and  C_30
REMARK   27  A    between atoms: C_30  and  C_31
REMARK   28  A    between atoms: C_31  and  N_32
REMARK   29  A    between atoms: N_32  and  C_33
REMARK   30  A    between atoms: N_32  and  C_34
REMARK   31  A    between atoms: N_32  and  C_35
REMARK   32  A    between atoms: O_36  and  C_37
REMARK   33  A    between atoms: C_37  and  C_39
REMARK   34  A    between atoms: C_39  and  C_40
REMARK   35  A    between atoms: C_40  and  C_41
REMARK   36  A    between atoms: C_41  and  C_42
REMARK   37  A    between atoms: C_42  and  C_43
REMARK   38  A    between atoms: C_43  and  C_44
REMARK   39  A    between atoms: C_44  and  C_45
REMARK   40  A    between atoms: C_45  and  C_46
REMARK   41  A    between atoms: C_47  and  C_48
REMARK   42  A    between atoms: C_48  and  C_49
REMARK   43  A    between atoms: C_49  and  C_50
REMARK   44  A    between atoms: C_50  and  C_51
REMARK   45  A    between atoms: C_51  and  C_52
REMARK   46  A    between atoms: C_52  and  C_53
REMARK   47  A    between atoms: C_53  and  C_54
REMARK   48  A    between atoms: C_54  and  C_55
REMARK                            x       y       z     vdW  Elec       q    Type
REMARK                         _______ _______ _______ _____ _____    ______ ____
ROOT
ATOM      1  C   UNL     1       8.576  -2.909  24.972  0.00  0.00    +0.240 C 
ENDROOT
BRANCH   1   2
ATOM      2  C   UNL     1       8.199  -4.132  23.989  0.00  0.00    +0.220 C 
BRANCH   2   3
ATOM      3  O   UNL     1       7.591  -3.716  22.708  0.00  0.00    -0.283 OA
BRANCH   3   4
ATOM      4  P   UNL     1       6.026  -3.364  22.461  0.00  0.00    +0.475 P 
ATOM      5  O   UNL     1       5.526  -3.521  21.106  0.00  0.00    -0.227 OA
BRANCH   4   6
ATOM      6  O   UNL     1       6.005  -1.802  22.885  0.00  0.00    -0.302 OA
ATOM      7  H   UNL     1       6.735  -1.302  22.512  0.00  0.00    +0.222 HD
ENDBRANCH   4   6
BRANCH   4   8
ATOM      8  O   UNL     1       5.082  -4.024  23.720  0.00  0.00    -0.281 OA
BRANCH   8   9
ATOM      9  C   UNL     1       5.009  -5.465  23.917  0.00  0.00    +0.223 C 
BRANCH   9  10
ATOM     10  C   UNL     1       4.890  -6.435  25.415  0.00  0.00    +0.161 C 
BRANCH  10  11
ATOM     11  N   UNL     1       4.365  -6.007  26.954  0.00  0.00    +0.239 N 
ATOM     12  C   UNL     1       5.053  -6.814  28.074  0.00  0.00    +0.192 C 
ATOM     13  C   UNL     1       2.966  -6.486  26.961  0.00  0.00    +0.192 C 
ATOM     14  C   UNL     1       4.510  -4.561  27.576  0.00  0.00    +0.192 C 
ENDBRANCH  10  11
ENDBRANCH   9  10
ENDBRANCH   8   9
ENDBRANCH   4   8
ENDBRANCH   3   4
ENDBRANCH   2   3
ENDBRANCH   1   2
BRANCH   1  15
ATOM     15  C   UNL     1       7.576  -2.809  26.153  0.00  0.00    +0.279 C 
BRANCH  15  16
ATOM     16  O   UNL     1       6.522  -1.841  25.911  0.00  0.00    -0.461 OA
BRANCH  16  17
ATOM     17  C   UNL     1       6.257  -1.017  26.978  0.00  0.00    +0.307 C 
ATOM     18  O   UNL     1       5.232  -1.045  27.664  0.00  0.00    -0.251 OA
BRANCH  17  19
ATOM     19  C   UNL     1       7.432  -0.086  27.265  0.00  0.00    +0.120 C 
BRANCH  19  20
ATOM     20  C   UNL     1       7.225   1.293  26.687  0.00  0.00    +0.011 C 
BRANCH  20  21
ATOM     21  C   UNL     1       6.768   2.303  27.742  0.00  0.00    +0.001 C 
BRANCH  21  22
ATOM     22  C   UNL     1       7.020   3.729  27.267  0.00  0.00    +0.000 C 
BRANCH  22  23
ATOM     23  C   UNL     1       7.779   3.740  25.944  0.00  0.00    +0.000 C 
BRANCH  23  24
ATOM     24  C   UNL     1       7.972   5.169  25.443  0.00  0.00    +0.004 C 
BRANCH  24  25
ATOM     25  C   UNL     1       6.757   6.032  25.778  0.00  0.00    +0.027 C 
BRANCH  25  27
ATOM     26  C   UNL     1       4.598   6.223  24.531  0.00  0.00    -0.031 C 
ATOM     27  C   UNL     1       5.937   6.305  24.553  0.00  0.00    -0.031 C 
BRANCH  26  28
ATOM     28  C   UNL     1       3.762   6.521  23.323  0.00  0.00    +0.027 C 
BRANCH  28  29
ATOM     29  C   UNL     1       2.546   5.595  23.271  0.00  0.00    +0.004 C 
BRANCH  29  30
ATOM     30  C   UNL     1       2.608   4.684  22.047  0.00  0.00    +0.000 C 
BRANCH  30  31
ATOM     31  C   UNL     1       1.776   3.419  22.265  0.00  0.00    +0.000 C 
BRANCH  31  32
ATOM     32  C   UNL     1       1.407   2.786  20.923  0.00  0.00    -0.000 C 
BRANCH  32  33
ATOM     33  C   UNL     1       2.020   3.585  19.759  0.00  0.00    -0.000 C 
BRANCH  33  35
ATOM     34  C   UNL     1       1.477   4.712  17.582  0.00  0.00    +0.004 C 
ATOM     35  C   UNL     1       0.924   4.236  18.913  0.00  0.00    -0.003 C 
ENDBRANCH  33  35
ENDBRANCH  32  33
ENDBRANCH  31  32
ENDBRANCH  30  31
ENDBRANCH  29  30
ENDBRANCH  28  29
ENDBRANCH  26  28
ENDBRANCH  25  27
ENDBRANCH  24  25
ENDBRANCH  23  24
ENDBRANCH  22  23
ENDBRANCH  21  22
ENDBRANCH  20  21
ENDBRANCH  19  20
ENDBRANCH  17  19
ENDBRANCH  16  17
ENDBRANCH  15  16
ENDBRANCH   1  15
BRANCH   1  36
ATOM     36  O   UNL     1       8.500  -1.570  24.336  0.00  0.00    -0.456 OA
BRANCH  36  37
ATOM     37  C   UNL     1       9.731  -0.963  24.090  0.00  0.00    +0.308 C 
ATOM     38  O   UNL     1      10.323  -0.262  24.875  0.00  0.00    -0.251 OA
BRANCH  37  39
ATOM     39  C   UNL     1      10.306  -1.291  22.709  0.00  0.00    +0.120 C 
BRANCH  39  40
ATOM     40  C   UNL     1       9.486  -0.624  21.574  0.00  0.00    +0.011 C 
BRANCH  40  41
ATOM     41  C   UNL     1       9.587   0.887  21.581  0.00  0.00    +0.001 C 
BRANCH  41  42
ATOM     42  C   UNL     1       8.216   1.511  21.772  0.00  0.00    +0.000 C 
BRANCH  42  43
ATOM     43  C   UNL     1       8.335   2.825  22.489  0.00  0.00    +0.000 C 
BRANCH  43  44
ATOM     44  C   UNL     1       7.175   3.729  22.120  0.00  0.00    +0.004 C 
BRANCH  44  45
ATOM     45  C   UNL     1       5.803   3.179  22.555  0.00  0.00    +0.027 C 
BRANCH  45  46
ATOM     46  C   UNL     1       5.150   2.320  23.703  0.00  0.00    -0.031 C 
ATOM     47  C   UNL     1       4.422   2.786  24.742  0.00  0.00    -0.031 C 
BRANCH  47  48
ATOM     48  C   UNL     1       3.601   2.380  25.998  0.00  0.00    +0.027 C 
BRANCH  48  49
ATOM     49  C   UNL     1       2.795   3.465  26.805  0.00  0.00    +0.004 C 
BRANCH  49  50
ATOM     50  C   UNL     1       3.356   3.971  28.136  0.00  0.00    +0.000 C 
BRANCH  50  51
ATOM     51  C   UNL     1       3.821   5.443  27.986  0.00  0.00    +0.000 C 
BRANCH  51  52
ATOM     52  C   UNL     1       4.327   5.982  29.319  0.00  0.00    -0.000 C 
BRANCH  52  53
ATOM     53  C   UNL     1       4.763   4.882  30.291  0.00  0.00    -0.000 C 
BRANCH  53  54
ATOM     54  C   UNL     1       6.278   4.954  30.485  0.00  0.00    -0.003 C 
ATOM     55  C   UNL     1       6.858   6.275  30.017  0.00  0.00    +0.004 C 
ENDBRANCH  53  54
ENDBRANCH  52  53
ENDBRANCH  51  52
ENDBRANCH  50  51
ENDBRANCH  49  50
ENDBRANCH  48  49
ENDBRANCH  47  48
ENDBRANCH  45  46
ENDBRANCH  44  45
ENDBRANCH  43  44
ENDBRANCH  42  43
ENDBRANCH  41  42
ENDBRANCH  40  41
ENDBRANCH  39  40
ENDBRANCH  37  39
ENDBRANCH  36  37
ENDBRANCH   1  36
TORSDOF 43
ENDMDL
MODEL 5
REMARK VINA RESULT:      -4.2      3.995      9.140
REMARK  Name = 
REMARK  48 active torsions:
REMARK  status: ('A' for Active; 'I' for Inactive)
REMARK    1  A    between atoms: C_1  and  C_2
REMARK    2  A    between atoms: C_2  and  C_3
REMARK    3  A    between atoms: C_3  and  C_4
REMARK    4  A    between atoms: C_4  and  C_5
REMARK    5  A    between atoms: C_5  and  C_6
REMARK    6  A    between atoms: C_6  and  C_7
REMARK    7  A    between atoms: C_7  and  C_8
REMARK    8  A    between atoms: C_8  and  C_9
REMARK    9  A    between atoms: C_10  and  C_11
REMARK   10  A    between atoms: C_11  and  C_12
REMARK   11  A    between atoms: C_12  and  C_13
REMARK   12  A    between atoms: C_13  and  C_14
REMARK   13  A    between atoms: C_14  and  C_15
REMARK   14  A    between atoms: C_15  and  C_16
REMARK   15  A    between atoms: C_16  and  C_17
REMARK   16  A    between atoms: C_17  and  C_18
REMARK   17  A    between atoms: C_18  and  O_20
REMARK   18  A    between atoms: O_20  and  C_21
REMARK   19  A    between atoms: C_21  and  C_22
REMARK   20  A    between atoms: C_22  and  C_24
REMARK   21  A    between atoms: C_22  and  O_36
REMARK   22  A    between atoms: C_24  and  O_25
REMARK   23  A    between atoms: O_25  and  P_26
REMARK   24  A    between atoms: P_26  and  O_28
REMARK   25  A    between atoms: P_26  and  O_29
REMARK   26  A    between atoms: O_29  and  C_30
REMARK   27  A    between atoms: C_30  and  C_31
REMARK   28  A    between atoms: C_31  and  N_32
REMARK   29  A    between atoms: N_32  and  C_33
REMARK   30  A    between atoms: N_32  and  C_34
REMARK   31  A    between atoms: N_32  and  C_35
REMARK   32  A    between atoms: O_36  and  C_37
REMARK   33  A    between atoms: C_37  and  C_39
REMARK   34  A    between atoms: C_39  and  C_40
REMARK   35  A    between atoms: C_40  and  C_41
REMARK   36  A    between atoms: C_41  and  C_42
REMARK   37  A    between atoms: C_42  and  C_43
REMARK   38  A    between atoms: C_43  and  C_44
REMARK   39  A    between atoms: C_44  and  C_45
REMARK   40  A    between atoms: C_45  and  C_46
REMARK   41  A    between atoms: C_47  and  C_48
REMARK   42  A    between atoms: C_48  and  C_49
REMARK   43  A    between atoms: C_49  and  C_50
REMARK   44  A    between atoms: C_50  and  C_51
REMARK   45  A    between atoms: C_51  and  C_52
REMARK   46  A    between atoms: C_52  and  C_53
REMARK   47  A    between atoms: C_53  and  C_54
REMARK   48  A    between atoms: C_54  and  C_55
REMARK                            x       y       z     vdW  Elec       q    Type
REMARK                         _______ _______ _______ _____ _____    ______ ____
ROOT
ATOM      1  C   UNL     1       7.893   2.210  23.956  0.00  0.00    +0.240 C 
ENDROOT
BRANCH   1   2
ATOM      2  C   UNL     1       9.082   3.125  24.551  0.00  0.00    +0.220 C 
BRANCH   2   3
ATOM      3  O   UNL     1       9.597   4.140  23.608  0.00  0.00    -0.283 OA
BRANCH   3   4
ATOM      4  P   UNL     1       9.961   5.682  23.965  0.00  0.00    +0.475 P 
ATOM      5  O   UNL     1      11.369   5.999  24.134  0.00  0.00    -0.227 OA
BRANCH   4   6
ATOM      6  O   UNL     1       9.178   5.850  25.372  0.00  0.00    -0.302 OA
ATOM      7  H   UNL     1       8.284   5.503  25.347  0.00  0.00    +0.222 HD
ENDBRANCH   4   6
BRANCH   4   8
ATOM      8  O   UNL     1       9.038   6.731  22.987  0.00  0.00    -0.281 OA
BRANCH   8   9
ATOM      9  C   UNL     1       7.582   6.679  23.007  0.00  0.00    +0.223 C 
BRANCH   9  10
ATOM     10  C   UNL     1       6.455   5.354  22.595  0.00  0.00    +0.161 C 
BRANCH  10  11
ATOM     11  N   UNL     1       4.907   5.021  23.162  0.00  0.00    +0.239 N 
ATOM     12  C   UNL     1       3.935   6.205  22.997  0.00  0.00    +0.192 C 
ATOM     13  C   UNL     1       5.116   4.916  24.623  0.00  0.00    +0.192 C 
ATOM     14  C   UNL     1       3.981   3.868  22.602  0.00  0.00    +0.192 C 
ENDBRANCH  10  11
ENDBRANCH   9  10
ENDBRANCH   8   9
ENDBRANCH   4   8
ENDBRANCH   3   4
ENDBRANCH   2   3
ENDBRANCH   1   2
BRANCH   1  15
ATOM     15  C   UNL     1       6.902   1.785  25.070  0.00  0.00    +0.279 C 
BRANCH  15  16
ATOM     16  O   UNL     1       7.533   1.692  26.373  0.00  0.00    -0.461 OA
BRANCH  16  17
ATOM     17  C   UNL     1       6.796   2.240  27.397  0.00  0.00    +0.307 C 
ATOM     18  O   UNL     1       7.186   3.127  28.160  0.00  0.00    -0.251 OA
BRANCH  17  19
ATOM     19  C   UNL     1       5.386   1.657  27.439  0.00  0.00    +0.120 C 
BRANCH  19  20
ATOM     20  C   UNL     1       4.953   1.307  28.842  0.00  0.00    +0.011 C 
BRANCH  20  21
ATOM     21  C   UNL     1       3.435   1.378  29.017  0.00  0.00    +0.001 C 
BRANCH  21  22
ATOM     22  C   UNL     1       2.738   1.422  27.662  0.00  0.00    +0.000 C 
BRANCH  22  23
ATOM     23  C   UNL     1       1.609   0.400  27.593  0.00  0.00    +0.000 C 
BRANCH  23  24
ATOM     24  C   UNL     1       1.818  -0.708  28.622  0.00  0.00    +0.004 C 
BRANCH  24  25
ATOM     25  C   UNL     1       2.198  -2.021  27.941  0.00  0.00    +0.027 C 
BRANCH  25  27
ATOM     26  C   UNL     1       4.339  -1.835  26.663  0.00  0.00    -0.031 C 
ATOM     27  C   UNL     1       3.686  -2.140  27.794  0.00  0.00    -0.031 C 
BRANCH  26  28
ATOM     28  C   UNL     1       5.828  -1.921  26.509  0.00  0.00    +0.027 C 
BRANCH  28  29
ATOM     29  C   UNL     1       6.233  -1.653  25.059  0.00  0.00    +0.004 C 
BRANCH  29  30
ATOM     30  C   UNL     1       5.785  -2.794  24.149  0.00  0.00    +0.000 C 
BRANCH  30  31
ATOM     31  C   UNL     1       6.111  -2.487  22.686  0.00  0.00    +0.000 C 
BRANCH  31  32
ATOM     32  C   UNL     1       5.940  -3.741  21.827  0.00  0.00    -0.000 C 
BRANCH  32  33
ATOM     33  C   UNL     1       7.197  -4.626  21.904  0.00  0.00    -0.000 C 
BRANCH  33  35
ATOM     34  C   UNL     1       5.603  -6.235  22.989  0.00  0.00    +0.004 C 
ATOM     35  C   UNL     1       6.812  -6.096  22.081  0.00  0.00    -0.003 C 
ENDBRANCH  33  35
ENDBRANCH  32  33
ENDBRANCH  31  32
ENDBRANCH  30  31
ENDBRANCH  29  30
ENDBRANCH  28  29
ENDBRANCH  26  28
ENDBRANCH  25  27
ENDBRANCH  24  25
ENDBRANCH  23  24
ENDBRANCH  22  23
ENDBRANCH  21  22
ENDBRANCH  20  21
ENDBRANCH  19  20
ENDBRANCH  17  19
ENDBRANCH  16  17
ENDBRANCH  15  16
ENDBRANCH   1  15
BRANCH   1  36
ATOM     36  O   UNL     1       8.347   0.919  23.381  0.00  0.00    -0.456 OA
BRANCH  36  37
ATOM     37  C   UNL     1       8.489   0.909  21.994  0.00  0.00    +0.308 C 
ATOM     38  O   UNL     1       7.954   1.687  21.241  0.00  0.00    -0.251 OA
BRANCH  37  39
ATOM     39  C   UNL     1       9.433  -0.186  21.488  0.00  0.00    +0.120 C 
BRANCH  39  40
ATOM     40  C   UNL     1      10.228  -0.839  22.648  0.00  0.00    +0.011 C 
BRANCH  40  41
ATOM     41  C   UNL     1       9.813  -2.272  22.916  0.00  0.00    +0.001 C 
BRANCH  41  42
ATOM     42  C   UNL     1       9.580  -2.490  24.400  0.00  0.00    +0.000 C 
BRANCH  42  43
ATOM     43  C   UNL     1       9.410  -3.953  24.692  0.00  0.00    +0.000 C 
BRANCH  43  44
ATOM     44  C   UNL     1       8.826  -4.144  26.079  0.00  0.00    +0.004 C 
BRANCH  44  45
ATOM     45  C   UNL     1       7.773  -5.265  26.155  0.00  0.00    +0.027 C 
BRANCH  45  46
ATOM     46  C   UNL     1       6.413  -5.606  26.876  0.00  0.00    -0.031 C 
ATOM     47  C   UNL     1       6.064  -5.266  28.136  0.00  0.00    -0.031 C 
BRANCH  47  48
ATOM     48  C   UNL     1       4.928  -5.323  29.195  0.00  0.00    +0.027 C 
BRANCH  48  49
ATOM     49  C   UNL     1       4.249  -6.696  29.559  0.00  0.00    +0.004 C 
BRANCH  49  50
ATOM     50  C   UNL     1       2.851  -7.002  29.017  0.00  0.00    +0.000 C 
BRANCH  50  51
ATOM     51  C   UNL     1       2.189  -5.698  28.500  0.00  0.00    +0.000 C 
BRANCH  51  52
ATOM     52  C   UNL     1       1.546  -5.930  27.137  0.00  0.00    -0.000 C 
BRANCH  52  53
ATOM     53  C   UNL     1       2.548  -6.348  26.058  0.00  0.00    -0.000 C 
BRANCH  53  54
ATOM     54  C   UNL     1       3.226  -5.100  25.491  0.00  0.00    -0.003 C 
ATOM     55  C   UNL     1       2.455  -4.500  24.330  0.00  0.00    +0.004 C 
ENDBRANCH  53  54
ENDBRANCH  52  53
ENDBRANCH  51  52
ENDBRANCH  50  51
ENDBRANCH  49  50
ENDBRANCH  48  49
ENDBRANCH  47  48
ENDBRANCH  45  46
ENDBRANCH  44  45
ENDBRANCH  43  44
ENDBRANCH  42  43
ENDBRANCH  41  42
ENDBRANCH  40  41
ENDBRANCH  39  40
ENDBRANCH  37  39
ENDBRANCH  36  37
ENDBRANCH   1  36
TORSDOF 43
ENDMDL
MODEL 6
REMARK VINA RESULT:      -4.2      4.043      9.013
REMARK  Name = 
REMARK  48 active torsions:
REMARK  status: ('A' for Active; 'I' for Inactive)
REMARK    1  A    between atoms: C_1  and  C_2
REMARK    2  A    between atoms: C_2  and  C_3
REMARK    3  A    between atoms: C_3  and  C_4
REMARK    4  A    between atoms: C_4  and  C_5
REMARK    5  A    between atoms: C_5  and  C_6
REMARK    6  A    between atoms: C_6  and  C_7
REMARK    7  A    between atoms: C_7  and  C_8
REMARK    8  A    between atoms: C_8  and  C_9
REMARK    9  A    between atoms: C_10  and  C_11
REMARK   10  A    between atoms: C_11  and  C_12
REMARK   11  A    between atoms: C_12  and  C_13
REMARK   12  A    between atoms: C_13  and  C_14
REMARK   13  A    between atoms: C_14  and  C_15
REMARK   14  A    between atoms: C_15  and  C_16
REMARK   15  A    between atoms: C_16  and  C_17
REMARK   16  A    between atoms: C_17  and  C_18
REMARK   17  A    between atoms: C_18  and  O_20
REMARK   18  A    between atoms: O_20  and  C_21
REMARK   19  A    between atoms: C_21  and  C_22
REMARK   20  A    between atoms: C_22  and  C_24
REMARK   21  A    between atoms: C_22  and  O_36
REMARK   22  A    between atoms: C_24  and  O_25
REMARK   23  A    between atoms: O_25  and  P_26
REMARK   24  A    between atoms: P_26  and  O_28
REMARK   25  A    between atoms: P_26  and  O_29
REMARK   26  A    between atoms: O_29  and  C_30
REMARK   27  A    between atoms: C_30  and  C_31
REMARK   28  A    between atoms: C_31  and  N_32
REMARK   29  A    between atoms: N_32  and  C_33
REMARK   30  A    between atoms: N_32  and  C_34
REMARK   31  A    between atoms: N_32  and  C_35
REMARK   32  A    between atoms: O_36  and  C_37
REMARK   33  A    between atoms: C_37  and  C_39
REMARK   34  A    between atoms: C_39  and  C_40
REMARK   35  A    between atoms: C_40  and  C_41
REMARK   36  A    between atoms: C_41  and  C_42
REMARK   37  A    between atoms: C_42  and  C_43
REMARK   38  A    between atoms: C_43  and  C_44
REMARK   39  A    between atoms: C_44  and  C_45
REMARK   40  A    between atoms: C_45  and  C_46
REMARK   41  A    between atoms: C_47  and  C_48
REMARK   42  A    between atoms: C_48  and  C_49
REMARK   43  A    between atoms: C_49  and  C_50
REMARK   44  A    between atoms: C_50  and  C_51
REMARK   45  A    between atoms: C_51  and  C_52
REMARK   46  A    between atoms: C_52  and  C_53
REMARK   47  A    between atoms: C_53  and  C_54
REMARK   48  A    between atoms: C_54  and  C_55
REMARK                            x       y       z     vdW  Elec       q    Type
REMARK                         _______ _______ _______ _____ _____    ______ ____
ROOT
ATOM      1  C   UNL     1       7.030   1.398  22.818  0.00  0.00    +0.240 C 
ENDROOT
BRANCH   1   2
ATOM      2  C   UNL     1       7.804   2.624  22.109  0.00  0.00    +0.220 C 
BRANCH   2   3
ATOM      3  O   UNL     1       6.980   3.838  21.927  0.00  0.00    -0.283 OA
BRANCH   3   4
ATOM      4  P   UNL     1       7.256   5.292  22.595  0.00  0.00    +0.475 P 
ATOM      5  O   UNL     1       7.470   6.401  21.683  0.00  0.00    -0.227 OA
BRANCH   4   6
ATOM      6  O   UNL     1       8.611   4.981  23.424  0.00  0.00    -0.302 OA
ATOM      7  H   UNL     1       8.673   4.068  23.714  0.00  0.00    +0.222 HD
ENDBRANCH   4   6
BRANCH   4   8
ATOM      8  O   UNL     1       6.171   5.544  23.888  0.00  0.00    -0.281 OA
BRANCH   8   9
ATOM      9  C   UNL     1       4.996   6.387  23.719  0.00  0.00    +0.223 C 
BRANCH   9  10
ATOM     10  C   UNL     1       3.279   5.959  23.460  0.00  0.00    +0.161 C 
BRANCH  10  11
ATOM     11  N   UNL     1       2.572   4.499  23.018  0.00  0.00    +0.239 N 
ATOM     12  C   UNL     1       1.278   4.677  22.200  0.00  0.00    +0.192 C 
ATOM     13  C   UNL     1       2.115   3.958  24.316  0.00  0.00    +0.192 C 
ATOM     14  C   UNL     1       3.275   3.403  22.122  0.00  0.00    +0.192 C 
ENDBRANCH  10  11
ENDBRANCH   9  10
ENDBRANCH   8   9
ENDBRANCH   4   8
ENDBRANCH   3   4
ENDBRANCH   2   3
ENDBRANCH   1   2
BRANCH   1  15
ATOM     15  C   UNL     1       6.896   1.627  24.345  0.00  0.00    +0.279 C 
BRANCH  15  16
ATOM     16  O   UNL     1       7.926   2.504  24.870  0.00  0.00    -0.461 OA
BRANCH  16  17
ATOM     17  C   UNL     1       7.594   3.116  26.056  0.00  0.00    +0.307 C 
ATOM     18  O   UNL     1       7.980   4.232  26.414  0.00  0.00    -0.251 OA
BRANCH  17  19
ATOM     19  C   UNL     1       6.620   2.265  26.866  0.00  0.00    +0.120 C 
BRANCH  19  20
ATOM     20  C   UNL     1       6.810   2.436  28.354  0.00  0.00    +0.011 C 
BRANCH  20  21
ATOM     21  C   UNL     1       5.539   2.927  29.050  0.00  0.00    +0.001 C 
BRANCH  21  22
ATOM     22  C   UNL     1       4.337   2.812  28.120  0.00  0.00    +0.000 C 
BRANCH  22  23
ATOM     23  C   UNL     1       3.139   2.211  28.846  0.00  0.00    +0.000 C 
BRANCH  23  24
ATOM     24  C   UNL     1       3.537   0.935  29.584  0.00  0.00    +0.004 C 
BRANCH  24  25
ATOM     25  C   UNL     1       3.214  -0.302  28.749  0.00  0.00    +0.027 C 
BRANCH  25  27
ATOM     26  C   UNL     1       4.658  -0.919  26.803  0.00  0.00    -0.031 C 
ATOM     27  C   UNL     1       4.455  -0.871  28.128  0.00  0.00    -0.031 C 
BRANCH  26  28
ATOM     28  C   UNL     1       5.905  -1.458  26.168  0.00  0.00    +0.027 C 
BRANCH  28  29
ATOM     29  C   UNL     1       5.659  -1.781  24.694  0.00  0.00    +0.004 C 
BRANCH  29  30
ATOM     30  C   UNL     1       4.742  -2.993  24.547  0.00  0.00    +0.000 C 
BRANCH  30  31
ATOM     31  C   UNL     1       4.796  -3.552  23.125  0.00  0.00    +0.000 C 
BRANCH  31  32
ATOM     32  C   UNL     1       5.991  -2.969  22.369  0.00  0.00    -0.000 C 
BRANCH  32  33
ATOM     33  C   UNL     1       7.029  -4.064  22.066  0.00  0.00    -0.000 C 
BRANCH  33  35
ATOM     34  C   UNL     1       6.750  -6.558  22.145  0.00  0.00    +0.004 C 
ATOM     35  C   UNL     1       6.359  -5.281  21.424  0.00  0.00    -0.003 C 
ENDBRANCH  33  35
ENDBRANCH  32  33
ENDBRANCH  31  32
ENDBRANCH  30  31
ENDBRANCH  29  30
ENDBRANCH  28  29
ENDBRANCH  26  28
ENDBRANCH  25  27
ENDBRANCH  24  25
ENDBRANCH  23  24
ENDBRANCH  22  23
ENDBRANCH  21  22
ENDBRANCH  20  21
ENDBRANCH  19  20
ENDBRANCH  17  19
ENDBRANCH  16  17
ENDBRANCH  15  16
ENDBRANCH   1  15
BRANCH   1  36
ATOM     36  O   UNL     1       7.734   0.095  22.720  0.00  0.00    -0.456 OA
BRANCH  36  37
ATOM     37  C   UNL     1       9.018   0.158  22.180  0.00  0.00    +0.308 C 
ATOM     38  O   UNL     1       9.269   0.187  20.999  0.00  0.00    -0.251 OA
BRANCH  37  39
ATOM     39  C   UNL     1      10.122   0.218  23.241  0.00  0.00    +0.120 C 
BRANCH  39  40
ATOM     40  C   UNL     1       9.845  -0.762  24.411  0.00  0.00    +0.011 C 
BRANCH  40  41
ATOM     41  C   UNL     1       9.845  -2.214  23.981  0.00  0.00    +0.001 C 
BRANCH  41  42
ATOM     42  C   UNL     1       8.938  -3.036  24.880  0.00  0.00    +0.000 C 
BRANCH  42  43
ATOM     43  C   UNL     1       9.485  -4.424  25.043  0.00  0.00    +0.000 C 
BRANCH  43  44
ATOM     44  C   UNL     1       8.657  -5.196  26.052  0.00  0.00    +0.004 C 
BRANCH  44  45
ATOM     45  C   UNL     1       7.177  -5.341  25.653  0.00  0.00    +0.027 C 
BRANCH  45  46
ATOM     46  C   UNL     1       5.840  -5.998  26.168  0.00  0.00    -0.031 C 
ATOM     47  C   UNL     1       4.858  -6.527  25.405  0.00  0.00    -0.031 C 
BRANCH  47  48
ATOM     48  C   UNL     1       3.489  -7.264  25.433  0.00  0.00    +0.027 C 
BRANCH  48  49
ATOM     49  C   UNL     1       2.320  -6.804  24.485  0.00  0.00    +0.004 C 
BRANCH  49  50
ATOM     50  C   UNL     1       1.169  -5.982  25.068  0.00  0.00    +0.000 C 
BRANCH  50  51
ATOM     51  C   UNL     1       1.640  -4.528  25.331  0.00  0.00    +0.000 C 
BRANCH  51  52
ATOM     52  C   UNL     1       1.554  -4.200  26.817  0.00  0.00    -0.000 C 
BRANCH  52  53
ATOM     53  C   UNL     1       2.923  -4.105  27.497  0.00  0.00    -0.000 C 
BRANCH  53  54
ATOM     54  C   UNL     1       2.863  -4.818  28.849  0.00  0.00    -0.003 C 
ATOM     55  C   UNL     1       2.312  -6.227  28.734  0.00  0.00    +0.004 C 
ENDBRANCH  53  54
ENDBRANCH  52  53
ENDBRANCH  51  52
ENDBRANCH  50  51
ENDBRANCH  49  50
ENDBRANCH  48  49
ENDBRANCH  47  48
ENDBRANCH  45  46
ENDBRANCH  44  45
ENDBRANCH  43  44
ENDBRANCH  42  43
ENDBRANCH  41  42
ENDBRANCH  40  41
ENDBRANCH  39  40
ENDBRANCH  37  39
ENDBRANCH  36  37
ENDBRANCH   1  36
TORSDOF 43
ENDMDL
MODEL 7
REMARK VINA RESULT:      -4.1      2.607      5.772
REMARK  Name = 
REMARK  48 active torsions:
REMARK  status: ('A' for Active; 'I' for Inactive)
REMARK    1  A    between atoms: C_1  and  C_2
REMARK    2  A    between atoms: C_2  and  C_3
REMARK    3  A    between atoms: C_3  and  C_4
REMARK    4  A    between atoms: C_4  and  C_5
REMARK    5  A    between atoms: C_5  and  C_6
REMARK    6  A    between atoms: C_6  and  C_7
REMARK    7  A    between atoms: C_7  and  C_8
REMARK    8  A    between atoms: C_8  and  C_9
REMARK    9  A    between atoms: C_10  and  C_11
REMARK   10  A    between atoms: C_11  and  C_12
REMARK   11  A    between atoms: C_12  and  C_13
REMARK   12  A    between atoms: C_13  and  C_14
REMARK   13  A    between atoms: C_14  and  C_15
REMARK   14  A    between atoms: C_15  and  C_16
REMARK   15  A    between atoms: C_16  and  C_17
REMARK   16  A    between atoms: C_17  and  C_18
REMARK   17  A    between atoms: C_18  and  O_20
REMARK   18  A    between atoms: O_20  and  C_21
REMARK   19  A    between atoms: C_21  and  C_22
REMARK   20  A    between atoms: C_22  and  C_24
REMARK   21  A    between atoms: C_22  and  O_36
REMARK   22  A    between atoms: C_24  and  O_25
REMARK   23  A    between atoms: O_25  and  P_26
REMARK   24  A    between atoms: P_26  and  O_28
REMARK   25  A    between atoms: P_26  and  O_29
REMARK   26  A    between atoms: O_29  and  C_30
REMARK   27  A    between atoms: C_30  and  C_31
REMARK   28  A    between atoms: C_31  and  N_32
REMARK   29  A    between atoms: N_32  and  C_33
REMARK   30  A    between atoms: N_32  and  C_34
REMARK   31  A    between atoms: N_32  and  C_35
REMARK   32  A    between atoms: O_36  and  C_37
REMARK   33  A    between atoms: C_37  and  C_39
REMARK   34  A    between atoms: C_39  and  C_40
REMARK   35  A    between atoms: C_40  and  C_41
REMARK   36  A    between atoms: C_41  and  C_42
REMARK   37  A    between atoms: C_42  and  C_43
REMARK   38  A    between atoms: C_43  and  C_44
REMARK   39  A    between atoms: C_44  and  C_45
REMARK   40  A    between atoms: C_45  and  C_46
REMARK   41  A    between atoms: C_47  and  C_48
REMARK   42  A    between atoms: C_48  and  C_49
REMARK   43  A    between atoms: C_49  and  C_50
REMARK   44  A    between atoms: C_50  and  C_51
REMARK   45  A    between atoms: C_51  and  C_52
REMARK   46  A    between atoms: C_52  and  C_53
REMARK   47  A    between atoms: C_53  and  C_54
REMARK   48  A    between atoms: C_54  and  C_55
REMARK                            x       y       z     vdW  Elec       q    Type
REMARK                         _______ _______ _______ _____ _____    ______ ____
ROOT
ATOM      1  C   UNL     1       8.578  -2.541  25.030  0.00  0.00    +0.240 C 
ENDROOT
BRANCH   1   2
ATOM      2  C   UNL     1       8.236  -3.908  24.242  0.00  0.00    +0.220 C 
BRANCH   2   3
ATOM      3  O   UNL     1       7.629  -3.705  22.910  0.00  0.00    -0.283 OA
BRANCH   3   4
ATOM      4  P   UNL     1       6.053  -3.467  22.602  0.00  0.00    +0.475 P 
ATOM      5  O   UNL     1       5.602  -3.744  21.249  0.00  0.00    -0.227 OA
BRANCH   4   6
ATOM      6  O   UNL     1       5.928  -1.884  22.919  0.00  0.00    -0.302 OA
ATOM      7  H   UNL     1       6.758  -1.414  22.811  0.00  0.00    +0.222 HD
ENDBRANCH   4   6
BRANCH   4   8
ATOM      8  O   UNL     1       5.116  -4.099  23.880  0.00  0.00    -0.281 OA
BRANCH   8   9
ATOM      9  C   UNL     1       3.713  -4.435  23.677  0.00  0.00    +0.223 C 
BRANCH   9  10
ATOM     10  C   UNL     1       2.573  -5.354  24.703  0.00  0.00    +0.161 C 
BRANCH  10  11
ATOM     11  N   UNL     1       2.577  -6.971  25.164  0.00  0.00    +0.239 N 
ATOM     12  C   UNL     1       1.686  -7.253  26.390  0.00  0.00    +0.192 C 
ATOM     13  C   UNL     1       3.957  -7.159  25.661  0.00  0.00    +0.192 C 
ATOM     14  C   UNL     1       2.101  -8.162  24.241  0.00  0.00    +0.192 C 
ENDBRANCH  10  11
ENDBRANCH   9  10
ENDBRANCH   8   9
ENDBRANCH   4   8
ENDBRANCH   3   4
ENDBRANCH   2   3
ENDBRANCH   1   2
BRANCH   1  15
ATOM     15  C   UNL     1       7.466  -2.190  26.052  0.00  0.00    +0.279 C 
BRANCH  15  16
ATOM     16  O   UNL     1       6.857  -0.898  25.791  0.00  0.00    -0.461 OA
BRANCH  16  17
ATOM     17  C   UNL     1       5.552  -0.795  26.212  0.00  0.00    +0.307 C 
ATOM     18  O   UNL     1       4.576  -1.273  25.628  0.00  0.00    -0.251 OA
BRANCH  17  19
ATOM     19  C   UNL     1       5.456  -0.063  27.547  0.00  0.00    +0.120 C 
BRANCH  19  20
ATOM     20  C   UNL     1       6.535   0.980  27.709  0.00  0.00    +0.011 C 
BRANCH  20  21
ATOM     21  C   UNL     1       6.090   2.145  28.594  0.00  0.00    +0.001 C 
BRANCH  21  22
ATOM     22  C   UNL     1       6.267   3.473  27.867  0.00  0.00    +0.000 C 
BRANCH  22  23
ATOM     23  C   UNL     1       7.260   3.339  26.718  0.00  0.00    +0.000 C 
BRANCH  23  24
ATOM     24  C   UNL     1       7.447   4.676  26.006  0.00  0.00    +0.004 C 
BRANCH  24  25
ATOM     25  C   UNL     1       6.214   5.561  26.176  0.00  0.00    +0.027 C 
BRANCH  25  27
ATOM     26  C   UNL     1       4.395   6.175  24.574  0.00  0.00    -0.031 C 
ATOM     27  C   UNL     1       5.700   6.029  24.848  0.00  0.00    -0.031 C 
BRANCH  26  28
ATOM     28  C   UNL     1       3.866   6.670  23.261  0.00  0.00    +0.027 C 
BRANCH  28  29
ATOM     29  C   UNL     1       3.111   5.558  22.534  0.00  0.00    +0.004 C 
BRANCH  29  30
ATOM     30  C   UNL     1       1.857   5.155  23.308  0.00  0.00    +0.000 C 
BRANCH  30  31
ATOM     31  C   UNL     1       1.365   3.774  22.872  0.00  0.00    +0.000 C 
BRANCH  31  32
ATOM     32  C   UNL     1       2.234   3.233  21.736  0.00  0.00    -0.000 C 
BRANCH  32  33
ATOM     33  C   UNL     1       1.380   2.447  20.726  0.00  0.00    -0.000 C 
BRANCH  33  35
ATOM     34  C   UNL     1       1.812   4.340  19.134  0.00  0.00    +0.004 C 
ATOM     35  C   UNL     1       0.767   3.388  19.687  0.00  0.00    -0.003 C 
ENDBRANCH  33  35
ENDBRANCH  32  33
ENDBRANCH  31  32
ENDBRANCH  30  31
ENDBRANCH  29  30
ENDBRANCH  28  29
ENDBRANCH  26  28
ENDBRANCH  25  27
ENDBRANCH  24  25
ENDBRANCH  23  24
ENDBRANCH  22  23
ENDBRANCH  21  22
ENDBRANCH  20  21
ENDBRANCH  19  20
ENDBRANCH  17  19
ENDBRANCH  16  17
ENDBRANCH  15  16
ENDBRANCH   1  15
BRANCH   1  36
ATOM     36  O   UNL     1       8.648  -1.339  24.162  0.00  0.00    -0.456 OA
BRANCH  36  37
ATOM     37  C   UNL     1       9.929  -0.822  23.974  0.00  0.00    +0.308 C 
ATOM     38  O   UNL     1      10.564  -0.232  24.814  0.00  0.00    -0.251 OA
BRANCH  37  39
ATOM     39  C   UNL     1      10.495  -1.095  22.577  0.00  0.00    +0.120 C 
BRANCH  39  40
ATOM     40  C   UNL     1       9.750  -0.282  21.487  0.00  0.00    +0.011 C 
BRANCH  40  41
ATOM     41  C   UNL     1       9.715   1.204  21.778  0.00  0.00    +0.001 C 
BRANCH  41  42
ATOM     42  C   UNL     1       8.281   1.691  21.892  0.00  0.00    +0.000 C 
BRANCH  42  43
ATOM     43  C   UNL     1       8.233   3.013  22.601  0.00  0.00    +0.000 C 
BRANCH  43  44
ATOM     44  C   UNL     1       6.956   3.750  22.246  0.00  0.00    +0.004 C 
BRANCH  44  45
ATOM     45  C   UNL     1       5.678   3.024  22.708  0.00  0.00    +0.027 C 
BRANCH  45  46
ATOM     46  C   UNL     1       5.101   2.262  23.961  0.00  0.00    -0.031 C 
ATOM     47  C   UNL     1       4.166   2.721  24.821  0.00  0.00    -0.031 C 
BRANCH  47  48
ATOM     48  C   UNL     1       3.311   2.368  26.071  0.00  0.00    +0.027 C 
BRANCH  48  49
ATOM     49  C   UNL     1       2.598   3.506  26.892  0.00  0.00    +0.004 C 
BRANCH  49  50
ATOM     50  C   UNL     1       2.116   3.208  28.313  0.00  0.00    +0.000 C 
BRANCH  50  51
ATOM     51  C   UNL     1       2.441   1.737  28.683  0.00  0.00    +0.000 C 
BRANCH  51  52
ATOM     52  C   UNL     1       1.162   0.911  28.761  0.00  0.00    -0.000 C 
BRANCH  52  53
ATOM     53  C   UNL     1       0.914   0.059  27.513  0.00  0.00    -0.000 C 
BRANCH  53  54
ATOM     54  C   UNL     1       1.757  -1.214  27.598  0.00  0.00    -0.003 C 
ATOM     55  C   UNL     1       1.236  -2.314  26.693  0.00  0.00    +0.004 C 
ENDBRANCH  53  54
ENDBRANCH  52  53
ENDBRANCH  51  52
ENDBRANCH  50  51
ENDBRANCH  49  50
ENDBRANCH  48  49
ENDBRANCH  47  48
ENDBRANCH  45  46
ENDBRANCH  44  45
ENDBRANCH  43  44
ENDBRANCH  42  43
ENDBRANCH  41  42
ENDBRANCH  40  41
ENDBRANCH  39  40
ENDBRANCH  37  39
ENDBRANCH  36  37
ENDBRANCH   1  36
TORSDOF 43
ENDMDL
MODEL 8
REMARK VINA RESULT:      -4.0      1.961      4.860
REMARK  Name = 
REMARK  48 active torsions:
REMARK  status: ('A' for Active; 'I' for Inactive)
REMARK    1  A    between atoms: C_1  and  C_2
REMARK    2  A    between atoms: C_2  and  C_3
REMARK    3  A    between atoms: C_3  and  C_4
REMARK    4  A    between atoms: C_4  and  C_5
REMARK    5  A    between atoms: C_5  and  C_6
REMARK    6  A    between atoms: C_6  and  C_7
REMARK    7  A    between atoms: C_7  and  C_8
REMARK    8  A    between atoms: C_8  and  C_9
REMARK    9  A    between atoms: C_10  and  C_11
REMARK   10  A    between atoms: C_11  and  C_12
REMARK   11  A    between atoms: C_12  and  C_13
REMARK   12  A    between atoms: C_13  and  C_14
REMARK   13  A    between atoms: C_14  and  C_15
REMARK   14  A    between atoms: C_15  and  C_16
REMARK   15  A    between atoms: C_16  and  C_17
REMARK   16  A    between atoms: C_17  and  C_18
REMARK   17  A    between atoms: C_18  and  O_20
REMARK   18  A    between atoms: O_20  and  C_21
REMARK   19  A    between atoms: C_21  and  C_22
REMARK   20  A    between atoms: C_22  and  C_24
REMARK   21  A    between atoms: C_22  and  O_36
REMARK   22  A    between atoms: C_24  and  O_25
REMARK   23  A    between atoms: O_25  and  P_26
REMARK   24  A    between atoms: P_26  and  O_28
REMARK   25  A    between atoms: P_26  and  O_29
REMARK   26  A    between atoms: O_29  and  C_30
REMARK   27  A    between atoms: C_30  and  C_31
REMARK   28  A    between atoms: C_31  and  N_32
REMARK   29  A    between atoms: N_32  and  C_33
REMARK   30  A    between atoms: N_32  and  C_34
REMARK   31  A    between atoms: N_32  and  C_35
REMARK   32  A    between atoms: O_36  and  C_37
REMARK   33  A    between atoms: C_37  and  C_39
REMARK   34  A    between atoms: C_39  and  C_40
REMARK   35  A    between atoms: C_40  and  C_41
REMARK   36  A    between atoms: C_41  and  C_42
REMARK   37  A    between atoms: C_42  and  C_43
REMARK   38  A    between atoms: C_43  and  C_44
REMARK   39  A    between atoms: C_44  and  C_45
REMARK   40  A    between atoms: C_45  and  C_46
REMARK   41  A    between atoms: C_47  and  C_48
REMARK   42  A    between atoms: C_48  and  C_49
REMARK   43  A    between atoms: C_49  and  C_50
REMARK   44  A    between atoms: C_50  and  C_51
REMARK   45  A    between atoms: C_51  and  C_52
REMARK   46  A    between atoms: C_52  and  C_53
REMARK   47  A    between atoms: C_53  and  C_54
REMARK   48  A    between atoms: C_54  and  C_55
REMARK                            x       y       z     vdW  Elec       q    Type
REMARK                         _______ _______ _______ _____ _____    ______ ____
ROOT
ATOM      1  C   UNL     1       6.334  -4.151  25.935  0.00  0.00    +0.240 C 
ENDROOT
BRANCH   1   2
ATOM      2  C   UNL     1       7.181  -5.479  26.287  0.00  0.00    +0.220 C 
BRANCH   2   3
ATOM      3  O   UNL     1       7.325  -5.741  27.735  0.00  0.00    -0.283 OA
BRANCH   3   4
ATOM      4  P   UNL     1       6.253  -6.511  28.680  0.00  0.00    +0.475 P 
ATOM      5  O   UNL     1       6.774  -7.558  29.542  0.00  0.00    -0.227 OA
BRANCH   4   6
ATOM      6  O   UNL     1       5.275  -7.147  27.557  0.00  0.00    -0.302 OA
ATOM      7  H   UNL     1       5.608  -7.035  26.664  0.00  0.00    +0.222 HD
ENDBRANCH   4   6
BRANCH   4   8
ATOM      8  O   UNL     1       5.191  -5.377  29.387  0.00  0.00    -0.281 OA
BRANCH   8   9
ATOM      9  C   UNL     1       3.751  -5.590  29.361  0.00  0.00    +0.223 C 
BRANCH   9  10
ATOM     10  C   UNL     1       2.412  -4.477  28.956  0.00  0.00    +0.161 C 
BRANCH  10  11
ATOM     11  N   UNL     1       2.424  -2.827  28.629  0.00  0.00    +0.239 N 
ATOM     12  C   UNL     1       3.770  -2.154  28.964  0.00  0.00    +0.192 C 
ATOM     13  C   UNL     1       1.485  -2.293  29.638  0.00  0.00    +0.192 C 
ATOM     14  C   UNL     1       2.191  -2.200  27.197  0.00  0.00    +0.192 C 
ENDBRANCH  10  11
ENDBRANCH   9  10
ENDBRANCH   8   9
ENDBRANCH   4   8
ENDBRANCH   3   4
ENDBRANCH   2   3
ENDBRANCH   1   2
BRANCH   1  15
ATOM     15  C   UNL     1       6.836  -2.933  26.751  0.00  0.00    +0.279 C 
BRANCH  15  16
ATOM     16  O   UNL     1       8.197  -2.557  26.414  0.00  0.00    -0.461 OA
BRANCH  16  17
ATOM     17  C   UNL     1       8.391  -1.203  26.279  0.00  0.00    +0.307 C 
ATOM     18  O   UNL     1       9.466  -0.661  26.006  0.00  0.00    -0.251 OA
BRANCH  17  19
ATOM     19  C   UNL     1       7.083  -0.435  26.444  0.00  0.00    +0.120 C 
BRANCH  19  20
ATOM     20  C   UNL     1       7.301   0.964  26.967  0.00  0.00    +0.011 C 
BRANCH  20  21
ATOM     21  C   UNL     1       7.074   1.062  28.477  0.00  0.00    +0.001 C 
BRANCH  21  22
ATOM     22  C   UNL     1       7.009   2.520  28.918  0.00  0.00    +0.000 C 
BRANCH  22  23
ATOM     23  C   UNL     1       6.832   3.447  27.720  0.00  0.00    +0.000 C 
BRANCH  23  24
ATOM     24  C   UNL     1       6.513   4.867  28.178  0.00  0.00    +0.004 C 
BRANCH  24  25
ATOM     25  C   UNL     1       6.837   5.880  27.082  0.00  0.00    +0.027 C 
BRANCH  25  27
ATOM     26  C   UNL     1       4.531   5.786  26.122  0.00  0.00    -0.031 C 
ATOM     27  C   UNL     1       5.861   5.777  25.949  0.00  0.00    -0.031 C 
BRANCH  26  28
ATOM     28  C   UNL     1       3.541   5.714  24.998  0.00  0.00    +0.027 C 
BRANCH  28  29
ATOM     29  C   UNL     1       2.907   4.324  24.931  0.00  0.00    +0.004 C 
BRANCH  29  30
ATOM     30  C   UNL     1       3.112   3.568  26.243  0.00  0.00    +0.000 C 
BRANCH  30  31
ATOM     31  C   UNL     1       3.868   2.260  26.008  0.00  0.00    +0.000 C 
BRANCH  31  32
ATOM     32  C   UNL     1       3.618   1.286  27.160  0.00  0.00    -0.000 C 
BRANCH  32  33
ATOM     33  C   UNL     1       3.382   2.049  28.475  0.00  0.00    -0.000 C 
BRANCH  33  35
ATOM     34  C   UNL     1       0.958   1.461  28.763  0.00  0.00    +0.004 C 
ATOM     35  C   UNL     1       2.354   1.323  29.344  0.00  0.00    -0.003 C 
ENDBRANCH  33  35
ENDBRANCH  32  33
ENDBRANCH  31  32
ENDBRANCH  30  31
ENDBRANCH  29  30
ENDBRANCH  28  29
ENDBRANCH  26  28
ENDBRANCH  25  27
ENDBRANCH  24  25
ENDBRANCH  23  24
ENDBRANCH  22  23
ENDBRANCH  21  22
ENDBRANCH  20  21
ENDBRANCH  19  20
ENDBRANCH  17  19
ENDBRANCH  16  17
ENDBRANCH  15  16
ENDBRANCH   1  15
BRANCH   1  36
ATOM     36  O   UNL     1       4.894  -4.236  26.283  0.00  0.00    -0.456 OA
BRANCH  36  37
ATOM     37  C   UNL     1       4.114  -4.972  25.391  0.00  0.00    +0.308 C 
ATOM     38  O   UNL     1       3.233  -5.732  25.711  0.00  0.00    -0.251 OA
BRANCH  37  39
ATOM     39  C   UNL     1       4.458  -4.708  23.922  0.00  0.00    +0.120 C 
BRANCH  39  40
ATOM     40  C   UNL     1       4.633  -6.029  23.128  0.00  0.00    +0.011 C 
BRANCH  40  41
ATOM     41  C   UNL     1       5.628  -5.908  21.992  0.00  0.00    +0.001 C 
BRANCH  41  42
ATOM     42  C   UNL     1       6.965  -5.404  22.507  0.00  0.00    +0.000 C 
BRANCH  42  43
ATOM     43  C   UNL     1       7.303  -4.085  21.875  0.00  0.00    +0.000 C 
BRANCH  43  44
ATOM     44  C   UNL     1       7.856  -3.132  22.917  0.00  0.00    +0.004 C 
BRANCH  44  45
ATOM     45  C   UNL     1       7.254  -1.717  22.840  0.00  0.00    +0.027 C 
BRANCH  45  46
ATOM     46  C   UNL     1       7.706  -0.209  22.753  0.00  0.00    -0.031 C 
ATOM     47  C   UNL     1       8.785   0.270  22.097  0.00  0.00    -0.031 C 
BRANCH  47  48
ATOM     48  C   UNL     1       9.565   1.559  21.711  0.00  0.00    +0.027 C 
BRANCH  48  49
ATOM     49  C   UNL     1      10.346   2.373  22.808  0.00  0.00    +0.004 C 
BRANCH  49  50
ATOM     50  C   UNL     1       9.912   2.257  24.271  0.00  0.00    +0.000 C 
BRANCH  50  51
ATOM     51  C   UNL     1       9.021   3.468  24.654  0.00  0.00    +0.000 C 
BRANCH  51  52
ATOM     52  C   UNL     1       7.621   3.305  24.073  0.00  0.00    -0.000 C 
BRANCH  52  53
ATOM     53  C   UNL     1       7.324   4.276  22.926  0.00  0.00    -0.000 C 
BRANCH  53  54
ATOM     54  C   UNL     1       5.856   4.141  22.521  0.00  0.00    -0.003 C 
ATOM     55  C   UNL     1       5.341   2.723  22.680  0.00  0.00    +0.004 C 
ENDBRANCH  53  54
ENDBRANCH  52  53
ENDBRANCH  51  52
ENDBRANCH  50  51
ENDBRANCH  49  50
ENDBRANCH  48  49
ENDBRANCH  47  48
ENDBRANCH  45  46
ENDBRANCH  44  45
ENDBRANCH  43  44
ENDBRANCH  42  43
ENDBRANCH  41  42
ENDBRANCH  40  41
ENDBRANCH  39  40
ENDBRANCH  37  39
ENDBRANCH  36  37
ENDBRANCH   1  36
TORSDOF 43
ENDMDL
MODEL 9
REMARK VINA RESULT:      -3.9      3.176      8.631
REMARK  Name = 
REMARK  48 active torsions:
REMARK  status: ('A' for Active; 'I' for Inactive)
REMARK    1  A    between atoms: C_1  and  C_2
REMARK    2  A    between atoms: C_2  and  C_3
REMARK    3  A    between atoms: C_3  and  C_4
REMARK    4  A    between atoms: C_4  and  C_5
REMARK    5  A    between atoms: C_5  and  C_6
REMARK    6  A    between atoms: C_6  and  C_7
REMARK    7  A    between atoms: C_7  and  C_8
REMARK    8  A    between atoms: C_8  and  C_9
REMARK    9  A    between atoms: C_10  and  C_11
REMARK   10  A    between atoms: C_11  and  C_12
REMARK   11  A    between atoms: C_12  and  C_13
REMARK   12  A    between atoms: C_13  and  C_14
REMARK   13  A    between atoms: C_14  and  C_15
REMARK   14  A    between atoms: C_15  and  C_16
REMARK   15  A    between atoms: C_16  and  C_17
REMARK   16  A    between atoms: C_17  and  C_18
REMARK   17  A    between atoms: C_18  and  O_20
REMARK   18  A    between atoms: O_20  and  C_21
REMARK   19  A    between atoms: C_21  and  C_22
REMARK   20  A    between atoms: C_22  and  C_24
REMARK   21  A    between atoms: C_22  and  O_36
REMARK   22  A    between atoms: C_24  and  O_25
REMARK   23  A    between atoms: O_25  and  P_26
REMARK   24  A    between atoms: P_26  and  O_28
REMARK   25  A    between atoms: P_26  and  O_29
REMARK   26  A    between atoms: O_29  and  C_30
REMARK   27  A    between atoms: C_30  and  C_31
REMARK   28  A    between atoms: C_31  and  N_32
REMARK   29  A    between atoms: N_32  and  C_33
REMARK   30  A    between atoms: N_32  and  C_34
REMARK   31  A    between atoms: N_32  and  C_35
REMARK   32  A    between atoms: O_36  and  C_37
REMARK   33  A    between atoms: C_37  and  C_39
REMARK   34  A    between atoms: C_39  and  C_40
REMARK   35  A    between atoms: C_40  and  C_41
REMARK   36  A    between atoms: C_41  and  C_42
REMARK   37  A    between atoms: C_42  and  C_43
REMARK   38  A    between atoms: C_43  and  C_44
REMARK   39  A    between atoms: C_44  and  C_45
REMARK   40  A    between atoms: C_45  and  C_46
REMARK   41  A    between atoms: C_47  and  C_48
REMARK   42  A    between atoms: C_48  and  C_49
REMARK   43  A    between atoms: C_49  and  C_50
REMARK   44  A    between atoms: C_50  and  C_51
REMARK   45  A    between atoms: C_51  and  C_52
REMARK   46  A    between atoms: C_52  and  C_53
REMARK   47  A    between atoms: C_53  and  C_54
REMARK   48  A    between atoms: C_54  and  C_55
REMARK                            x       y       z     vdW  Elec       q    Type
REMARK                         _______ _______ _______ _____ _____    ______ ____
ROOT
ATOM      1  C   UNL     1       9.067  -1.156  24.854  0.00  0.00    +0.240 C 
ENDROOT
BRANCH   1   2
ATOM      2  C   UNL     1      10.222  -0.126  24.396  0.00  0.00    +0.220 C 
BRANCH   2   3
ATOM      3  O   UNL     1      10.197   0.215  22.959  0.00  0.00    -0.283 OA
BRANCH   3   4
ATOM      4  P   UNL     1       9.359   1.427  22.277  0.00  0.00    +0.475 P 
ATOM      5  O   UNL     1       8.560   1.095  21.110  0.00  0.00    -0.227 OA
BRANCH   4   6
ATOM      6  O   UNL     1      10.567   2.422  21.861  0.00  0.00    -0.302 OA
ATOM      7  H   UNL     1      11.418   2.143  22.208  0.00  0.00    +0.222 HD
ENDBRANCH   4   6
BRANCH   4   8
ATOM      8  O   UNL     1       8.611   2.364  23.491  0.00  0.00    -0.281 OA
BRANCH   8   9
ATOM      9  C   UNL     1       9.168   3.650  23.886  0.00  0.00    +0.223 C 
BRANCH   9  10
ATOM     10  C   UNL     1       8.501   5.303  23.749  0.00  0.00    +0.161 C 
BRANCH  10  11
ATOM     11  N   UNL     1       7.033   5.841  23.128  0.00  0.00    +0.239 N 
ATOM     12  C   UNL     1       7.192   6.704  21.861  0.00  0.00    +0.192 C 
ATOM     13  C   UNL     1       6.575   6.791  24.165  0.00  0.00    +0.192 C 
ATOM     14  C   UNL     1       5.874   4.890  22.628  0.00  0.00    +0.192 C 
ENDBRANCH  10  11
ENDBRANCH   9  10
ENDBRANCH   8   9
ENDBRANCH   4   8
ENDBRANCH   3   4
ENDBRANCH   2   3
ENDBRANCH   1   2
BRANCH   1  15
ATOM     15  C   UNL     1       8.892  -2.298  23.821  0.00  0.00    +0.279 C 
BRANCH  15  16
ATOM     16  O   UNL     1       9.733  -3.446  24.110  0.00  0.00    -0.461 OA
BRANCH  16  17
ATOM     17  C   UNL     1       9.050  -4.633  24.215  0.00  0.00    +0.307 C 
ATOM     18  O   UNL     1       9.408  -5.605  24.886  0.00  0.00    -0.251 OA
BRANCH  17  19
ATOM     19  C   UNL     1       7.735  -4.587  23.441  0.00  0.00    +0.120 C 
BRANCH  19  20
ATOM     20  C   UNL     1       7.574  -5.768  22.514  0.00  0.00    +0.011 C 
BRANCH  20  21
ATOM     21  C   UNL     1       6.269  -5.708  21.718  0.00  0.00    +0.001 C 
BRANCH  21  22
ATOM     22  C   UNL     1       5.243  -4.835  22.430  0.00  0.00    +0.000 C 
BRANCH  22  23
ATOM     23  C   UNL     1       4.099  -5.676  22.985  0.00  0.00    +0.000 C 
BRANCH  23  24
ATOM     24  C   UNL     1       3.127  -4.809  23.781  0.00  0.00    +0.004 C 
BRANCH  24  25
ATOM     25  C   UNL     1       1.788  -5.520  23.966  0.00  0.00    +0.027 C 
BRANCH  25  27
ATOM     26  C   UNL     1       1.281  -7.294  25.653  0.00  0.00    -0.031 C 
ATOM     27  C   UNL     1       1.640  -6.034  25.367  0.00  0.00    -0.031 C 
BRANCH  26  28
ATOM     28  C   UNL     1       1.156  -7.831  27.047  0.00  0.00    +0.027 C 
BRANCH  28  29
ATOM     29  C   UNL     1       1.502  -6.750  28.071  0.00  0.00    +0.004 C 
BRANCH  29  30
ATOM     30  C   UNL     1       2.639  -7.207  28.983  0.00  0.00    +0.000 C 
BRANCH  30  31
ATOM     31  C   UNL     1       3.775  -6.183  28.996  0.00  0.00    +0.000 C 
BRANCH  31  32
ATOM     32  C   UNL     1       5.036  -6.778  28.369  0.00  0.00    -0.000 C 
BRANCH  32  33
ATOM     33  C   UNL     1       4.937  -6.765  26.833  0.00  0.00    -0.000 C 
BRANCH  33  35
ATOM     34  C   UNL     1       6.851  -5.198  27.263  0.00  0.00    +0.004 C 
ATOM     35  C   UNL     1       5.834  -5.675  26.242  0.00  0.00    -0.003 C 
ENDBRANCH  33  35
ENDBRANCH  32  33
ENDBRANCH  31  32
ENDBRANCH  30  31
ENDBRANCH  29  30
ENDBRANCH  28  29
ENDBRANCH  26  28
ENDBRANCH  25  27
ENDBRANCH  24  25
ENDBRANCH  23  24
ENDBRANCH  22  23
ENDBRANCH  21  22
ENDBRANCH  20  21
ENDBRANCH  19  20
ENDBRANCH  17  19
ENDBRANCH  16  17
ENDBRANCH  15  16
ENDBRANCH   1  15
BRANCH   1  36
ATOM     36  O   UNL     1       7.713  -0.554  24.942  0.00  0.00    -0.456 OA
BRANCH  36  37
ATOM     37  C   UNL     1       6.752  -1.142  24.121  0.00  0.00    +0.308 C 
ATOM     38  O   UNL     1       6.719  -1.042  22.918  0.00  0.00    -0.251 OA
BRANCH  37  39
ATOM     39  C   UNL     1       5.724  -1.977  24.890  0.00  0.00    +0.120 C 
BRANCH  39  40
ATOM     40  C   UNL     1       5.283  -1.276  26.202  0.00  0.00    +0.011 C 
BRANCH  40  41
ATOM     41  C   UNL     1       4.628  -2.222  27.187  0.00  0.00    +0.001 C 
BRANCH  41  42
ATOM     42  C   UNL     1       3.353  -2.803  26.599  0.00  0.00    +0.000 C 
BRANCH  42  43
ATOM     43  C   UNL     1       2.404  -3.193  27.695  0.00  0.00    +0.000 C 
BRANCH  43  44
ATOM     44  C   UNL     1       0.975  -2.912  27.273  0.00  0.00    +0.004 C 
BRANCH  44  45
ATOM     45  C   UNL     1       0.604  -1.417  27.311  0.00  0.00    +0.027 C 
BRANCH  45  46
ATOM     46  C   UNL     1       1.132  -0.051  27.893  0.00  0.00    -0.031 C 
ATOM     47  C   UNL     1       2.235   0.619  27.495  0.00  0.00    -0.031 C 
BRANCH  47  48
ATOM     48  C   UNL     1       3.081   1.908  27.704  0.00  0.00    +0.027 C 
BRANCH  48  49
ATOM     49  C   UNL     1       3.523   2.776  26.468  0.00  0.00    +0.004 C 
BRANCH  49  50
ATOM     50  C   UNL     1       4.154   2.082  25.259  0.00  0.00    +0.000 C 
BRANCH  50  51
ATOM     51  C   UNL     1       5.674   2.387  25.210  0.00  0.00    +0.000 C 
BRANCH  51  52
ATOM     52  C   UNL     1       6.023   3.520  26.168  0.00  0.00    -0.000 C 
BRANCH  52  53
ATOM     53  C   UNL     1       7.192   3.186  27.100  0.00  0.00    -0.000 C 
BRANCH  53  54
ATOM     54  C   UNL     1       6.673   2.368  28.283  0.00  0.00    -0.003 C 
ATOM     55  C   UNL     1       7.193   0.943  28.273  0.00  0.00    +0.004 C 
ENDBRANCH  53  54
ENDBRANCH  52  53
ENDBRANCH  51  52
ENDBRANCH  50  51
ENDBRANCH  49  50
ENDBRANCH  48  49
ENDBRANCH  47  48
ENDBRANCH  45  46
ENDBRANCH  44  45
ENDBRANCH  43  44
ENDBRANCH  42  43
ENDBRANCH  41  42
ENDBRANCH  40  41
ENDBRANCH  39  40
ENDBRANCH  37  39
ENDBRANCH  36  37
ENDBRANCH   1  36
TORSDOF 43
ENDMDL
