MODEL 1
REMARK VINA RESULT:      -6.2      0.000      0.000
REMARK  Name = 
REMARK  10 active torsions:
REMARK  status: ('A' for Active; 'I' for Inactive)
REMARK    1  A    between atoms: C_1  and  C_2
REMARK    2  A    between atoms: C_5  and  C_6
REMARK    3  A    between atoms: C_6  and  O_7
REMARK    4  A    between atoms: O_7  and  P_8
REMARK    5  A    between atoms: P_8  and  O_9
REMARK    6  A    between atoms: P_8  and  O_10
REMARK    7  A    between atoms: C_12  and  C_13
REMARK    8  A    between atoms: C_13  and  N_14
REMARK    9  A    between atoms: N_14  and  C_15
REMARK   10  A    between atoms: C_22  and  O_23
REMARK                            x       y       z     vdW  Elec       q    Type
REMARK                         _______ _______ _______ _____ _____    ______ ____
ROOT
ATOM      1  C   UNL     1      11.299   0.740  24.515  0.00  0.00    +0.069 C 
ATOM      2  C   UNL     1      10.109  -0.041  24.043  0.00  0.00    +0.080 A 
ATOM      3  C   UNL     1       9.090  -0.416  24.920  0.00  0.00    +0.142 A 
ATOM      4  C   UNL     1       7.994  -1.166  24.450  0.00  0.00    +0.016 A 
ATOM      5  C   UNL     1       7.970  -1.523  23.085  0.00  0.00    +0.005 A 
ATOM      6  C   UNL     1       9.026  -1.073  22.286  0.00  0.00    +0.117 A 
ATOM      7  N   UNL     1      10.081  -0.355  22.728  0.00  0.00    -0.256 NA
ENDROOT
BRANCH   3   8
ATOM      8  O   UNL     1       9.183  -0.051  26.238  0.00  0.00    -0.505 OA
ATOM      9  H   UNL     1      10.122   0.142  26.426  0.00  0.00    +0.292 HD
ENDBRANCH   3   8
BRANCH   4  10
ATOM     10  C   UNL     1       6.930  -1.637  25.415  0.00  0.00    +0.121 C 
BRANCH  10  11
ATOM     11  N   UNL     1       7.436  -2.652  26.355  0.00  0.00    -0.300 NA
ATOM     12  H   UNL     1       6.910  -2.547  27.230  0.00  0.00    +0.123 HD
BRANCH  11  13
ATOM     13  C   UNL     1       7.165  -4.044  25.868  0.00  0.00    +0.171 C 
ATOM     14  C   UNL     1       8.438  -4.797  25.530  0.00  0.00    +0.255 C 
ATOM     15  O   UNL     1       9.241  -4.506  24.651  0.00  0.00    -0.272 OA
ATOM     16  N   UNL     1       8.635  -5.745  26.503  0.00  0.00    -0.193 N 
ATOM     17  H   UNL     1       9.457  -6.323  26.624  0.00  0.00    +0.182 HD
ATOM     18  O   UNL     1       7.619  -5.727  27.487  0.00  0.00    -0.278 OA
ATOM     19  C   UNL     1       6.539  -4.995  26.888  0.00  0.00    +0.218 C 
ENDBRANCH  11  13
ENDBRANCH  10  11
ENDBRANCH   4  10
BRANCH   5  20
ATOM     20  C   UNL     1       6.862  -2.318  22.440  0.00  0.00    +0.209 C 
BRANCH  20  21
ATOM     21  O   UNL     1       7.303  -3.641  22.194  0.00  0.00    -0.282 OA
BRANCH  21  22
ATOM     22  P   UNL     1       6.012  -4.792  22.171  0.00  0.00    +0.473 P 
ATOM     23  O   UNL     1       4.856  -5.821  22.149  0.00  0.00    -0.228 OA
BRANCH  22  24
ATOM     24  O   UNL     1       7.132  -5.836  21.587  0.00  0.00    -0.303 OA
ATOM     25  H   UNL     1       6.788  -6.351  20.836  0.00  0.00    +0.222 HD
ENDBRANCH  22  24
BRANCH  22  26
ATOM     26  O   UNL     1       5.683  -4.112  20.721  0.00  0.00    -0.303 OA
ATOM     27  H   UNL     1       6.467  -4.262  20.161  0.00  0.00    +0.222 HD
ENDBRANCH  22  26
ENDBRANCH  21  22
ENDBRANCH  20  21
ENDBRANCH   5  20
TORSDOF 9
ENDMDL
MODEL 2
REMARK VINA RESULT:      -6.1      2.733      5.935
REMARK  Name = 
REMARK  10 active torsions:
REMARK  status: ('A' for Active; 'I' for Inactive)
REMARK    1  A    between atoms: C_1  and  C_2
REMARK    2  A    between atoms: C_5  and  C_6
REMARK    3  A    between atoms: C_6  and  O_7
REMARK    4  A    between atoms: O_7  and  P_8
REMARK    5  A    between atoms: P_8  and  O_9
REMARK    6  A    between atoms: P_8  and  O_10
REMARK    7  A    between atoms: C_12  and  C_13
REMARK    8  A    between atoms: C_13  and  N_14
REMARK    9  A    between atoms: N_14  and  C_15
REMARK   10  A    between atoms: C_22  and  O_23
REMARK                            x       y       z     vdW  Elec       q    Type
REMARK                         _______ _______ _______ _____ _____    ______ ____
ROOT
ATOM      1  C   UNL     1       6.160  -5.508  21.093  0.00  0.00    +0.069 C 
ATOM      2  C   UNL     1       6.178  -5.186  22.557  0.00  0.00    +0.080 A 
ATOM      3  C   UNL     1       6.741  -4.002  23.035  0.00  0.00    +0.142 A 
ATOM      4  C   UNL     1       6.759  -3.736  24.419  0.00  0.00    +0.016 A 
ATOM      5  C   UNL     1       6.202  -4.699  25.287  0.00  0.00    +0.005 A 
ATOM      6  C   UNL     1       5.638  -5.839  24.704  0.00  0.00    +0.117 A 
ATOM      7  N   UNL     1       5.617  -6.101  23.379  0.00  0.00    -0.256 NA
ENDROOT
BRANCH   3   8
ATOM      8  O   UNL     1       7.280  -3.116  22.139  0.00  0.00    -0.505 OA
ATOM      9  H   UNL     1       7.948  -2.584  22.614  0.00  0.00    +0.292 HD
ENDBRANCH   3   8
BRANCH   4  10
ATOM     10  C   UNL     1       7.437  -2.491  24.942  0.00  0.00    +0.121 C 
BRANCH  10  11
ATOM     11  N   UNL     1       8.885  -2.486  24.672  0.00  0.00    -0.300 NA
ATOM     12  H   UNL     1       9.061  -3.173  23.929  0.00  0.00    +0.123 HD
BRANCH  11  13
ATOM     13  C   UNL     1       9.346  -1.164  24.137  0.00  0.00    +0.171 C 
ATOM     14  C   UNL     1       9.934  -1.277  22.743  0.00  0.00    +0.255 C 
ATOM     15  O   UNL     1      10.940  -1.902  22.428  0.00  0.00    -0.272 OA
ATOM     16  N   UNL     1       9.038  -0.720  21.864  0.00  0.00    -0.193 N 
ATOM     17  H   UNL     1       9.087  -0.751  20.853  0.00  0.00    +0.182 HD
ATOM     18  O   UNL     1       7.882  -0.228  22.512  0.00  0.00    -0.278 OA
ATOM     19  C   UNL     1       8.251  -0.125  23.896  0.00  0.00    +0.218 C 
ENDBRANCH  11  13
ENDBRANCH  10  11
ENDBRANCH   4  10
BRANCH   5  20
ATOM     20  C   UNL     1       6.146  -4.552  26.787  0.00  0.00    +0.209 C 
BRANCH  20  21
ATOM     21  O   UNL     1       5.332  -5.571  27.338  0.00  0.00    -0.282 OA
BRANCH  21  22
ATOM     22  P   UNL     1       5.918  -6.159  28.856  0.00  0.00    +0.473 P 
ATOM     23  O   UNL     1       6.442  -6.686  30.214  0.00  0.00    -0.228 OA
BRANCH  22  24
ATOM     24  O   UNL     1       7.378  -6.225  28.114  0.00  0.00    -0.303 OA
ATOM     25  H   UNL     1       7.289  -6.383  27.158  0.00  0.00    +0.222 HD
ENDBRANCH  22  24
BRANCH  22  26
ATOM     26  O   UNL     1       5.403  -7.601  28.283  0.00  0.00    -0.303 OA
ATOM     27  H   UNL     1       4.497  -7.725  28.619  0.00  0.00    +0.222 HD
ENDBRANCH  22  26
ENDBRANCH  21  22
ENDBRANCH  20  21
ENDBRANCH   5  20
TORSDOF 9
ENDMDL
MODEL 3
REMARK VINA RESULT:      -6.1      1.595      2.060
REMARK  Name = 
REMARK  10 active torsions:
REMARK  status: ('A' for Active; 'I' for Inactive)
REMARK    1  A    between atoms: C_1  and  C_2
REMARK    2  A    between atoms: C_5  and  C_6
REMARK    3  A    between atoms: C_6  and  O_7
REMARK    4  A    between atoms: O_7  and  P_8
REMARK    5  A    between atoms: P_8  and  O_9
REMARK    6  A    between atoms: P_8  and  O_10
REMARK    7  A    between atoms: C_12  and  C_13
REMARK    8  A    between atoms: C_13  and  N_14
REMARK    9  A    between atoms: N_14  and  C_15
REMARK   10  A    between atoms: C_22  and  O_23
REMARK                            x       y       z     vdW  Elec       q    Type
REMARK                         _______ _______ _______ _____ _____    ______ ____
ROOT
ATOM      1  C   UNL     1      10.857   1.162  24.278  0.00  0.00    +0.069 C 
ATOM      2  C   UNL     1      10.139  -0.149  24.157  0.00  0.00    +0.080 A 
ATOM      3  C   UNL     1       9.462  -0.711  25.241  0.00  0.00    +0.142 A 
ATOM      4  C   UNL     1       8.812  -1.953  25.100  0.00  0.00    +0.016 A 
ATOM      5  C   UNL     1       8.877  -2.599  23.848  0.00  0.00    +0.005 A 
ATOM      6  C   UNL     1       9.558  -1.938  22.820  0.00  0.00    +0.117 A 
ATOM      7  N   UNL     1      10.184  -0.747  22.945  0.00  0.00    -0.256 NA
ENDROOT
BRANCH   3   8
ATOM      8  O   UNL     1       9.451  -0.038  26.435  0.00  0.00    -0.505 OA
ATOM      9  H   UNL     1       9.674  -0.679  27.137  0.00  0.00    +0.292 HD
ENDBRANCH   3   8
BRANCH   4  10
ATOM     10  C   UNL     1       8.145  -2.596  26.294  0.00  0.00    +0.121 C 
BRANCH  10  11
ATOM     11  N   UNL     1       6.675  -2.573  26.195  0.00  0.00    -0.300 NA
ATOM     12  H   UNL     1       6.434  -2.622  25.199  0.00  0.00    +0.123 HD
BRANCH  11  13
ATOM     13  C   UNL     1       6.056  -3.779  26.837  0.00  0.00    +0.171 C 
ATOM     14  C   UNL     1       5.052  -4.465  25.929  0.00  0.00    +0.255 C 
ATOM     15  O   UNL     1       4.003  -3.985  25.515  0.00  0.00    -0.272 OA
ATOM     16  N   UNL     1       5.613  -5.641  25.496  0.00  0.00    -0.193 N 
ATOM     17  H   UNL     1       5.242  -6.260  24.787  0.00  0.00    +0.182 HD
ATOM     18  O   UNL     1       6.913  -5.841  26.016  0.00  0.00    -0.278 OA
ATOM     19  C   UNL     1       7.008  -4.939  27.129  0.00  0.00    +0.218 C 
ENDBRANCH  11  13
ENDBRANCH  10  11
ENDBRANCH   4  10
BRANCH   5  20
ATOM     20  C   UNL     1       8.228  -3.927  23.548  0.00  0.00    +0.209 C 
BRANCH  20  21
ATOM     21  O   UNL     1       6.862  -3.731  23.232  0.00  0.00    -0.282 OA
BRANCH  21  22
ATOM     22  P   UNL     1       6.338  -4.676  21.880  0.00  0.00    +0.473 P 
ATOM     23  O   UNL     1       5.869  -5.522  20.672  0.00  0.00    -0.228 OA
BRANCH  22  24
ATOM     24  O   UNL     1       4.834  -4.494  22.507  0.00  0.00    -0.303 OA
ATOM     25  H   UNL     1       4.771  -4.864  23.405  0.00  0.00    +0.222 HD
ENDBRANCH  22  24
BRANCH  22  26
ATOM     26  O   UNL     1       6.740  -5.935  22.843  0.00  0.00    -0.303 OA
ATOM     27  H   UNL     1       7.018  -6.658  22.252  0.00  0.00    +0.222 HD
ENDBRANCH  22  26
ENDBRANCH  21  22
ENDBRANCH  20  21
ENDBRANCH   5  20
TORSDOF 9
ENDMDL
MODEL 4
REMARK VINA RESULT:      -5.9      2.450      3.898
REMARK  Name = 
REMARK  10 active torsions:
REMARK  status: ('A' for Active; 'I' for Inactive)
REMARK    1  A    between atoms: C_1  and  C_2
REMARK    2  A    between atoms: C_5  and  C_6
REMARK    3  A    between atoms: C_6  and  O_7
REMARK    4  A    between atoms: O_7  and  P_8
REMARK    5  A    between atoms: P_8  and  O_9
REMARK    6  A    between atoms: P_8  and  O_10
REMARK    7  A    between atoms: C_12  and  C_13
REMARK    8  A    between atoms: C_13  and  N_14
REMARK    9  A    between atoms: N_14  and  C_15
REMARK   10  A    between atoms: C_22  and  O_23
REMARK                            x       y       z     vdW  Elec       q    Type
REMARK                         _______ _______ _______ _____ _____    ______ ____
ROOT
ATOM      1  C   UNL     1      10.459   2.370  22.523  0.00  0.00    +0.069 C 
ATOM      2  C   UNL     1       9.965   1.172  23.277  0.00  0.00    +0.080 A 
ATOM      3  C   UNL     1       8.993   0.325  22.744  0.00  0.00    +0.142 A 
ATOM      4  C   UNL     1       8.536  -0.782  23.485  0.00  0.00    +0.016 A 
ATOM      5  C   UNL     1       9.084  -0.993  24.768  0.00  0.00    +0.005 A 
ATOM      6  C   UNL     1      10.072  -0.102  25.199  0.00  0.00    +0.117 A 
ATOM      7  N   UNL     1      10.516   0.962  24.494  0.00  0.00    -0.256 NA
ENDROOT
BRANCH   3   8
ATOM      8  O   UNL     1       8.490   0.596  21.498  0.00  0.00    -0.505 OA
ATOM      9  H   UNL     1       9.038   0.116  20.847  0.00  0.00    +0.292 HD
ENDBRANCH   3   8
BRANCH   4  10
ATOM     10  C   UNL     1       7.429  -1.654  22.939  0.00  0.00    +0.121 C 
BRANCH  10  11
ATOM     11  N   UNL     1       7.927  -2.946  22.438  0.00  0.00    -0.300 NA
ATOM     12  H   UNL     1       8.300  -3.463  23.243  0.00  0.00    +0.123 HD
BRANCH  11  13
ATOM     13  C   UNL     1       6.821  -3.788  21.875  0.00  0.00    +0.171 C 
ATOM     14  C   UNL     1       6.799  -5.184  22.468  0.00  0.00    +0.255 C 
ATOM     15  O   UNL     1       7.676  -6.033  22.358  0.00  0.00    -0.272 OA
ATOM     16  N   UNL     1       5.715  -5.265  23.307  0.00  0.00    -0.193 N 
ATOM     17  H   UNL     1       5.499  -6.026  23.940  0.00  0.00    +0.182 HD
ATOM     18  O   UNL     1       4.979  -4.059  23.356  0.00  0.00    -0.278 OA
ATOM     19  C   UNL     1       5.401  -3.323  22.198  0.00  0.00    +0.218 C 
ENDBRANCH  11  13
ENDBRANCH  10  11
ENDBRANCH   4  10
BRANCH   5  20
ATOM     20  C   UNL     1       8.696  -2.136  25.674  0.00  0.00    +0.209 C 
BRANCH  20  21
ATOM     21  O   UNL     1       9.253  -3.343  25.187  0.00  0.00    -0.282 OA
BRANCH  21  22
ATOM     22  P   UNL     1       8.478  -4.752  25.824  0.00  0.00    +0.473 P 
ATOM     23  O   UNL     1       7.785  -6.013  26.394  0.00  0.00    -0.228 OA
BRANCH  22  24
ATOM     24  O   UNL     1       9.589  -4.656  27.025  0.00  0.00    -0.303 OA
ATOM     25  H   UNL     1       9.228  -4.962  27.875  0.00  0.00    +0.222 HD
ENDBRANCH  22  24
BRANCH  22  26
ATOM     26  O   UNL     1       9.464  -5.536  24.782  0.00  0.00    -0.303 OA
ATOM     27  H   UNL     1       8.887  -5.964  24.124  0.00  0.00    +0.222 HD
ENDBRANCH  22  26
ENDBRANCH  21  22
ENDBRANCH  20  21
ENDBRANCH   5  20
TORSDOF 9
ENDMDL
MODEL 5
REMARK VINA RESULT:      -5.6      2.724      4.404
REMARK  Name = 
REMARK  10 active torsions:
REMARK  status: ('A' for Active; 'I' for Inactive)
REMARK    1  A    between atoms: C_1  and  C_2
REMARK    2  A    between atoms: C_5  and  C_6
REMARK    3  A    between atoms: C_6  and  O_7
REMARK    4  A    between atoms: O_7  and  P_8
REMARK    5  A    between atoms: P_8  and  O_9
REMARK    6  A    between atoms: P_8  and  O_10
REMARK    7  A    between atoms: C_12  and  C_13
REMARK    8  A    between atoms: C_13  and  N_14
REMARK    9  A    between atoms: N_14  and  C_15
REMARK   10  A    between atoms: C_22  and  O_23
REMARK                            x       y       z     vdW  Elec       q    Type
REMARK                         _______ _______ _______ _____ _____    ______ ____
ROOT
ATOM      1  C   UNL     1       8.939   0.880  22.513  0.00  0.00    +0.069 C 
ATOM      2  C   UNL     1       8.816  -0.217  23.528  0.00  0.00    +0.080 A 
ATOM      3  C   UNL     1       8.766  -1.559  23.147  0.00  0.00    +0.142 A 
ATOM      4  C   UNL     1       8.633  -2.566  24.124  0.00  0.00    +0.016 A 
ATOM      5  C   UNL     1       8.544  -2.172  25.476  0.00  0.00    +0.005 A 
ATOM      6  C   UNL     1       8.631  -0.804  25.752  0.00  0.00    +0.117 A 
ATOM      7  N   UNL     1       8.760   0.168  24.823  0.00  0.00    -0.256 NA
ENDROOT
BRANCH   3   8
ATOM      8  O   UNL     1       8.842  -1.873  21.815  0.00  0.00    -0.505 OA
ATOM      9  H   UNL     1       8.971  -2.839  21.746  0.00  0.00    +0.292 HD
ENDBRANCH   3   8
BRANCH   4  10
ATOM     10  C   UNL     1       8.502  -4.012  23.706  0.00  0.00    +0.121 C 
BRANCH  10  11
ATOM     11  N   UNL     1       7.111  -4.492  23.773  0.00  0.00    -0.300 NA
ATOM     12  H   UNL     1       6.523  -3.793  23.306  0.00  0.00    +0.123 HD
BRANCH  11  13
ATOM     13  C   UNL     1       6.927  -5.771  23.011  0.00  0.00    +0.171 C 
ATOM     14  C   UNL     1       5.506  -6.295  23.098  0.00  0.00    +0.255 C 
ATOM     15  O   UNL     1       4.930  -6.666  24.114  0.00  0.00    -0.272 OA
ATOM     16  N   UNL     1       4.913  -6.102  21.875  0.00  0.00    -0.193 N 
ATOM     17  H   UNL     1       3.934  -6.237  21.652  0.00  0.00    +0.182 HD
ATOM     18  O   UNL     1       5.785  -5.494  20.943  0.00  0.00    -0.278 OA
ATOM     19  C   UNL     1       7.098  -5.672  21.496  0.00  0.00    +0.218 C 
ENDBRANCH  11  13
ENDBRANCH  10  11
ENDBRANCH   4  10
BRANCH   5  20
ATOM     20  C   UNL     1       8.402  -3.135  26.628  0.00  0.00    +0.209 C 
BRANCH  20  21
ATOM     21  O   UNL     1       7.103  -3.700  26.622  0.00  0.00    -0.282 OA
BRANCH  21  22
ATOM     22  P   UNL     1       6.992  -5.150  27.560  0.00  0.00    +0.473 P 
ATOM     23  O   UNL     1       6.892  -6.447  28.399  0.00  0.00    -0.228 OA
BRANCH  22  24
ATOM     24  O   UNL     1       8.224  -5.691  26.624  0.00  0.00    -0.303 OA
ATOM     25  H   UNL     1       9.048  -5.202  26.795  0.00  0.00    +0.222 HD
ENDBRANCH  22  24
BRANCH  22  26
ATOM     26  O   UNL     1       5.820  -5.532  26.486  0.00  0.00    -0.303 OA
ATOM     27  H   UNL     1       5.253  -6.196  26.919  0.00  0.00    +0.222 HD
ENDBRANCH  22  26
ENDBRANCH  21  22
ENDBRANCH  20  21
ENDBRANCH   5  20
TORSDOF 9
ENDMDL
MODEL 6
REMARK VINA RESULT:      -5.6      2.465      3.659
REMARK  Name = 
REMARK  10 active torsions:
REMARK  status: ('A' for Active; 'I' for Inactive)
REMARK    1  A    between atoms: C_1  and  C_2
REMARK    2  A    between atoms: C_5  and  C_6
REMARK    3  A    between atoms: C_6  and  O_7
REMARK    4  A    between atoms: O_7  and  P_8
REMARK    5  A    between atoms: P_8  and  O_9
REMARK    6  A    between atoms: P_8  and  O_10
REMARK    7  A    between atoms: C_12  and  C_13
REMARK    8  A    between atoms: C_13  and  N_14
REMARK    9  A    between atoms: N_14  and  C_15
REMARK   10  A    between atoms: C_22  and  O_23
REMARK                            x       y       z     vdW  Elec       q    Type
REMARK                         _______ _______ _______ _____ _____    ______ ____
ROOT
ATOM      1  C   UNL     1       8.912   1.265  21.831  0.00  0.00    +0.069 C 
ATOM      2  C   UNL     1       8.743   0.322  22.984  0.00  0.00    +0.080 A 
ATOM      3  C   UNL     1       7.487  -0.172  23.343  0.00  0.00    +0.142 A 
ATOM      4  C   UNL     1       7.358  -1.042  24.443  0.00  0.00    +0.016 A 
ATOM      5  C   UNL     1       8.525  -1.382  25.160  0.00  0.00    +0.005 A 
ATOM      6  C   UNL     1       9.737  -0.855  24.702  0.00  0.00    +0.117 A 
ATOM      7  N   UNL     1       9.869  -0.021  23.648  0.00  0.00    -0.256 NA
ENDROOT
BRANCH   3   8
ATOM      8  O   UNL     1       6.392   0.212  22.613  0.00  0.00    -0.505 OA
ATOM      9  H   UNL     1       6.399   1.187  22.560  0.00  0.00    +0.292 HD
ENDBRANCH   3   8
BRANCH   4  10
ATOM     10  C   UNL     1       5.991  -1.515  24.877  0.00  0.00    +0.121 C 
BRANCH  10  11
ATOM     11  N   UNL     1       5.449  -2.556  23.988  0.00  0.00    -0.300 NA
ATOM     12  H   UNL     1       6.200  -3.236  23.818  0.00  0.00    +0.123 HD
BRANCH  11  13
ATOM     13  C   UNL     1       4.334  -3.319  24.640  0.00  0.00    +0.171 C 
ATOM     14  C   UNL     1       4.076  -4.654  23.967  0.00  0.00    +0.255 C 
ATOM     15  O   UNL     1       3.693  -4.824  22.815  0.00  0.00    -0.272 OA
ATOM     16  N   UNL     1       4.530  -5.641  24.806  0.00  0.00    -0.193 N 
ATOM     17  H   UNL     1       4.609  -6.627  24.589  0.00  0.00    +0.182 HD
ATOM     18  O   UNL     1       5.079  -5.122  26.001  0.00  0.00    -0.278 OA
ATOM     19  C   UNL     1       4.591  -3.774  26.076  0.00  0.00    +0.218 C 
ENDBRANCH  11  13
ENDBRANCH  10  11
ENDBRANCH   4  10
BRANCH   5  20
ATOM     20  C   UNL     1       8.543  -2.304  26.355  0.00  0.00    +0.209 C 
BRANCH  20  21
ATOM     21  O   UNL     1       7.814  -3.482  26.061  0.00  0.00    -0.282 OA
BRANCH  21  22
ATOM     22  P   UNL     1       8.771  -4.693  25.280  0.00  0.00    +0.473 P 
ATOM     23  O   UNL     1       9.628  -5.777  24.583  0.00  0.00    -0.228 OA
BRANCH  22  24
ATOM     24  O   UNL     1       7.510  -4.832  24.243  0.00  0.00    -0.303 OA
ATOM     25  H   UNL     1       7.470  -5.717  23.841  0.00  0.00    +0.222 HD
ENDBRANCH  22  24
BRANCH  22  26
ATOM     26  O   UNL     1       8.125  -5.671  26.420  0.00  0.00    -0.303 OA
ATOM     27  H   UNL     1       7.945  -5.110  27.196  0.00  0.00    +0.222 HD
ENDBRANCH  22  26
ENDBRANCH  21  22
ENDBRANCH  20  21
ENDBRANCH   5  20
TORSDOF 9
ENDMDL
MODEL 7
REMARK VINA RESULT:      -5.5      2.895      4.283
REMARK  Name = 
REMARK  10 active torsions:
REMARK  status: ('A' for Active; 'I' for Inactive)
REMARK    1  A    between atoms: C_1  and  C_2
REMARK    2  A    between atoms: C_5  and  C_6
REMARK    3  A    between atoms: C_6  and  O_7
REMARK    4  A    between atoms: O_7  and  P_8
REMARK    5  A    between atoms: P_8  and  O_9
REMARK    6  A    between atoms: P_8  and  O_10
REMARK    7  A    between atoms: C_12  and  C_13
REMARK    8  A    between atoms: C_13  and  N_14
REMARK    9  A    between atoms: N_14  and  C_15
REMARK   10  A    between atoms: C_22  and  O_23
REMARK                            x       y       z     vdW  Elec       q    Type
REMARK                         _______ _______ _______ _____ _____    ______ ____
ROOT
ATOM      1  C   UNL     1       7.834   1.797  24.299  0.00  0.00    +0.069 C 
ATOM      2  C   UNL     1       7.342   0.550  24.970  0.00  0.00    +0.080 A 
ATOM      3  C   UNL     1       6.637  -0.427  24.266  0.00  0.00    +0.142 A 
ATOM      4  C   UNL     1       6.172  -1.580  24.929  0.00  0.00    +0.016 A 
ATOM      5  C   UNL     1       6.434  -1.702  26.310  0.00  0.00    +0.005 A 
ATOM      6  C   UNL     1       7.172  -0.680  26.916  0.00  0.00    +0.117 A 
ATOM      7  N   UNL     1       7.622   0.428  26.288  0.00  0.00    -0.256 NA
ENDROOT
BRANCH   3   8
ATOM      8  O   UNL     1       6.402  -0.239  22.928  0.00  0.00    -0.505 OA
ATOM      9  H   UNL     1       5.492   0.104  22.833  0.00  0.00    +0.292 HD
ENDBRANCH   3   8
BRANCH   4  10
ATOM     10  C   UNL     1       5.343  -2.599  24.183  0.00  0.00    +0.121 C 
BRANCH  10  11
ATOM     11  N   UNL     1       6.158  -3.439  23.288  0.00  0.00    -0.300 NA
ATOM     12  H   UNL     1       6.747  -4.035  23.881  0.00  0.00    +0.123 HD
BRANCH  11  13
ATOM     13  C   UNL     1       5.310  -4.366  22.471  0.00  0.00    +0.171 C 
ATOM     14  C   UNL     1       6.057  -5.622  22.062  0.00  0.00    +0.255 C 
ATOM     15  O   UNL     1       7.043  -5.676  21.337  0.00  0.00    -0.272 OA
ATOM     16  N   UNL     1       5.554  -6.667  22.798  0.00  0.00    -0.193 N 
ATOM     17  H   UNL     1       5.927  -7.608  22.840  0.00  0.00    +0.182 HD
ATOM     18  O   UNL     1       4.528  -6.260  23.680  0.00  0.00    -0.278 OA
ATOM     19  C   UNL     1       4.108  -4.977  23.191  0.00  0.00    +0.218 C 
ENDBRANCH  11  13
ENDBRANCH  10  11
ENDBRANCH   4  10
BRANCH   5  20
ATOM     20  C   UNL     1       6.002  -2.879  27.150  0.00  0.00    +0.209 C 
BRANCH  20  21
ATOM     21  O   UNL     1       6.930  -3.938  27.002  0.00  0.00    -0.282 OA
BRANCH  21  22
ATOM     22  P   UNL     1       6.185  -5.499  27.028  0.00  0.00    +0.473 P 
ATOM     23  O   UNL     1       5.519  -6.896  27.051  0.00  0.00    -0.228 OA
BRANCH  22  24
ATOM     24  O   UNL     1       7.583  -6.007  27.716  0.00  0.00    -0.303 OA
ATOM     25  H   UNL     1       7.887  -6.850  27.336  0.00  0.00    +0.222 HD
ENDBRANCH  22  24
BRANCH  22  26
ATOM     26  O   UNL     1       6.744  -5.585  25.494  0.00  0.00    -0.303 OA
ATOM     27  H   UNL     1       7.290  -6.391  25.443  0.00  0.00    +0.222 HD
ENDBRANCH  22  26
ENDBRANCH  21  22
ENDBRANCH  20  21
ENDBRANCH   5  20
TORSDOF 9
ENDMDL
MODEL 8
REMARK VINA RESULT:      -5.5      2.786      5.059
REMARK  Name = 
REMARK  10 active torsions:
REMARK  status: ('A' for Active; 'I' for Inactive)
REMARK    1  A    between atoms: C_1  and  C_2
REMARK    2  A    between atoms: C_5  and  C_6
REMARK    3  A    between atoms: C_6  and  O_7
REMARK    4  A    between atoms: O_7  and  P_8
REMARK    5  A    between atoms: P_8  and  O_9
REMARK    6  A    between atoms: P_8  and  O_10
REMARK    7  A    between atoms: C_12  and  C_13
REMARK    8  A    between atoms: C_13  and  N_14
REMARK    9  A    between atoms: N_14  and  C_15
REMARK   10  A    between atoms: C_22  and  O_23
REMARK                            x       y       z     vdW  Elec       q    Type
REMARK                         _______ _______ _______ _____ _____    ______ ____
ROOT
ATOM      1  C   UNL     1       6.439  -5.129  21.120  0.00  0.00    +0.069 C 
ATOM      2  C   UNL     1       6.861  -4.268  22.273  0.00  0.00    +0.080 A 
ATOM      3  C   UNL     1       7.601  -4.787  23.336  0.00  0.00    +0.142 A 
ATOM      4  C   UNL     1       7.967  -3.956  24.414  0.00  0.00    +0.016 A 
ATOM      5  C   UNL     1       7.557  -2.607  24.380  0.00  0.00    +0.005 A 
ATOM      6  C   UNL     1       6.843  -2.181  23.256  0.00  0.00    +0.117 A 
ATOM      7  N   UNL     1       6.487  -2.970  22.219  0.00  0.00    -0.256 NA
ENDROOT
BRANCH   3   8
ATOM      8  O   UNL     1       7.953  -6.111  23.314  0.00  0.00    -0.505 OA
ATOM      9  H   UNL     1       8.561  -6.243  22.560  0.00  0.00    +0.292 HD
ENDBRANCH   3   8
BRANCH   4  10
ATOM     10  C   UNL     1       8.702  -4.536  25.600  0.00  0.00    +0.121 C 
BRANCH  10  11
ATOM     11  N   UNL     1       8.029  -5.725  26.150  0.00  0.00    -0.300 NA
ATOM     12  H   UNL     1       8.609  -6.077  26.920  0.00  0.00    +0.123 HD
BRANCH  11  13
ATOM     13  C   UNL     1       6.698  -5.382  26.751  0.00  0.00    +0.171 C 
ATOM     14  C   UNL     1       5.564  -6.182  26.138  0.00  0.00    +0.255 C 
ATOM     15  O   UNL     1       5.194  -6.137  24.971  0.00  0.00    -0.272 OA
ATOM     16  N   UNL     1       5.150  -7.103  27.068  0.00  0.00    -0.193 N 
ATOM     17  H   UNL     1       4.495  -7.859  26.916  0.00  0.00    +0.182 HD
ATOM     18  O   UNL     1       5.888  -7.022  28.272  0.00  0.00    -0.278 OA
ATOM     19  C   UNL     1       6.525  -5.736  28.228  0.00  0.00    +0.218 C 
ENDBRANCH  11  13
ENDBRANCH  10  11
ENDBRANCH   4  10
BRANCH   5  20
ATOM     20  C   UNL     1       7.877  -1.600  25.458  0.00  0.00    +0.209 C 
BRANCH  20  21
ATOM     21  O   UNL     1       8.023  -0.314  24.883  0.00  0.00    -0.282 OA
BRANCH  21  22
ATOM     22  P   UNL     1       9.672   0.201  24.789  0.00  0.00    +0.473 P 
ATOM     23  O   UNL     1      11.147   0.663  24.704  0.00  0.00    -0.228 OA
BRANCH  22  24
ATOM     24  O   UNL     1       9.121   1.625  25.385  0.00  0.00    -0.303 OA
ATOM     25  H   UNL     1       8.216   1.544  25.732  0.00  0.00    +0.222 HD
ENDBRANCH  22  24
BRANCH  22  26
ATOM     26  O   UNL     1       9.282   0.538  23.237  0.00  0.00    -0.303 OA
ATOM     27  H   UNL     1       8.489   1.105  23.268  0.00  0.00    +0.222 HD
ENDBRANCH  22  26
ENDBRANCH  21  22
ENDBRANCH  20  21
ENDBRANCH   5  20
TORSDOF 9
ENDMDL
MODEL 9
REMARK VINA RESULT:      -5.4      3.814      6.354
REMARK  Name = 
REMARK  10 active torsions:
REMARK  status: ('A' for Active; 'I' for Inactive)
REMARK    1  A    between atoms: C_1  and  C_2
REMARK    2  A    between atoms: C_5  and  C_6
REMARK    3  A    between atoms: C_6  and  O_7
REMARK    4  A    between atoms: O_7  and  P_8
REMARK    5  A    between atoms: P_8  and  O_9
REMARK    6  A    between atoms: P_8  and  O_10
REMARK    7  A    between atoms: C_12  and  C_13
REMARK    8  A    between atoms: C_13  and  N_14
REMARK    9  A    between atoms: N_14  and  C_15
REMARK   10  A    between atoms: C_22  and  O_23
REMARK                            x       y       z     vdW  Elec       q    Type
REMARK                         _______ _______ _______ _____ _____    ______ ____
ROOT
ATOM      1  C   UNL     1       5.553  -6.492  29.140  0.00  0.00    +0.069 C 
ATOM      2  C   UNL     1       6.117  -6.020  27.834  0.00  0.00    +0.080 A 
ATOM      3  C   UNL     1       5.347  -6.003  26.671  0.00  0.00    +0.142 A 
ATOM      4  C   UNL     1       5.912  -5.570  25.455  0.00  0.00    +0.016 A 
ATOM      5  C   UNL     1       7.265  -5.169  25.458  0.00  0.00    +0.005 A 
ATOM      6  C   UNL     1       7.940  -5.198  26.682  0.00  0.00    +0.117 A 
ATOM      7  N   UNL     1       7.406  -5.611  27.852  0.00  0.00    -0.256 NA
ENDROOT
BRANCH   3   8
ATOM      8  O   UNL     1       4.043  -6.420  26.735  0.00  0.00    -0.505 OA
ATOM      9  H   UNL     1       3.763  -6.374  27.669  0.00  0.00    +0.292 HD
ENDBRANCH   3   8
BRANCH   4  10
ATOM     10  C   UNL     1       5.100  -5.625  24.182  0.00  0.00    +0.121 C 
BRANCH  10  11
ATOM     11  N   UNL     1       4.574  -6.973  23.910  0.00  0.00    -0.300 NA
ATOM     12  H   UNL     1       4.599  -7.496  24.793  0.00  0.00    +0.123 HD
BRANCH  11  13
ATOM     13  C   UNL     1       3.136  -6.934  23.486  0.00  0.00    +0.171 C 
ATOM     14  C   UNL     1       2.251  -7.799  24.364  0.00  0.00    +0.255 C 
ATOM     15  O   UNL     1       2.318  -9.017  24.484  0.00  0.00    -0.272 OA
ATOM     16  N   UNL     1       1.492  -6.965  25.146  0.00  0.00    -0.193 N 
ATOM     17  H   UNL     1       0.895  -7.239  25.916  0.00  0.00    +0.182 HD
ATOM     18  O   UNL     1       1.762  -5.599  24.897  0.00  0.00    -0.278 OA
ATOM     19  C   UNL     1       2.437  -5.582  23.630  0.00  0.00    +0.218 C 
ENDBRANCH  11  13
ENDBRANCH  10  11
ENDBRANCH   4  10
BRANCH   5  20
ATOM     20  C   UNL     1       8.002  -4.680  24.235  0.00  0.00    +0.209 C 
BRANCH  20  21
ATOM     21  O   UNL     1       7.904  -3.269  24.151  0.00  0.00    -0.282 OA
BRANCH  21  22
ATOM     22  P   UNL     1       9.260  -2.543  23.360  0.00  0.00    +0.473 P 
ATOM     23  O   UNL     1      10.474  -1.892  22.653  0.00  0.00    -0.228 OA
BRANCH  22  24
ATOM     24  O   UNL     1      10.147  -3.699  24.110  0.00  0.00    -0.303 OA
ATOM     25  H   UNL     1       9.700  -4.036  24.906  0.00  0.00    +0.222 HD
ENDBRANCH  22  24
BRANCH  22  26
ATOM     26  O   UNL     1       9.230  -1.533  24.645  0.00  0.00    -0.303 OA
ATOM     27  H   UNL     1       8.292  -1.328  24.814  0.00  0.00    +0.222 HD
ENDBRANCH  22  26
ENDBRANCH  21  22
ENDBRANCH  20  21
ENDBRANCH   5  20
TORSDOF 9
ENDMDL
