MODEL 1
REMARK VINA RESULT:      -7.1      0.000      0.000
REMARK  Name = 
REMARK  9 active torsions:
REMARK  status: ('A' for Active; 'I' for Inactive)
REMARK    1  A    between atoms: C_1  and  C_2
REMARK    2  A    between atoms: C_2  and  C_3
REMARK    3  A    between atoms: C_2  and  C_4
REMARK    4  A    between atoms: C_5  and  C_6
REMARK    5  A    between atoms: C_6  and  C_7
REMARK    6  A    between atoms: N_13  and  C_14
REMARK    7  A    between atoms: C_14  and  O_15
REMARK    8  A    between atoms: O_15  and  C_16
REMARK    9  A    between atoms: C_16  and  C_17
REMARK                            x       y       z     vdW  Elec       q    Type
REMARK                         _______ _______ _______ _____ _____    ______ ____
ROOT
ATOM      1  C   UNL     1       6.539  -4.320  26.488  0.00  0.00    +0.039 A 
ATOM      2  C   UNL     1       7.429  -5.296  27.189  0.00  0.00    +0.258 A 
ATOM      3  O   UNL     1       7.054  -5.992  28.124  0.00  0.00    -0.267 OA
ATOM      4  N   UNL     1       8.702  -5.391  26.740  0.00  0.00    -0.275 N 
ATOM      5  H   UNL     1       9.281  -6.089  27.181  0.00  0.00    +0.173 HD
ATOM      6  C   UNL     1       9.173  -4.856  25.589  0.00  0.00    +0.331 A 
ATOM      7  O   UNL     1      10.269  -5.221  25.168  0.00  0.00    -0.246 OA
ATOM      8  N   UNL     1       8.351  -3.932  24.958  0.00  0.00    -0.273 N 
ATOM      9  C   UNL     1       7.050  -3.627  25.432  0.00  0.00    +0.039 A 
ENDROOT
BRANCH   1  11
ATOM     10  C   UNL     1       4.853  -2.859  27.746  0.00  0.00    +0.012 C 
ATOM     11  C   UNL     1       5.122  -4.204  27.053  0.00  0.00    +0.020 C 
ATOM     12  C   UNL     1       4.041  -4.491  26.007  0.00  0.00    +0.012 C 
ENDBRANCH   1  11
BRANCH   8  13
ATOM     13  C   UNL     1       8.881  -3.414  23.699  0.00  0.00    +0.289 C 
BRANCH  13  14
ATOM     14  O   UNL     1       9.831  -2.378  23.892  0.00  0.00    -0.355 OA
BRANCH  14  15
ATOM     15  C   UNL     1      10.214  -1.742  22.673  0.00  0.00    +0.197 C 
BRANCH  15  16
ATOM     16  C   UNL     1      10.195  -0.243  22.851  0.00  0.00    -0.022 A 
ATOM     17  C   UNL     1      10.676   0.359  24.022  0.00  0.00    +0.006 A 
ATOM     18  C   UNL     1      10.738   1.750  24.134  0.00  0.00    +0.000 A 
ATOM     19  C   UNL     1      10.295   2.554  23.087  0.00  0.00    +0.000 A 
ATOM     20  C   UNL     1       9.767   1.969  21.937  0.00  0.00    +0.000 A 
ATOM     21  C   UNL     1       9.711   0.578  21.822  0.00  0.00    +0.006 A 
ENDBRANCH  15  16
ENDBRANCH  14  15
ENDBRANCH  13  14
ENDBRANCH   8  13
BRANCH   9  22
ATOM     22  C   UNL     1       6.223  -2.576  24.671  0.00  0.00    +0.089 C 
BRANCH  22  23
ATOM     23  C   UNL     1       6.625  -1.116  24.845  0.00  0.00    -0.042 A 
ATOM     24  C   UNL     1       6.429  -0.139  23.863  0.00  0.00    +0.004 A 
ATOM     25  C   UNL     1       6.795   1.198  24.081  0.00  0.00    +0.000 A 
ATOM     26  C   UNL     1       7.380   1.570  25.286  0.00  0.00    +0.000 A 
ATOM     27  C   UNL     1       7.621   0.608  26.260  0.00  0.00    +0.000 A 
ATOM     28  C   UNL     1       7.255  -0.726  26.037  0.00  0.00    +0.004 A 
ENDBRANCH  22  23
ENDBRANCH   9  22
TORSDOF 7
ENDMDL
MODEL 2
REMARK VINA RESULT:      -6.8      2.523      6.810
REMARK  Name = 
REMARK  9 active torsions:
REMARK  status: ('A' for Active; 'I' for Inactive)
REMARK    1  A    between atoms: C_1  and  C_2
REMARK    2  A    between atoms: C_2  and  C_3
REMARK    3  A    between atoms: C_2  and  C_4
REMARK    4  A    between atoms: C_5  and  C_6
REMARK    5  A    between atoms: C_6  and  C_7
REMARK    6  A    between atoms: N_13  and  C_14
REMARK    7  A    between atoms: C_14  and  O_15
REMARK    8  A    between atoms: O_15  and  C_16
REMARK    9  A    between atoms: C_16  and  C_17
REMARK                            x       y       z     vdW  Elec       q    Type
REMARK                         _______ _______ _______ _____ _____    ______ ____
ROOT
ATOM      1  C   UNL     1       8.788  -0.545  23.779  0.00  0.00    +0.039 A 
ATOM      2  C   UNL     1       9.675   0.003  24.851  0.00  0.00    +0.258 A 
ATOM      3  O   UNL     1      10.790   0.459  24.630  0.00  0.00    -0.267 OA
ATOM      4  N   UNL     1       9.189  -0.017  26.114  0.00  0.00    -0.275 N 
ATOM      5  H   UNL     1       9.770   0.403  26.824  0.00  0.00    +0.173 HD
ATOM      6  C   UNL     1       7.906  -0.277  26.460  0.00  0.00    +0.331 A 
ATOM      7  O   UNL     1       7.534  -0.018  27.603  0.00  0.00    -0.246 OA
ATOM      8  N   UNL     1       7.096  -0.809  25.466  0.00  0.00    -0.273 N 
ATOM      9  C   UNL     1       7.549  -0.989  24.135  0.00  0.00    +0.039 A 
ENDROOT
BRANCH   1  11
ATOM     10  C   UNL     1       9.783   0.849  21.876  0.00  0.00    +0.012 C 
ATOM     11  C   UNL     1       9.389  -0.550  22.372  0.00  0.00    +0.020 C 
ATOM     12  C   UNL     1      10.568  -1.517  22.235  0.00  0.00    +0.012 C 
ENDBRANCH   1  11
BRANCH   8  13
ATOM     13  C   UNL     1       5.711  -1.033  25.872  0.00  0.00    +0.289 C 
BRANCH  13  14
ATOM     14  O   UNL     1       5.465  -2.378  26.252  0.00  0.00    -0.355 OA
BRANCH  14  15
ATOM     15  C   UNL     1       4.152  -2.820  25.908  0.00  0.00    +0.197 C 
BRANCH  15  16
ATOM     16  C   UNL     1       4.224  -4.189  25.276  0.00  0.00    -0.022 A 
ATOM     17  C   UNL     1       4.962  -5.227  25.862  0.00  0.00    +0.006 A 
ATOM     18  C   UNL     1       4.943  -6.512  25.316  0.00  0.00    +0.000 A 
ATOM     19  C   UNL     1       4.208  -6.767  24.160  0.00  0.00    +0.000 A 
ATOM     20  C   UNL     1       3.511  -5.733  23.537  0.00  0.00    +0.000 A 
ATOM     21  C   UNL     1       3.524  -4.449  24.087  0.00  0.00    +0.006 A 
ENDBRANCH  15  16
ENDBRANCH  14  15
ENDBRANCH  13  14
ENDBRANCH   8  13
BRANCH   9  22
ATOM     22  C   UNL     1       6.579  -1.602  23.109  0.00  0.00    +0.089 C 
BRANCH  22  23
ATOM     23  C   UNL     1       6.761  -3.078  22.777  0.00  0.00    -0.042 A 
ATOM     24  C   UNL     1       6.156  -3.703  21.682  0.00  0.00    +0.004 A 
ATOM     25  C   UNL     1       6.375  -5.061  21.405  0.00  0.00    +0.000 A 
ATOM     26  C   UNL     1       7.193  -5.817  22.237  0.00  0.00    +0.000 A 
ATOM     27  C   UNL     1       7.772  -5.226  23.354  0.00  0.00    +0.000 A 
ATOM     28  C   UNL     1       7.549  -3.870  23.628  0.00  0.00    +0.004 A 
ENDBRANCH  22  23
ENDBRANCH   9  22
TORSDOF 7
ENDMDL
MODEL 3
REMARK VINA RESULT:      -6.2      1.795      3.644
REMARK  Name = 
REMARK  9 active torsions:
REMARK  status: ('A' for Active; 'I' for Inactive)
REMARK    1  A    between atoms: C_1  and  C_2
REMARK    2  A    between atoms: C_2  and  C_3
REMARK    3  A    between atoms: C_2  and  C_4
REMARK    4  A    between atoms: C_5  and  C_6
REMARK    5  A    between atoms: C_6  and  C_7
REMARK    6  A    between atoms: N_13  and  C_14
REMARK    7  A    between atoms: C_14  and  O_15
REMARK    8  A    between atoms: O_15  and  C_16
REMARK    9  A    between atoms: C_16  and  C_17
REMARK                            x       y       z     vdW  Elec       q    Type
REMARK                         _______ _______ _______ _____ _____    ______ ____
ROOT
ATOM      1  C   UNL     1       6.145  -4.890  26.687  0.00  0.00    +0.039 A 
ATOM      2  C   UNL     1       7.307  -5.616  27.288  0.00  0.00    +0.258 A 
ATOM      3  O   UNL     1       7.214  -6.315  28.289  0.00  0.00    -0.267 OA
ATOM      4  N   UNL     1       8.501  -5.475  26.668  0.00  0.00    -0.275 N 
ATOM      5  H   UNL     1       9.268  -6.010  27.047  0.00  0.00    +0.173 HD
ATOM      6  C   UNL     1       8.693  -4.926  25.445  0.00  0.00    +0.331 A 
ATOM      7  O   UNL     1       9.778  -5.084  24.887  0.00  0.00    -0.246 OA
ATOM      8  N   UNL     1       7.619  -4.233  24.906  0.00  0.00    -0.273 N 
ATOM      9  C   UNL     1       6.356  -4.173  25.548  0.00  0.00    +0.039 A 
ENDROOT
BRANCH   1  11
ATOM     10  C   UNL     1       4.232  -6.450  27.365  0.00  0.00    +0.012 C 
ATOM     11  C   UNL     1       4.822  -5.034  27.442  0.00  0.00    +0.020 C 
ATOM     12  C   UNL     1       4.918  -4.573  28.899  0.00  0.00    +0.012 C 
ENDBRANCH   1  11
BRANCH   8  13
ATOM     13  C   UNL     1       7.858  -3.696  23.568  0.00  0.00    +0.289 C 
BRANCH  13  14
ATOM     14  O   UNL     1       8.229  -2.327  23.588  0.00  0.00    -0.355 OA
BRANCH  14  15
ATOM     15  C   UNL     1       9.252  -2.016  22.642  0.00  0.00    +0.197 C 
BRANCH  15  16
ATOM     16  C   UNL     1       9.720  -0.596  22.845  0.00  0.00    -0.022 A 
ATOM     17  C   UNL     1       9.665   0.347  21.809  0.00  0.00    +0.006 A 
ATOM     18  C   UNL     1      10.015   1.679  22.038  0.00  0.00    +0.000 A 
ATOM     19  C   UNL     1      10.451   2.079  23.299  0.00  0.00    +0.000 A 
ATOM     20  C   UNL     1      10.559   1.142  24.326  0.00  0.00    +0.000 A 
ATOM     21  C   UNL     1      10.203  -0.190  24.099  0.00  0.00    +0.006 A 
ENDBRANCH  15  16
ENDBRANCH  14  15
ENDBRANCH  13  14
ENDBRANCH   8  13
BRANCH   9  22
ATOM     22  C   UNL     1       5.232  -3.364  24.876  0.00  0.00    +0.089 C 
BRANCH  22  23
ATOM     23  C   UNL     1       4.009  -4.139  24.398  0.00  0.00    -0.042 A 
ATOM     24  C   UNL     1       2.706  -3.860  24.822  0.00  0.00    +0.004 A 
ATOM     25  C   UNL     1       1.609  -4.587  24.334  0.00  0.00    +0.000 A 
ATOM     26  C   UNL     1       1.809  -5.620  23.424  0.00  0.00    +0.000 A 
ATOM     27  C   UNL     1       3.101  -5.940  23.020  0.00  0.00    +0.000 A 
ATOM     28  C   UNL     1       4.192  -5.212  23.512  0.00  0.00    +0.004 A 
ENDBRANCH  22  23
ENDBRANCH   9  22
TORSDOF 7
ENDMDL
MODEL 4
REMARK VINA RESULT:      -6.0      2.205      6.105
REMARK  Name = 
REMARK  9 active torsions:
REMARK  status: ('A' for Active; 'I' for Inactive)
REMARK    1  A    between atoms: C_1  and  C_2
REMARK    2  A    between atoms: C_2  and  C_3
REMARK    3  A    between atoms: C_2  and  C_4
REMARK    4  A    between atoms: C_5  and  C_6
REMARK    5  A    between atoms: C_6  and  C_7
REMARK    6  A    between atoms: N_13  and  C_14
REMARK    7  A    between atoms: C_14  and  O_15
REMARK    8  A    between atoms: O_15  and  C_16
REMARK    9  A    between atoms: C_16  and  C_17
REMARK                            x       y       z     vdW  Elec       q    Type
REMARK                         _______ _______ _______ _____ _____    ______ ____
ROOT
ATOM      1  C   UNL     1       7.946   0.845  23.632  0.00  0.00    +0.039 A 
ATOM      2  C   UNL     1       8.373   1.156  22.233  0.00  0.00    +0.258 A 
ATOM      3  O   UNL     1       8.127   2.219  21.678  0.00  0.00    -0.267 OA
ATOM      4  N   UNL     1       9.067   0.194  21.580  0.00  0.00    -0.275 N 
ATOM      5  H   UNL     1       9.398   0.431  20.657  0.00  0.00    +0.173 HD
ATOM      6  C   UNL     1       9.595  -0.916  22.145  0.00  0.00    +0.331 A 
ATOM      7  O   UNL     1      10.411  -1.578  21.506  0.00  0.00    -0.246 OA
ATOM      8  N   UNL     1       9.174  -1.211  23.435  0.00  0.00    -0.273 N 
ATOM      9  C   UNL     1       8.311  -0.355  24.164  0.00  0.00    +0.039 A 
ENDROOT
BRANCH   1  11
ATOM     10  C   UNL     1       5.613   1.647  24.321  0.00  0.00    +0.012 C 
ATOM     11  C   UNL     1       7.123   1.935  24.322  0.00  0.00    +0.020 C 
ATOM     12  C   UNL     1       7.608   2.235  25.743  0.00  0.00    +0.012 C 
ENDBRANCH   1  11
BRANCH   8  13
ATOM     13  C   UNL     1       9.802  -2.393  24.020  0.00  0.00    +0.289 C 
BRANCH  13  14
ATOM     14  O   UNL     1       9.045  -3.574  23.808  0.00  0.00    -0.355 OA
BRANCH  14  15
ATOM     15  C   UNL     1       8.898  -4.358  24.992  0.00  0.00    +0.197 C 
BRANCH  15  16
ATOM     16  C   UNL     1       7.564  -5.064  24.975  0.00  0.00    -0.022 A 
ATOM     17  C   UNL     1       6.939  -5.472  26.162  0.00  0.00    +0.006 A 
ATOM     18  C   UNL     1       5.663  -6.040  26.136  0.00  0.00    +0.000 A 
ATOM     19  C   UNL     1       5.010  -6.233  24.920  0.00  0.00    +0.000 A 
ATOM     20  C   UNL     1       5.641  -5.878  23.729  0.00  0.00    +0.000 A 
ATOM     21  C   UNL     1       6.914  -5.304  23.755  0.00  0.00    +0.006 A 
ENDBRANCH  15  16
ENDBRANCH  14  15
ENDBRANCH  13  14
ENDBRANCH   8  13
BRANCH   9  22
ATOM     22  C   UNL     1       7.889  -0.778  25.582  0.00  0.00    +0.089 C 
BRANCH  22  23
ATOM     23  C   UNL     1       6.549  -1.492  25.725  0.00  0.00    -0.042 A 
ATOM     24  C   UNL     1       5.787  -1.927  24.636  0.00  0.00    +0.004 A 
ATOM     25  C   UNL     1       4.571  -2.602  24.820  0.00  0.00    +0.000 A 
ATOM     26  C   UNL     1       4.093  -2.834  26.105  0.00  0.00    +0.000 A 
ATOM     27  C   UNL     1       4.815  -2.374  27.201  0.00  0.00    +0.000 A 
ATOM     28  C   UNL     1       6.028  -1.700  27.012  0.00  0.00    +0.004 A 
ENDBRANCH  22  23
ENDBRANCH   9  22
TORSDOF 7
ENDMDL
MODEL 5
REMARK VINA RESULT:      -6.0      2.653      6.937
REMARK  Name = 
REMARK  9 active torsions:
REMARK  status: ('A' for Active; 'I' for Inactive)
REMARK    1  A    between atoms: C_1  and  C_2
REMARK    2  A    between atoms: C_2  and  C_3
REMARK    3  A    between atoms: C_2  and  C_4
REMARK    4  A    between atoms: C_5  and  C_6
REMARK    5  A    between atoms: C_6  and  C_7
REMARK    6  A    between atoms: N_13  and  C_14
REMARK    7  A    between atoms: C_14  and  O_15
REMARK    8  A    between atoms: O_15  and  C_16
REMARK    9  A    between atoms: C_16  and  C_17
REMARK                            x       y       z     vdW  Elec       q    Type
REMARK                         _______ _______ _______ _____ _____    ______ ____
ROOT
ATOM      1  C   UNL     1       8.993   0.401  23.617  0.00  0.00    +0.039 A 
ATOM      2  C   UNL     1       9.433   1.666  24.284  0.00  0.00    +0.258 A 
ATOM      3  O   UNL     1      10.395   2.323  23.906  0.00  0.00    -0.267 OA
ATOM      4  N   UNL     1       8.707   2.077  25.350  0.00  0.00    -0.275 N 
ATOM      5  H   UNL     1       8.976   2.958  25.761  0.00  0.00    +0.173 HD
ATOM      6  C   UNL     1       7.507   1.577  25.725  0.00  0.00    +0.331 A 
ATOM      7  O   UNL     1       6.835   2.196  26.549  0.00  0.00    -0.246 OA
ATOM      8  N   UNL     1       7.118   0.389  25.120  0.00  0.00    -0.273 N 
ATOM      9  C   UNL     1       7.884  -0.226  24.098  0.00  0.00    +0.039 A 
ENDROOT
BRANCH   1  11
ATOM     10  C   UNL     1      10.532  -1.421  22.685  0.00  0.00    +0.012 C 
ATOM     11  C   UNL     1       9.865  -0.058  22.446  0.00  0.00    +0.020 C 
ATOM     12  C   UNL     1       9.114  -0.057  21.112  0.00  0.00    +0.012 C 
ENDBRANCH   1  11
BRANCH   8  13
ATOM     13  C   UNL     1       5.798  -0.089  25.523  0.00  0.00    +0.289 C 
BRANCH  13  14
ATOM     14  O   UNL     1       5.860  -1.037  26.577  0.00  0.00    -0.355 OA
BRANCH  14  15
ATOM     15  C   UNL     1       4.645  -1.769  26.737  0.00  0.00    +0.197 C 
BRANCH  15  16
ATOM     16  C   UNL     1       4.887  -3.230  26.448  0.00  0.00    -0.022 A 
ATOM     17  C   UNL     1       5.494  -4.070  27.392  0.00  0.00    +0.006 A 
ATOM     18  C   UNL     1       5.627  -5.439  27.146  0.00  0.00    +0.000 A 
ATOM     19  C   UNL     1       5.179  -5.978  25.942  0.00  0.00    +0.000 A 
ATOM     20  C   UNL     1       4.619  -5.146  24.974  0.00  0.00    +0.000 A 
ATOM     21  C   UNL     1       4.480  -3.778  25.222  0.00  0.00    +0.006 A 
ENDBRANCH  15  16
ENDBRANCH  14  15
ENDBRANCH  13  14
ENDBRANCH   8  13
BRANCH   9  22
ATOM     22  C   UNL     1       7.375  -1.551  23.501  0.00  0.00    +0.089 C 
BRANCH  22  23
ATOM     23  C   UNL     1       7.887  -2.840  24.133  0.00  0.00    -0.042 A 
ATOM     24  C   UNL     1       8.486  -2.895  25.396  0.00  0.00    +0.004 A 
ATOM     25  C   UNL     1       8.919  -4.112  25.944  0.00  0.00    +0.000 A 
ATOM     26  C   UNL     1       8.773  -5.291  25.222  0.00  0.00    +0.000 A 
ATOM     27  C   UNL     1       8.217  -5.253  23.948  0.00  0.00    +0.000 A 
ATOM     28  C   UNL     1       7.787  -4.036  23.404  0.00  0.00    +0.004 A 
ENDBRANCH  22  23
ENDBRANCH   9  22
TORSDOF 7
ENDMDL
MODEL 6
REMARK VINA RESULT:      -6.0      2.010      5.187
REMARK  Name = 
REMARK  9 active torsions:
REMARK  status: ('A' for Active; 'I' for Inactive)
REMARK    1  A    between atoms: C_1  and  C_2
REMARK    2  A    between atoms: C_2  and  C_3
REMARK    3  A    between atoms: C_2  and  C_4
REMARK    4  A    between atoms: C_5  and  C_6
REMARK    5  A    between atoms: C_6  and  C_7
REMARK    6  A    between atoms: N_13  and  C_14
REMARK    7  A    between atoms: C_14  and  O_15
REMARK    8  A    between atoms: O_15  and  C_16
REMARK    9  A    between atoms: C_16  and  C_17
REMARK                            x       y       z     vdW  Elec       q    Type
REMARK                         _______ _______ _______ _____ _____    ______ ____
ROOT
ATOM      1  C   UNL     1       7.946  -2.890  25.224  0.00  0.00    +0.039 A 
ATOM      2  C   UNL     1       8.644  -4.188  25.479  0.00  0.00    +0.258 A 
ATOM      3  O   UNL     1       9.222  -4.443  26.528  0.00  0.00    -0.267 OA
ATOM      4  N   UNL     1       8.611  -5.104  24.483  0.00  0.00    -0.275 N 
ATOM      5  H   UNL     1       9.037  -5.997  24.682  0.00  0.00    +0.173 HD
ATOM      6  C   UNL     1       7.827  -5.041  23.381  0.00  0.00    +0.331 A 
ATOM      7  O   UNL     1       7.701  -6.046  22.683  0.00  0.00    -0.246 OA
ATOM      8  N   UNL     1       7.203  -3.825  23.138  0.00  0.00    -0.273 N 
ATOM      9  C   UNL     1       7.299  -2.732  24.035  0.00  0.00    +0.039 A 
ENDROOT
BRANCH   1  11
ATOM     10  C   UNL     1       9.036  -0.727  26.054  0.00  0.00    +0.012 C 
ATOM     11  C   UNL     1       8.044  -1.862  26.353  0.00  0.00    +0.020 C 
ATOM     12  C   UNL     1       6.682  -1.289  26.752  0.00  0.00    +0.012 C 
ENDBRANCH   1  11
BRANCH   8  13
ATOM     13  C   UNL     1       6.334  -3.817  21.964  0.00  0.00    +0.289 C 
BRANCH  13  14
ATOM     14  O   UNL     1       4.962  -3.700  22.302  0.00  0.00    -0.355 OA
BRANCH  14  15
ATOM     15  C   UNL     1       4.450  -4.863  22.953  0.00  0.00    +0.197 C 
BRANCH  15  16
ATOM     16  C   UNL     1       4.308  -4.601  24.432  0.00  0.00    -0.022 A 
ATOM     17  C   UNL     1       4.883  -5.455  25.384  0.00  0.00    +0.006 A 
ATOM     18  C   UNL     1       4.823  -5.148  26.745  0.00  0.00    +0.000 A 
ATOM     19  C   UNL     1       4.162  -3.999  27.172  0.00  0.00    +0.000 A 
ATOM     20  C   UNL     1       3.542  -3.167  26.241  0.00  0.00    +0.000 A 
ATOM     21  C   UNL     1       3.608  -3.470  24.879  0.00  0.00    +0.006 A 
ENDBRANCH  15  16
ENDBRANCH  14  15
ENDBRANCH  13  14
ENDBRANCH   8  13
BRANCH   9  22
ATOM     22  C   UNL     1       6.583  -1.420  23.667  0.00  0.00    +0.089 C 
BRANCH  22  23
ATOM     23  C   UNL     1       7.394  -0.374  22.911  0.00  0.00    -0.042 A 
ATOM     24  C   UNL     1       8.621  -0.645  22.298  0.00  0.00    +0.004 A 
ATOM     25  C   UNL     1       9.318   0.348  21.591  0.00  0.00    +0.000 A 
ATOM     26  C   UNL     1       8.798   1.635  21.506  0.00  0.00    +0.000 A 
ATOM     27  C   UNL     1       7.599   1.935  22.142  0.00  0.00    +0.000 A 
ATOM     28  C   UNL     1       6.908   0.942  22.847  0.00  0.00    +0.004 A 
ENDBRANCH  22  23
ENDBRANCH   9  22
TORSDOF 7
ENDMDL
MODEL 7
REMARK VINA RESULT:      -6.0      2.457      3.106
REMARK  Name = 
REMARK  9 active torsions:
REMARK  status: ('A' for Active; 'I' for Inactive)
REMARK    1  A    between atoms: C_1  and  C_2
REMARK    2  A    between atoms: C_2  and  C_3
REMARK    3  A    between atoms: C_2  and  C_4
REMARK    4  A    between atoms: C_5  and  C_6
REMARK    5  A    between atoms: C_6  and  C_7
REMARK    6  A    between atoms: N_13  and  C_14
REMARK    7  A    between atoms: C_14  and  O_15
REMARK    8  A    between atoms: O_15  and  C_16
REMARK    9  A    between atoms: C_16  and  C_17
REMARK                            x       y       z     vdW  Elec       q    Type
REMARK                         _______ _______ _______ _____ _____    ______ ____
ROOT
ATOM      1  C   UNL     1       5.249  -5.362  24.823  0.00  0.00    +0.039 A 
ATOM      2  C   UNL     1       4.308  -5.909  23.798  0.00  0.00    +0.258 A 
ATOM      3  O   UNL     1       3.203  -6.361  24.075  0.00  0.00    -0.267 OA
ATOM      4  N   UNL     1       4.727  -5.886  22.511  0.00  0.00    -0.275 N 
ATOM      5  H   UNL     1       4.066  -6.206  21.819  0.00  0.00    +0.173 HD
ATOM      6  C   UNL     1       5.810  -5.218  22.049  0.00  0.00    +0.331 A 
ATOM      7  O   UNL     1       5.941  -5.065  20.835  0.00  0.00    -0.246 OA
ATOM      8  N   UNL     1       6.691  -4.735  23.006  0.00  0.00    -0.273 N 
ATOM      9  C   UNL     1       6.436  -4.848  24.396  0.00  0.00    +0.039 A 
ENDROOT
BRANCH   1  11
ATOM     10  C   UNL     1       3.537  -4.565  26.553  0.00  0.00    +0.012 C 
ATOM     11  C   UNL     1       4.761  -5.450  26.271  0.00  0.00    +0.020 C 
ATOM     12  C   UNL     1       4.495  -6.889  26.721  0.00  0.00    +0.012 C 
ENDBRANCH   1  11
BRANCH   8  13
ATOM     13  C   UNL     1       7.821  -3.985  22.463  0.00  0.00    +0.289 C 
BRANCH  13  14
ATOM     14  O   UNL     1       7.601  -2.584  22.475  0.00  0.00    -0.355 OA
BRANCH  14  15
ATOM     15  C   UNL     1       8.681  -1.847  21.902  0.00  0.00    +0.197 C 
BRANCH  15  16
ATOM     16  C   UNL     1       9.021  -0.670  22.783  0.00  0.00    -0.022 A 
ATOM     17  C   UNL     1       8.136   0.407  22.937  0.00  0.00    +0.006 A 
ATOM     18  C   UNL     1       8.424   1.444  23.827  0.00  0.00    +0.000 A 
ATOM     19  C   UNL     1       9.613   1.430  24.552  0.00  0.00    +0.000 A 
ATOM     20  C   UNL     1      10.525   0.391  24.372  0.00  0.00    +0.000 A 
ATOM     21  C   UNL     1      10.235  -0.649  23.487  0.00  0.00    +0.006 A 
ENDBRANCH  15  16
ENDBRANCH  14  15
ENDBRANCH  13  14
ENDBRANCH   8  13
BRANCH   9  22
ATOM     22  C   UNL     1       7.483  -4.294  25.379  0.00  0.00    +0.089 C 
BRANCH  22  23
ATOM     23  C   UNL     1       7.322  -2.845  25.822  0.00  0.00    -0.042 A 
ATOM     24  C   UNL     1       6.175  -2.085  25.575  0.00  0.00    +0.004 A 
ATOM     25  C   UNL     1       6.066  -0.761  26.026  0.00  0.00    +0.000 A 
ATOM     26  C   UNL     1       7.120  -0.173  26.717  0.00  0.00    +0.000 A 
ATOM     27  C   UNL     1       8.286  -0.898  26.939  0.00  0.00    +0.000 A 
ATOM     28  C   UNL     1       8.390  -2.219  26.486  0.00  0.00    +0.004 A 
ENDBRANCH  22  23
ENDBRANCH   9  22
TORSDOF 7
ENDMDL
MODEL 8
REMARK VINA RESULT:      -6.0      2.961      7.298
REMARK  Name = 
REMARK  9 active torsions:
REMARK  status: ('A' for Active; 'I' for Inactive)
REMARK    1  A    between atoms: C_1  and  C_2
REMARK    2  A    between atoms: C_2  and  C_3
REMARK    3  A    between atoms: C_2  and  C_4
REMARK    4  A    between atoms: C_5  and  C_6
REMARK    5  A    between atoms: C_6  and  C_7
REMARK    6  A    between atoms: N_13  and  C_14
REMARK    7  A    between atoms: C_14  and  O_15
REMARK    8  A    between atoms: O_15  and  C_16
REMARK    9  A    between atoms: C_16  and  C_17
REMARK                            x       y       z     vdW  Elec       q    Type
REMARK                         _______ _______ _______ _____ _____    ______ ____
ROOT
ATOM      1  C   UNL     1       8.071  -0.202  23.788  0.00  0.00    +0.039 A 
ATOM      2  C   UNL     1       7.649   1.223  23.626  0.00  0.00    +0.258 A 
ATOM      3  O   UNL     1       8.229   2.015  22.894  0.00  0.00    -0.267 OA
ATOM      4  N   UNL     1       6.568   1.623  24.336  0.00  0.00    -0.275 N 
ATOM      5  H   UNL     1       6.256   2.570  24.181  0.00  0.00    +0.173 HD
ATOM      6  C   UNL     1       5.713   0.806  24.994  0.00  0.00    +0.331 A 
ATOM      7  O   UNL     1       4.638   1.260  25.384  0.00  0.00    -0.246 OA
ATOM      8  N   UNL     1       6.123  -0.509  25.161  0.00  0.00    -0.273 N 
ATOM      9  C   UNL     1       7.326  -1.005  24.598  0.00  0.00    +0.039 A 
ENDROOT
BRANCH   1  11
ATOM     10  C   UNL     1       9.189  -0.398  21.492  0.00  0.00    +0.012 C 
ATOM     11  C   UNL     1       9.325  -0.605  23.008  0.00  0.00    +0.020 C 
ATOM     12  C   UNL     1      10.592   0.078  23.529  0.00  0.00    +0.012 C 
ENDBRANCH   1  11
BRANCH   8  13
ATOM     13  C   UNL     1       5.151  -1.363  25.839  0.00  0.00    +0.289 C 
BRANCH  13  14
ATOM     14  O   UNL     1       4.300  -2.046  24.932  0.00  0.00    -0.355 OA
BRANCH  14  15
ATOM     15  C   UNL     1       3.440  -2.985  25.577  0.00  0.00    +0.197 C 
BRANCH  15  16
ATOM     16  C   UNL     1       3.761  -4.381  25.104  0.00  0.00    -0.022 A 
ATOM     17  C   UNL     1       3.227  -4.888  23.910  0.00  0.00    +0.006 A 
ATOM     18  C   UNL     1       3.607  -6.147  23.438  0.00  0.00    +0.000 A 
ATOM     19  C   UNL     1       4.502  -6.924  24.169  0.00  0.00    +0.000 A 
ATOM     20  C   UNL     1       5.002  -6.454  25.382  0.00  0.00    +0.000 A 
ATOM     21  C   UNL     1       4.627  -5.193  25.852  0.00  0.00    +0.006 A 
ENDBRANCH  15  16
ENDBRANCH  14  15
ENDBRANCH  13  14
ENDBRANCH   8  13
BRANCH   9  22
ATOM     22  C   UNL     1       7.701  -2.475  24.855  0.00  0.00    +0.089 C 
BRANCH  22  23
ATOM     23  C   UNL     1       7.375  -3.478  23.753  0.00  0.00    -0.042 A 
ATOM     24  C   UNL     1       7.911  -4.768  23.701  0.00  0.00    +0.004 A 
ATOM     25  C   UNL     1       7.560  -5.662  22.678  0.00  0.00    +0.000 A 
ATOM     26  C   UNL     1       6.676  -5.266  21.681  0.00  0.00    +0.000 A 
ATOM     27  C   UNL     1       6.162  -3.973  21.692  0.00  0.00    +0.000 A 
ATOM     28  C   UNL     1       6.517  -3.084  22.714  0.00  0.00    +0.004 A 
ENDBRANCH  22  23
ENDBRANCH   9  22
TORSDOF 7
ENDMDL
MODEL 9
REMARK VINA RESULT:      -5.8      2.875      6.180
REMARK  Name = 
REMARK  9 active torsions:
REMARK  status: ('A' for Active; 'I' for Inactive)
REMARK    1  A    between atoms: C_1  and  C_2
REMARK    2  A    between atoms: C_2  and  C_3
REMARK    3  A    between atoms: C_2  and  C_4
REMARK    4  A    between atoms: C_5  and  C_6
REMARK    5  A    between atoms: C_6  and  C_7
REMARK    6  A    between atoms: N_13  and  C_14
REMARK    7  A    between atoms: C_14  and  O_15
REMARK    8  A    between atoms: O_15  and  C_16
REMARK    9  A    between atoms: C_16  and  C_17
REMARK                            x       y       z     vdW  Elec       q    Type
REMARK                         _______ _______ _______ _____ _____    ______ ____
ROOT
ATOM      1  C   UNL     1       7.520   2.722  24.506  0.00  0.00    +0.039 A 
ATOM      2  C   UNL     1       7.687   3.540  23.265  0.00  0.00    +0.258 A 
ATOM      3  O   UNL     1       7.129   4.616  23.092  0.00  0.00    -0.267 OA
ATOM      4  N   UNL     1       8.505   3.039  22.310  0.00  0.00    -0.275 N 
ATOM      5  H   UNL     1       8.656   3.621  21.500  0.00  0.00    +0.173 HD
ATOM      6  C   UNL     1       9.347   1.991  22.466  0.00  0.00    +0.331 A 
ATOM      7  O   UNL     1      10.214   1.792  21.616  0.00  0.00    -0.246 OA
ATOM      8  N   UNL     1       9.169   1.221  23.607  0.00  0.00    -0.273 N 
ATOM      9  C   UNL     1       8.222   1.559  24.608  0.00  0.00    +0.039 A 
ENDROOT
BRANCH   1  11
ATOM     10  C   UNL     1       5.179   2.607  25.536  0.00  0.00    +0.012 C 
ATOM     11  C   UNL     1       6.552   3.296  25.542  0.00  0.00    +0.020 C 
ATOM     12  C   UNL     1       7.137   3.307  26.957  0.00  0.00    +0.012 C 
ENDBRANCH   1  11
BRANCH   8  13
ATOM     13  C   UNL     1      10.127   0.128  23.755  0.00  0.00    +0.289 C 
BRANCH  13  14
ATOM     14  O   UNL     1       9.673  -1.078  23.162  0.00  0.00    -0.355 OA
BRANCH  14  15
ATOM     15  C   UNL     1       9.860  -2.215  24.005  0.00  0.00    +0.197 C 
BRANCH  15  16
ATOM     16  C   UNL     1       8.788  -3.239  23.726  0.00  0.00    -0.022 A 
ATOM     17  C   UNL     1       8.479  -4.245  24.654  0.00  0.00    +0.006 A 
ATOM     18  C   UNL     1       7.422  -5.128  24.422  0.00  0.00    +0.000 A 
ATOM     19  C   UNL     1       6.680  -5.034  23.247  0.00  0.00    +0.000 A 
ATOM     20  C   UNL     1       7.007  -4.071  22.294  0.00  0.00    +0.000 A 
ATOM     21  C   UNL     1       8.060  -3.184  22.528  0.00  0.00    +0.006 A 
ENDBRANCH  15  16
ENDBRANCH  14  15
ENDBRANCH  13  14
ENDBRANCH   8  13
BRANCH   9  22
ATOM     22  C   UNL     1       8.090   0.632  25.830  0.00  0.00    +0.089 C 
BRANCH  22  23
ATOM     23  C   UNL     1       7.058  -0.486  25.745  0.00  0.00    -0.042 A 
ATOM     24  C   UNL     1       6.265  -0.721  24.616  0.00  0.00    +0.004 A 
ATOM     25  C   UNL     1       5.346  -1.781  24.579  0.00  0.00    +0.000 A 
ATOM     26  C   UNL     1       5.196  -2.610  25.684  0.00  0.00    +0.000 A 
ATOM     27  C   UNL     1       5.945  -2.370  26.831  0.00  0.00    +0.000 A 
ATOM     28  C   UNL     1       6.860  -1.310  26.864  0.00  0.00    +0.004 A 
ENDBRANCH  22  23
ENDBRANCH   9  22
TORSDOF 7
ENDMDL
