MODEL 1
REMARK VINA RESULT:      -6.5      0.000      0.000
REMARK  Name = 
REMARK  6 active torsions:
REMARK  status: ('A' for Active; 'I' for Inactive)
REMARK    1  A    between atoms: C_1  and  N_2
REMARK    2  A    between atoms: N_4  and  C1*_5
REMARK    3  A    between atoms: C4*_8  and  C5*_10
REMARK    4  A    between atoms: C5*_10  and  O5*_11
REMARK    5  A    between atoms: C3*_12  and  O3*_14
REMARK    6  A    between atoms: C2*_15  and  O2*_17
REMARK                            x       y       z     vdW  Elec       q    Type
REMARK                         _______ _______ _______ _____ _____    ______ ____
ROOT
ATOM      1  C   UNL     1       7.535   0.245  27.487  0.00  0.00    +0.441 C 
ATOM      2  N   UNL     1       8.177  -0.256  26.280  0.00  0.00    -0.178 N 
ATOM      3  C   UNL     1       8.591   0.519  25.201  0.00  0.00    +0.316 A 
ATOM      4  C   UNL     1       8.499   1.915  24.936  0.00  0.00    +0.327 A 
ATOM      5  N   UNL     1       9.019   2.192  23.682  0.00  0.00    -0.290 N 
ATOM      6  H   UNL     1       8.959   3.160  23.401  0.00  0.00    +0.172 HD
ATOM      7  C   UNL     1       9.542   1.265  22.803  0.00  0.00    +0.195 A 
ATOM      8  N   UNL     1       9.639  -0.009  23.059  0.00  0.00    -0.192 NA
ATOM      9  N   UNL     1       9.959   1.753  21.613  0.00  0.00    -0.329 N 
ATOM     10  H   UNL     1      10.516   1.125  21.040  0.00  0.00    +0.145 HD
ATOM     11  H   UNL     1      10.185   2.733  21.495  0.00  0.00    +0.145 HD
ATOM     12  O   UNL     1       8.038   2.806  25.643  0.00  0.00    -0.260 OA
ATOM     13  C   UNL     1       9.147  -0.332  24.277  0.00  0.00    +0.221 A 
ATOM     14  N   UNL     1       9.085  -1.599  24.834  0.00  0.00    -0.244 N 
ATOM     15  C   UNL     1       8.431  -1.542  26.004  0.00  0.00    +0.412 A 
ENDROOT
BRANCH  14  16
ATOM     16  C1* UNL     1       9.552  -2.824  24.189  0.00  0.00    +0.257 C 
ATOM     17  C2* UNL     1       9.320  -4.128  24.975  0.00  0.00    +0.195 C 
ATOM     18  C3* UNL     1       8.065  -4.748  24.354  0.00  0.00    +0.178 C 
ATOM     19  C4* UNL     1       7.640  -3.740  23.297  0.00  0.00    +0.177 C 
ATOM     20  O4* UNL     1       8.820  -2.979  22.971  0.00  0.00    -0.346 OA
BRANCH  17  21
ATOM     21  O2* UNL     1      10.432  -5.032  24.824  0.00  0.00    -0.385 OA
ATOM     22  H2* UNL     1      10.838  -4.913  23.947  0.00  0.00    +0.210 HD
ENDBRANCH  17  21
BRANCH  18  23
ATOM     23  O3* UNL     1       7.044  -4.885  25.339  0.00  0.00    -0.386 OA
ATOM     24  H3* UNL     1       6.192  -4.624  24.944  0.00  0.00    +0.210 HD
ENDBRANCH  18  23
BRANCH  19  25
ATOM     25  C5* UNL     1       7.059  -4.355  22.029  0.00  0.00    +0.190 C 
BRANCH  25  26
ATOM     26  O5* UNL     1       6.916  -5.758  22.244  0.00  0.00    -0.392 OA
ATOM     27  H5* UNL     1       7.773  -6.092  22.569  0.00  0.00    +0.210 HD
ENDBRANCH  25  26
ENDBRANCH  19  25
ENDBRANCH  14  16
TORSDOF 5
ENDMDL
MODEL 2
REMARK VINA RESULT:      -6.4      4.236      7.264
REMARK  Name = 
REMARK  6 active torsions:
REMARK  status: ('A' for Active; 'I' for Inactive)
REMARK    1  A    between atoms: C_1  and  N_2
REMARK    2  A    between atoms: N_4  and  C1*_5
REMARK    3  A    between atoms: C4*_8  and  C5*_10
REMARK    4  A    between atoms: C5*_10  and  O5*_11
REMARK    5  A    between atoms: C3*_12  and  O3*_14
REMARK    6  A    between atoms: C2*_15  and  O2*_17
REMARK                            x       y       z     vdW  Elec       q    Type
REMARK                         _______ _______ _______ _____ _____    ______ ____
ROOT
ATOM      1  C   UNL     1       4.242  -5.757  22.964  0.00  0.00    +0.441 C 
ATOM      2  N   UNL     1       5.092  -5.778  24.145  0.00  0.00    -0.178 N 
ATOM      3  C   UNL     1       4.744  -6.304  25.385  0.00  0.00    +0.316 A 
ATOM      4  C   UNL     1       3.545  -6.905  25.865  0.00  0.00    +0.327 A 
ATOM      5  N   UNL     1       3.682  -7.222  27.207  0.00  0.00    -0.290 N 
ATOM      6  H   UNL     1       2.860  -7.622  27.636  0.00  0.00    +0.172 HD
ATOM      7  C   UNL     1       4.800  -6.988  27.981  0.00  0.00    +0.195 A 
ATOM      8  N   UNL     1       5.900  -6.454  27.531  0.00  0.00    -0.192 NA
ATOM      9  N   UNL     1       4.700  -7.345  29.282  0.00  0.00    -0.329 N 
ATOM     10  H   UNL     1       5.568  -7.359  29.812  0.00  0.00    +0.145 HD
ATOM     11  H   UNL     1       4.014  -8.021  29.592  0.00  0.00    +0.145 HD
ATOM     12  O   UNL     1       2.502  -7.136  25.261  0.00  0.00    -0.260 OA
ATOM     13  C   UNL     1       5.820  -6.127  26.221  0.00  0.00    +0.221 A 
ATOM     14  N   UNL     1       6.806  -5.527  25.456  0.00  0.00    -0.244 N 
ATOM     15  C   UNL     1       6.323  -5.256  24.234  0.00  0.00    +0.412 A 
ENDROOT
BRANCH  14  16
ATOM     16  C1* UNL     1       8.128  -5.139  25.944  0.00  0.00    +0.257 C 
ATOM     17  C2* UNL     1       9.182  -4.835  24.863  0.00  0.00    +0.195 C 
ATOM     18  C3* UNL     1       9.208  -3.309  24.751  0.00  0.00    +0.178 C 
ATOM     19  C4* UNL     1       8.141  -2.848  25.733  0.00  0.00    +0.177 C 
ATOM     20  O4* UNL     1       7.978  -3.922  26.680  0.00  0.00    -0.346 OA
BRANCH  17  21
ATOM     21  O2* UNL     1      10.483  -5.315  25.254  0.00  0.00    -0.385 OA
ATOM     22  H2* UNL     1      11.098  -4.565  25.346  0.00  0.00    +0.210 HD
ENDBRANCH  17  21
BRANCH  18  23
ATOM     23  O3* UNL     1       8.864  -2.905  23.428  0.00  0.00    -0.386 OA
ATOM     24  H3* UNL     1       9.044  -1.951  23.335  0.00  0.00    +0.210 HD
ENDBRANCH  18  23
BRANCH  19  25
ATOM     25  C5* UNL     1       8.472  -1.557  26.472  0.00  0.00    +0.190 C 
BRANCH  25  26
ATOM     26  O5* UNL     1       9.160  -0.694  25.568  0.00  0.00    -0.392 OA
ATOM     27  H5* UNL     1       9.808  -1.238  25.083  0.00  0.00    +0.210 HD
ENDBRANCH  25  26
ENDBRANCH  19  25
ENDBRANCH  14  16
TORSDOF 5
ENDMDL
MODEL 3
REMARK VINA RESULT:      -6.4      3.068      5.929
REMARK  Name = 
REMARK  6 active torsions:
REMARK  status: ('A' for Active; 'I' for Inactive)
REMARK    1  A    between atoms: C_1  and  N_2
REMARK    2  A    between atoms: N_4  and  C1*_5
REMARK    3  A    between atoms: C4*_8  and  C5*_10
REMARK    4  A    between atoms: C5*_10  and  O5*_11
REMARK    5  A    between atoms: C3*_12  and  O3*_14
REMARK    6  A    between atoms: C2*_15  and  O2*_17
REMARK                            x       y       z     vdW  Elec       q    Type
REMARK                         _______ _______ _______ _____ _____    ______ ____
ROOT
ATOM      1  C   UNL     1       6.508  -5.181  27.007  0.00  0.00    +0.441 C 
ATOM      2  N   UNL     1       7.000  -4.709  25.721  0.00  0.00    -0.178 N 
ATOM      3  C   UNL     1       6.557  -5.141  24.475  0.00  0.00    +0.316 A 
ATOM      4  C   UNL     1       5.593  -6.117  24.090  0.00  0.00    +0.327 A 
ATOM      5  N   UNL     1       5.551  -6.216  22.709  0.00  0.00    -0.290 N 
ATOM      6  H   UNL     1       4.915  -6.915  22.352  0.00  0.00    +0.172 HD
ATOM      7  C   UNL     1       6.324  -5.494  21.823  0.00  0.00    +0.195 A 
ATOM      8  N   UNL     1       7.191  -4.590  22.183  0.00  0.00    -0.192 NA
ATOM      9  N   UNL     1       6.144  -5.781  20.514  0.00  0.00    -0.329 N 
ATOM     10  H   UNL     1       6.558  -5.131  19.851  0.00  0.00    +0.145 HD
ATOM     11  H   UNL     1       5.298  -6.228  20.184  0.00  0.00    +0.145 HD
ATOM     12  O   UNL     1       4.876  -6.816  24.800  0.00  0.00    -0.260 OA
ATOM     13  C   UNL     1       7.270  -4.451  23.526  0.00  0.00    +0.221 A 
ATOM     14  N   UNL     1       8.106  -3.593  24.221  0.00  0.00    -0.244 N 
ATOM     15  C   UNL     1       7.984  -3.817  25.538  0.00  0.00    +0.412 A 
ENDROOT
BRANCH  14  16
ATOM     16  C1* UNL     1       9.062  -2.673  23.609  0.00  0.00    +0.257 C 
ATOM     17  C2* UNL     1       8.550  -1.884  22.389  0.00  0.00    +0.195 C 
ATOM     18  C3* UNL     1       8.172  -0.505  22.938  0.00  0.00    +0.178 C 
ATOM     19  C4* UNL     1       8.446  -0.614  24.430  0.00  0.00    +0.177 C 
ATOM     20  O4* UNL     1       9.399  -1.685  24.586  0.00  0.00    -0.346 OA
BRANCH  17  21
ATOM     21  O2* UNL     1       9.579  -1.743  21.391  0.00  0.00    -0.385 OA
ATOM     22  H2* UNL     1       9.545  -2.496  20.773  0.00  0.00    +0.210 HD
ENDBRANCH  17  21
BRANCH  18  23
ATOM     23  O3* UNL     1       6.789  -0.246  22.711  0.00  0.00    -0.386 OA
ATOM     24  H3* UNL     1       6.265  -0.937  23.157  0.00  0.00    +0.210 HD
ENDBRANCH  18  23
BRANCH  19  25
ATOM     25  C5* UNL     1       8.992   0.656  25.072  0.00  0.00    +0.190 C 
BRANCH  25  26
ATOM     26  O5* UNL     1      10.341   0.407  25.467  0.00  0.00    -0.392 OA
ATOM     27  H5* UNL     1      10.316  -0.250  26.187  0.00  0.00    +0.210 HD
ENDBRANCH  25  26
ENDBRANCH  19  25
ENDBRANCH  14  16
TORSDOF 5
ENDMDL
MODEL 4
REMARK VINA RESULT:      -6.4      2.410      6.059
REMARK  Name = 
REMARK  6 active torsions:
REMARK  status: ('A' for Active; 'I' for Inactive)
REMARK    1  A    between atoms: C_1  and  N_2
REMARK    2  A    between atoms: N_4  and  C1*_5
REMARK    3  A    between atoms: C4*_8  and  C5*_10
REMARK    4  A    between atoms: C5*_10  and  O5*_11
REMARK    5  A    between atoms: C3*_12  and  O3*_14
REMARK    6  A    between atoms: C2*_15  and  O2*_17
REMARK                            x       y       z     vdW  Elec       q    Type
REMARK                         _______ _______ _______ _____ _____    ______ ____
ROOT
ATOM      1  C   UNL     1       5.692  -3.010  21.747  0.00  0.00    +0.441 C 
ATOM      2  N   UNL     1       6.778  -2.675  22.656  0.00  0.00    -0.178 N 
ATOM      3  C   UNL     1       7.578  -3.589  23.333  0.00  0.00    +0.316 A 
ATOM      4  C   UNL     1       7.573  -5.013  23.379  0.00  0.00    +0.327 A 
ATOM      5  N   UNL     1       8.551  -5.459  24.253  0.00  0.00    -0.290 N 
ATOM      6  H   UNL     1       8.592  -6.461  24.372  0.00  0.00    +0.172 HD
ATOM      7  C   UNL     1       9.405  -4.659  24.986  0.00  0.00    +0.195 A 
ATOM      8  N   UNL     1       9.415  -3.357  24.925  0.00  0.00    -0.192 NA
ATOM      9  N   UNL     1      10.259  -5.309  25.809  0.00  0.00    -0.329 N 
ATOM     10  H   UNL     1      11.013  -4.753  26.203  0.00  0.00    +0.145 HD
ATOM     11  H   UNL     1      10.494  -6.282  25.663  0.00  0.00    +0.145 HD
ATOM     12  O   UNL     1       6.847  -5.802  22.783  0.00  0.00    -0.260 OA
ATOM     13  C   UNL     1       8.478  -2.870  24.081  0.00  0.00    +0.221 A 
ATOM     14  N   UNL     1       8.221  -1.535  23.813  0.00  0.00    -0.244 N 
ATOM     15  C   UNL     1       7.147  -1.438  23.014  0.00  0.00    +0.412 A 
ENDROOT
BRANCH  14  16
ATOM     16  C1* UNL     1       8.934  -0.407  24.406  0.00  0.00    +0.257 C 
ATOM     17  C2* UNL     1      10.170   0.090  23.632  0.00  0.00    +0.195 C 
ATOM     18  C3* UNL     1       9.685   1.314  22.851  0.00  0.00    +0.178 C 
ATOM     19  C4* UNL     1       8.205   1.405  23.191  0.00  0.00    +0.177 C 
ATOM     20  O4* UNL     1       8.035   0.705  24.439  0.00  0.00    -0.346 OA
BRANCH  17  21
ATOM     21  O2* UNL     1      11.227   0.476  24.531  0.00  0.00    -0.385 OA
ATOM     22  H2* UNL     1      11.375   1.438  24.474  0.00  0.00    +0.210 HD
ENDBRANCH  17  21
BRANCH  18  23
ATOM     23  O3* UNL     1       9.855   1.106  21.452  0.00  0.00    -0.386 OA
ATOM     24  H3* UNL     1       9.444   1.850  20.973  0.00  0.00    +0.210 HD
ENDBRANCH  18  23
BRANCH  19  25
ATOM     25  C5* UNL     1       7.668   2.826  23.322  0.00  0.00    +0.190 C 
BRANCH  25  26
ATOM     26  O5* UNL     1       8.420   3.665  22.445  0.00  0.00    -0.392 OA
ATOM     27  H5* UNL     1       7.819   4.363  22.125  0.00  0.00    +0.210 HD
ENDBRANCH  25  26
ENDBRANCH  19  25
ENDBRANCH  14  16
TORSDOF 5
ENDMDL
MODEL 5
REMARK VINA RESULT:      -6.4      2.817      5.822
REMARK  Name = 
REMARK  6 active torsions:
REMARK  status: ('A' for Active; 'I' for Inactive)
REMARK    1  A    between atoms: C_1  and  N_2
REMARK    2  A    between atoms: N_4  and  C1*_5
REMARK    3  A    between atoms: C4*_8  and  C5*_10
REMARK    4  A    between atoms: C5*_10  and  O5*_11
REMARK    5  A    between atoms: C3*_12  and  O3*_14
REMARK    6  A    between atoms: C2*_15  and  O2*_17
REMARK                            x       y       z     vdW  Elec       q    Type
REMARK                         _______ _______ _______ _____ _____    ______ ____
ROOT
ATOM      1  C   UNL     1       4.764  -3.057  24.454  0.00  0.00    +0.441 C 
ATOM      2  N   UNL     1       6.196  -3.023  24.196  0.00  0.00    -0.178 N 
ATOM      3  C   UNL     1       7.140  -3.882  24.749  0.00  0.00    +0.316 A 
ATOM      4  C   UNL     1       7.027  -4.949  25.686  0.00  0.00    +0.327 A 
ATOM      5  N   UNL     1       8.281  -5.468  25.961  0.00  0.00    -0.290 N 
ATOM      6  H   UNL     1       8.294  -6.210  26.647  0.00  0.00    +0.172 HD
ATOM      7  C   UNL     1       9.474  -5.025  25.426  0.00  0.00    +0.195 A 
ATOM      8  N   UNL     1       9.567  -4.059  24.556  0.00  0.00    -0.192 NA
ATOM      9  N   UNL     1      10.587  -5.655  25.866  0.00  0.00    -0.329 N 
ATOM     10  H   UNL     1      11.441  -5.474  25.344  0.00  0.00    +0.145 HD
ATOM     11  H   UNL     1      10.542  -6.576  26.281  0.00  0.00    +0.145 HD
ATOM     12  O   UNL     1       6.021  -5.399  26.226  0.00  0.00    -0.260 OA
ATOM     13  C   UNL     1       8.366  -3.518  24.250  0.00  0.00    +0.221 A 
ATOM     14  N   UNL     1       8.130  -2.467  23.379  0.00  0.00    -0.244 N 
ATOM     15  C   UNL     1       6.831  -2.135  23.419  0.00  0.00    +0.412 A 
ENDROOT
BRANCH  14  16
ATOM     16  C1* UNL     1       9.159  -1.752  22.628  0.00  0.00    +0.257 C 
ATOM     17  C2* UNL     1       8.694  -0.482  21.891  0.00  0.00    +0.195 C 
ATOM     18  C3* UNL     1       9.108   0.679  22.799  0.00  0.00    +0.178 C 
ATOM     19  C4* UNL     1       9.733  -0.002  24.007  0.00  0.00    +0.177 C 
ATOM     20  O4* UNL     1      10.148  -1.308  23.560  0.00  0.00    -0.346 OA
BRANCH  17  21
ATOM     21  O2* UNL     1       9.346  -0.353  20.612  0.00  0.00    -0.385 OA
ATOM     22  H2* UNL     1      10.300  -0.526  20.709  0.00  0.00    +0.210 HD
ENDBRANCH  17  21
BRANCH  18  23
ATOM     23  O3* UNL     1       7.961   1.427  23.196  0.00  0.00    -0.386 OA
ATOM     24  H3* UNL     1       7.281   1.349  22.501  0.00  0.00    +0.210 HD
ENDBRANCH  18  23
BRANCH  19  25
ATOM     25  C5* UNL     1      10.922   0.737  24.609  0.00  0.00    +0.190 C 
BRANCH  25  26
ATOM     26  O5* UNL     1      10.959   2.047  24.045  0.00  0.00    -0.392 OA
ATOM     27  H5* UNL     1      11.760   2.102  23.490  0.00  0.00    +0.210 HD
ENDBRANCH  25  26
ENDBRANCH  19  25
ENDBRANCH  14  16
TORSDOF 5
ENDMDL
MODEL 6
REMARK VINA RESULT:      -6.3      1.738      3.262
REMARK  Name = 
REMARK  6 active torsions:
REMARK  status: ('A' for Active; 'I' for Inactive)
REMARK    1  A    between atoms: C_1  and  N_2
REMARK    2  A    between atoms: N_4  and  C1*_5
REMARK    3  A    between atoms: C4*_8  and  C5*_10
REMARK    4  A    between atoms: C5*_10  and  O5*_11
REMARK    5  A    between atoms: C3*_12  and  O3*_14
REMARK    6  A    between atoms: C2*_15  and  O2*_17
REMARK                            x       y       z     vdW  Elec       q    Type
REMARK                         _______ _______ _______ _____ _____    ______ ____
ROOT
ATOM      1  C   UNL     1       9.398  -0.047  21.204  0.00  0.00    +0.441 C 
ATOM      2  N   UNL     1       9.093  -0.890  22.351  0.00  0.00    -0.178 N 
ATOM      3  C   UNL     1       9.115  -0.487  23.682  0.00  0.00    +0.316 A 
ATOM      4  C   UNL     1       9.444   0.755  24.299  0.00  0.00    +0.327 A 
ATOM      5  N   UNL     1       9.360   0.633  25.676  0.00  0.00    -0.290 N 
ATOM      6  H   UNL     1       9.614   1.462  26.193  0.00  0.00    +0.172 HD
ATOM      7  C   UNL     1       9.021  -0.514  26.366  0.00  0.00    +0.195 A 
ATOM      8  N   UNL     1       8.703  -1.641  25.794  0.00  0.00    -0.192 NA
ATOM      9  N   UNL     1       9.039  -0.416  27.715  0.00  0.00    -0.329 N 
ATOM     10  H   UNL     1       8.610  -1.183  28.226  0.00  0.00    +0.145 HD
ATOM     11  H   UNL     1       8.974   0.480  28.179  0.00  0.00    +0.145 HD
ATOM     12  O   UNL     1       9.773   1.814  23.774  0.00  0.00    -0.260 OA
ATOM     13  C   UNL     1       8.767  -1.575  24.445  0.00  0.00    +0.221 A 
ATOM     14  N   UNL     1       8.511  -2.603  23.553  0.00  0.00    -0.244 N 
ATOM     15  C   UNL     1       8.786  -2.194  22.305  0.00  0.00    +0.412 A 
ENDROOT
BRANCH  14  16
ATOM     16  C1* UNL     1       8.119  -3.960  23.927  0.00  0.00    +0.257 C 
ATOM     17  C2* UNL     1       6.745  -4.100  24.609  0.00  0.00    +0.195 C 
ATOM     18  C3* UNL     1       5.794  -4.553  23.498  0.00  0.00    +0.178 C 
ATOM     19  C4* UNL     1       6.671  -4.594  22.255  0.00  0.00    +0.177 C 
ATOM     20  O4* UNL     1       8.026  -4.731  22.726  0.00  0.00    -0.346 OA
BRANCH  17  21
ATOM     21  O2* UNL     1       6.780  -5.093  25.652  0.00  0.00    -0.385 OA
ATOM     22  H2* UNL     1       7.137  -4.701  26.469  0.00  0.00    +0.210 HD
ENDBRANCH  17  21
BRANCH  18  23
ATOM     23  O3* UNL     1       4.746  -3.602  23.327  0.00  0.00    -0.386 OA
ATOM     24  H3* UNL     1       5.120  -2.794  22.929  0.00  0.00    +0.210 HD
ENDBRANCH  18  23
BRANCH  19  25
ATOM     25  C5* UNL     1       6.347  -5.724  21.286  0.00  0.00    +0.190 C 
BRANCH  25  26
ATOM     26  O5* UNL     1       5.060  -6.240  21.622  0.00  0.00    -0.392 OA
ATOM     27  H5* UNL     1       4.503  -6.175  20.824  0.00  0.00    +0.210 HD
ENDBRANCH  25  26
ENDBRANCH  19  25
ENDBRANCH  14  16
TORSDOF 5
ENDMDL
MODEL 7
REMARK VINA RESULT:      -6.1      1.859      3.048
REMARK  Name = 
REMARK  6 active torsions:
REMARK  status: ('A' for Active; 'I' for Inactive)
REMARK    1  A    between atoms: C_1  and  N_2
REMARK    2  A    between atoms: N_4  and  C1*_5
REMARK    3  A    between atoms: C4*_8  and  C5*_10
REMARK    4  A    between atoms: C5*_10  and  O5*_11
REMARK    5  A    between atoms: C3*_12  and  O3*_14
REMARK    6  A    between atoms: C2*_15  and  O2*_17
REMARK                            x       y       z     vdW  Elec       q    Type
REMARK                         _______ _______ _______ _____ _____    ______ ____
ROOT
ATOM      1  C   UNL     1      11.304   0.398  24.486  0.00  0.00    +0.441 C 
ATOM      2  N   UNL     1       9.952  -0.118  24.326  0.00  0.00    -0.178 N 
ATOM      3  C   UNL     1       8.794   0.650  24.254  0.00  0.00    +0.316 A 
ATOM      4  C   UNL     1       8.573   2.055  24.341  0.00  0.00    +0.327 A 
ATOM      5  N   UNL     1       7.217   2.323  24.261  0.00  0.00    -0.290 N 
ATOM      6  H   UNL     1       6.970   3.298  24.351  0.00  0.00    +0.172 HD
ATOM      7  C   UNL     1       6.214   1.384  24.129  0.00  0.00    +0.195 A 
ATOM      8  N   UNL     1       6.425   0.102  24.033  0.00  0.00    -0.192 NA
ATOM      9  N   UNL     1       4.952   1.869  24.110  0.00  0.00    -0.329 N 
ATOM     10  H   UNL     1       4.225   1.219  23.822  0.00  0.00    +0.145 HD
ATOM     11  H   UNL     1       4.761   2.835  23.875  0.00  0.00    +0.145 HD
ATOM     12  O   UNL     1       9.393   2.959  24.476  0.00  0.00    -0.260 OA
ATOM     13  C   UNL     1       7.738  -0.215  24.102  0.00  0.00    +0.221 A 
ATOM     14  N   UNL     1       8.287  -1.486  24.052  0.00  0.00    -0.244 N 
ATOM     15  C   UNL     1       9.610  -1.412  24.265  0.00  0.00    +0.412 A 
ENDROOT
BRANCH  14  16
ATOM     16  C1* UNL     1       7.524  -2.724  23.911  0.00  0.00    +0.257 C 
ATOM     17  C2* UNL     1       8.318  -3.951  23.424  0.00  0.00    +0.195 C 
ATOM     18  C3* UNL     1       8.632  -4.750  24.692  0.00  0.00    +0.178 C 
ATOM     19  C4* UNL     1       8.043  -3.909  25.814  0.00  0.00    +0.177 C 
ATOM     20  O4* UNL     1       7.033  -3.080  25.206  0.00  0.00    -0.346 OA
BRANCH  17  21
ATOM     21  O2* UNL     1       7.532  -4.757  22.525  0.00  0.00    -0.385 OA
ATOM     22  H2* UNL     1       7.816  -4.599  21.606  0.00  0.00    +0.210 HD
ENDBRANCH  17  21
BRANCH  18  23
ATOM     23  O3* UNL     1      10.042  -4.875  24.860  0.00  0.00    -0.386 OA
ATOM     24  H3* UNL     1      10.217  -5.315  25.713  0.00  0.00    +0.210 HD
ENDBRANCH  18  23
BRANCH  19  25
ATOM     25  C5* UNL     1       7.431  -4.710  26.957  0.00  0.00    +0.190 C 
BRANCH  25  26
ATOM     26  O5* UNL     1       8.004  -6.017  26.936  0.00  0.00    -0.392 OA
ATOM     27  H5* UNL     1       8.272  -6.232  27.849  0.00  0.00    +0.210 HD
ENDBRANCH  25  26
ENDBRANCH  19  25
ENDBRANCH  14  16
TORSDOF 5
ENDMDL
MODEL 8
REMARK VINA RESULT:      -6.1      1.890      2.704
REMARK  Name = 
REMARK  6 active torsions:
REMARK  status: ('A' for Active; 'I' for Inactive)
REMARK    1  A    between atoms: C_1  and  N_2
REMARK    2  A    between atoms: N_4  and  C1*_5
REMARK    3  A    between atoms: C4*_8  and  C5*_10
REMARK    4  A    between atoms: C5*_10  and  O5*_11
REMARK    5  A    between atoms: C3*_12  and  O3*_14
REMARK    6  A    between atoms: C2*_15  and  O2*_17
REMARK                            x       y       z     vdW  Elec       q    Type
REMARK                         _______ _______ _______ _____ _____    ______ ____
ROOT
ATOM      1  C   UNL     1       7.280   0.783  26.956  0.00  0.00    +0.441 C 
ATOM      2  N   UNL     1       7.503  -0.263  25.969  0.00  0.00    -0.178 N 
ATOM      3  C   UNL     1       8.150  -0.102  24.749  0.00  0.00    +0.316 A 
ATOM      4  C   UNL     1       8.720   1.039  24.113  0.00  0.00    +0.327 A 
ATOM      5  N   UNL     1       9.206   0.687  22.864  0.00  0.00    -0.290 N 
ATOM      6  H   UNL     1       9.597   1.450  22.330  0.00  0.00    +0.172 HD
ATOM      7  C   UNL     1       9.146  -0.570  22.299  0.00  0.00    +0.195 A 
ATOM      8  N   UNL     1       8.639  -1.613  22.894  0.00  0.00    -0.192 NA
ATOM      9  N   UNL     1       9.650  -0.678  21.049  0.00  0.00    -0.329 N 
ATOM     10  H   UNL     1       9.788  -1.623  20.700  0.00  0.00    +0.145 HD
ATOM     11  H   UNL     1      10.309  -0.002  20.686  0.00  0.00    +0.145 HD
ATOM     12  O   UNL     1       8.803   2.191  24.526  0.00  0.00    -0.260 OA
ATOM     13  C   UNL     1       8.151  -1.324  24.121  0.00  0.00    +0.221 A 
ATOM     14  N   UNL     1       7.532  -2.204  24.994  0.00  0.00    -0.244 N 
ATOM     15  C   UNL     1       7.082  -1.532  26.065  0.00  0.00    +0.412 A 
ENDROOT
BRANCH  14  16
ATOM     16  C1* UNL     1       7.299  -3.622  24.731  0.00  0.00    +0.257 C 
ATOM     17  C2* UNL     1       8.536  -4.536  24.821  0.00  0.00    +0.195 C 
ATOM     18  C3* UNL     1       8.453  -5.182  26.206  0.00  0.00    +0.178 C 
ATOM     19  C4* UNL     1       7.210  -4.563  26.828  0.00  0.00    +0.177 C 
ATOM     20  O4* UNL     1       6.397  -4.106  25.730  0.00  0.00    -0.346 OA
BRANCH  17  21
ATOM     21  O2* UNL     1       8.504  -5.558  23.806  0.00  0.00    -0.385 OA
ATOM     22  H2* UNL     1       9.229  -5.415  23.170  0.00  0.00    +0.210 HD
ENDBRANCH  17  21
BRANCH  18  23
ATOM     23  O3* UNL     1       9.605  -4.849  26.976  0.00  0.00    -0.386 OA
ATOM     24  H3* UNL     1       9.316  -4.395  27.790  0.00  0.00    +0.210 HD
ENDBRANCH  18  23
BRANCH  19  25
ATOM     25  C5* UNL     1       6.401  -5.509  27.708  0.00  0.00    +0.190 C 
BRANCH  25  26
ATOM     26  O5* UNL     1       7.307  -6.419  28.329  0.00  0.00    -0.392 OA
ATOM     27  H5* UNL     1       7.559  -7.082  27.659  0.00  0.00    +0.210 HD
ENDBRANCH  25  26
ENDBRANCH  19  25
ENDBRANCH  14  16
TORSDOF 5
ENDMDL
MODEL 9
REMARK VINA RESULT:      -6.1      2.910      5.490
REMARK  Name = 
REMARK  6 active torsions:
REMARK  status: ('A' for Active; 'I' for Inactive)
REMARK    1  A    between atoms: C_1  and  N_2
REMARK    2  A    between atoms: N_4  and  C1*_5
REMARK    3  A    between atoms: C4*_8  and  C5*_10
REMARK    4  A    between atoms: C5*_10  and  O5*_11
REMARK    5  A    between atoms: C3*_12  and  O3*_14
REMARK    6  A    between atoms: C2*_15  and  O2*_17
REMARK                            x       y       z     vdW  Elec       q    Type
REMARK                         _______ _______ _______ _____ _____    ______ ____
ROOT
ATOM      1  C   UNL     1       5.186  -0.389  25.953  0.00  0.00    +0.441 C 
ATOM      2  N   UNL     1       6.205  -0.985  25.101  0.00  0.00    -0.178 N 
ATOM      3  C   UNL     1       6.051  -2.138  24.338  0.00  0.00    +0.316 A 
ATOM      4  C   UNL     1       4.961  -3.043  24.184  0.00  0.00    +0.327 A 
ATOM      5  N   UNL     1       5.326  -4.079  23.340  0.00  0.00    -0.290 N 
ATOM      6  H   UNL     1       4.618  -4.787  23.205  0.00  0.00    +0.172 HD
ATOM      7  C   UNL     1       6.558  -4.234  22.737  0.00  0.00    +0.195 A 
ATOM      8  N   UNL     1       7.544  -3.393  22.869  0.00  0.00    -0.192 NA
ATOM      9  N   UNL     1       6.707  -5.344  21.980  0.00  0.00    -0.329 N 
ATOM     10  H   UNL     1       7.529  -5.373  21.382  0.00  0.00    +0.145 HD
ATOM     11  H   UNL     1       5.907  -5.841  21.609  0.00  0.00    +0.145 HD
ATOM     12  O   UNL     1       3.844  -2.998  24.689  0.00  0.00    -0.260 OA
ATOM     13  C   UNL     1       7.239  -2.358  23.684  0.00  0.00    +0.221 A 
ATOM     14  N   UNL     1       8.073  -1.312  24.042  0.00  0.00    -0.244 N 
ATOM     15  C   UNL     1       7.461  -0.540  24.952  0.00  0.00    +0.412 A 
ENDROOT
BRANCH  14  16
ATOM     16  C1* UNL     1       9.452  -1.146  23.588  0.00  0.00    +0.257 C 
ATOM     17  C2* UNL     1       9.640  -0.909  22.078  0.00  0.00    +0.195 C 
ATOM     18  C3* UNL     1       9.825   0.604  21.933  0.00  0.00    +0.178 C 
ATOM     19  C4* UNL     1       9.683   1.131  23.353  0.00  0.00    +0.177 C 
ATOM     20  O4* UNL     1       9.980   0.022  24.224  0.00  0.00    -0.346 OA
BRANCH  17  21
ATOM     21  O2* UNL     1      10.811  -1.590  21.585  0.00  0.00    -0.385 OA
ATOM     22  H2* UNL     1      10.647  -2.550  21.559  0.00  0.00    +0.210 HD
ENDBRANCH  17  21
BRANCH  18  23
ATOM     23  O3* UNL     1       8.802   1.149  21.103  0.00  0.00    -0.386 OA
ATOM     24  H3* UNL     1       8.107   1.528  21.673  0.00  0.00    +0.210 HD
ENDBRANCH  18  23
BRANCH  19  25
ATOM     25  C5* UNL     1      10.594   2.306  23.690  0.00  0.00    +0.190 C 
BRANCH  25  26
ATOM     26  O5* UNL     1      10.650   3.162  22.549  0.00  0.00    -0.392 OA
ATOM     27  H5* UNL     1       9.791   3.620  22.486  0.00  0.00    +0.210 HD
ENDBRANCH  25  26
ENDBRANCH  19  25
ENDBRANCH  14  16
TORSDOF 5
ENDMDL
