MODEL 1
REMARK VINA RESULT:      -7.1      0.000      0.000
REMARK  Name = 
REMARK  8 active torsions:
REMARK  status: ('A' for Active; 'I' for Inactive)
REMARK    1  A    between atoms: C_1  and  O_2
REMARK    2  A    between atoms: O_2  and  C_3
REMARK    3  A    between atoms: C_3  and  C_4
REMARK    4  A    between atoms: C_4  and  C_5
REMARK    5  A    between atoms: C_5  and  N_6
REMARK    6  A    between atoms: C_9  and  N_12
REMARK    7  A    between atoms: C_13  and  C_15
REMARK    8  A    between atoms: C_21  and  N_22
REMARK                            x       y       z     vdW  Elec       q    Type
REMARK                         _______ _______ _______ _____ _____    ______ ____
ROOT
ATOM      1  N   UNL     1       8.814  -2.044  24.013  0.00  0.00    -0.308 N 
ATOM      2  H   UNL     1       7.849  -1.736  23.934  0.00  0.00    +0.149 HD
ATOM      3  C   UNL     1       9.036  -3.393  24.166  0.00  0.00    +0.248 C 
ATOM      4  O   UNL     1      10.142  -3.861  24.417  0.00  0.00    -0.270 OA
ENDROOT
BRANCH   3   5
ATOM      5  C   UNL     1       7.864  -4.299  24.001  0.00  0.00    +0.080 A 
ATOM      6  C   UNL     1       7.509  -4.674  22.701  0.00  0.00    +0.038 A 
ATOM      7  C   UNL     1       6.391  -5.489  22.473  0.00  0.00    +0.063 A 
ATOM      8 CL   UNL     1       5.999  -5.894  20.836  0.00  0.00    -0.082 Cl
ATOM      9  C   UNL     1       5.615  -5.991  23.536  0.00  0.00    +0.050 A 
ATOM     10  C   UNL     1       5.971  -5.586  24.818  0.00  0.00    +0.020 A 
ATOM     11  C   UNL     1       5.306  -5.908  26.103  0.00  0.00    +0.081 C 
ATOM     12  C   UNL     1       6.192  -5.145  27.082  0.00  0.00    +0.234 C 
ATOM     13  O   UNL     1       7.275  -4.493  26.378  0.00  0.00    -0.491 OA
ATOM     14  C   UNL     1       7.076  -4.771  25.048  0.00  0.00    +0.138 A 
BRANCH   9  15
ATOM     15  N   UNL     1       4.408  -6.670  23.314  0.00  0.00    -0.357 N 
ATOM     16  H   UNL     1       3.674  -6.392  23.964  0.00  0.00    +0.142 HD
ATOM     17  H   UNL     1       4.093  -6.687  22.350  0.00  0.00    +0.142 HD
ENDBRANCH   9  15
ENDBRANCH   3   5
BRANCH   1  21
ATOM     18  N   UNL     1       9.042   1.463  22.838  0.00  0.00    -0.302 NA
ATOM     19  C   UNL     1       8.445   1.046  24.120  0.00  0.00    +0.086 C 
ATOM     20  C   UNL     1       9.360   0.166  24.975  0.00  0.00    +0.037 C 
ATOM     21  C   UNL     1       9.864  -1.051  24.192  0.00  0.00    +0.076 C 
ATOM     22  C   UNL     1      10.439  -0.627  22.839  0.00  0.00    +0.037 C 
ATOM     23  C   UNL     1       9.472   0.281  22.077  0.00  0.00    +0.086 C 
BRANCH  18  24
ATOM     24  C   UNL     1      10.099   2.465  23.044  0.00  0.00    +0.086 C 
BRANCH  24  25
ATOM     25  C   UNL     1       9.627   3.736  23.754  0.00  0.00    +0.043 C 
BRANCH  25  26
ATOM     26  C   UNL     1      10.728   4.789  23.736  0.00  0.00    +0.160 C 
BRANCH  26  28
ATOM     27  C   UNL     1      12.957   5.132  23.075  0.00  0.00    +0.193 C 
ATOM     28  O   UNL     1      11.948   4.167  23.342  0.00  0.00    -0.383 OA
ENDBRANCH  26  28
ENDBRANCH  25  26
ENDBRANCH  24  25
ENDBRANCH  18  24
ENDBRANCH   1  21
TORSDOF 7
ENDMDL
MODEL 2
REMARK VINA RESULT:      -7.1      1.841      2.551
REMARK  Name = 
REMARK  8 active torsions:
REMARK  status: ('A' for Active; 'I' for Inactive)
REMARK    1  A    between atoms: C_1  and  O_2
REMARK    2  A    between atoms: O_2  and  C_3
REMARK    3  A    between atoms: C_3  and  C_4
REMARK    4  A    between atoms: C_4  and  C_5
REMARK    5  A    between atoms: C_5  and  N_6
REMARK    6  A    between atoms: C_9  and  N_12
REMARK    7  A    between atoms: C_13  and  C_15
REMARK    8  A    between atoms: C_21  and  N_22
REMARK                            x       y       z     vdW  Elec       q    Type
REMARK                         _______ _______ _______ _____ _____    ______ ____
ROOT
ATOM      1  N   UNL     1       8.959  -2.287  23.545  0.00  0.00    -0.308 N 
ATOM      2  H   UNL     1       8.007  -1.943  23.451  0.00  0.00    +0.149 HD
ATOM      3  C   UNL     1       9.134  -3.500  24.168  0.00  0.00    +0.248 C 
ATOM      4  O   UNL     1      10.239  -3.941  24.466  0.00  0.00    -0.270 OA
ENDROOT
BRANCH   3   5
ATOM      5  C   UNL     1       7.909  -4.293  24.469  0.00  0.00    +0.080 A 
ATOM      6  C   UNL     1       7.662  -4.630  25.805  0.00  0.00    +0.038 A 
ATOM      7  C   UNL     1       6.551  -5.411  26.151  0.00  0.00    +0.063 A 
ATOM      8 CL   UNL     1       6.322  -5.807  27.821  0.00  0.00    -0.082 Cl
ATOM      9  C   UNL     1       5.625  -5.847  25.183  0.00  0.00    +0.050 A 
ATOM     10  C   UNL     1       5.902  -5.522  23.860  0.00  0.00    +0.020 A 
ATOM     11  C   UNL     1       5.143  -5.894  22.643  0.00  0.00    +0.081 C 
ATOM     12  C   UNL     1       5.993  -5.232  21.563  0.00  0.00    +0.234 C 
ATOM     13  O   UNL     1       7.104  -4.525  22.160  0.00  0.00    -0.491 OA
ATOM     14  C   UNL     1       7.009  -4.753  23.511  0.00  0.00    +0.138 A 
BRANCH   9  15
ATOM     15  N   UNL     1       4.605  -6.758  25.493  0.00  0.00    -0.357 N 
ATOM     16  H   UNL     1       4.895  -7.458  26.175  0.00  0.00    +0.142 HD
ATOM     17  H   UNL     1       3.707  -6.343  25.714  0.00  0.00    +0.142 HD
ENDBRANCH   9  15
ENDBRANCH   3   5
BRANCH   1  21
ATOM     18  N   UNL     1       9.014   1.359  22.882  0.00  0.00    -0.302 NA
ATOM     19  C   UNL     1       9.145   0.749  24.218  0.00  0.00    +0.086 C 
ATOM     20  C   UNL     1      10.241  -0.316  24.310  0.00  0.00    +0.037 C 
ATOM     21  C   UNL     1      10.069  -1.396  23.236  0.00  0.00    +0.076 C 
ATOM     22  C   UNL     1       9.884  -0.764  21.855  0.00  0.00    +0.037 C 
ATOM     23  C   UNL     1       8.798   0.314  21.871  0.00  0.00    +0.086 C 
BRANCH  18  24
ATOM     24  C   UNL     1      10.146   2.254  22.593  0.00  0.00    +0.086 C 
BRANCH  24  25
ATOM     25  C   UNL     1      10.316   3.394  23.600  0.00  0.00    +0.043 C 
BRANCH  25  26
ATOM     26  C   UNL     1      11.627   4.128  23.347  0.00  0.00    +0.160 C 
BRANCH  26  28
ATOM     27  C   UNL     1      10.047   5.812  23.787  0.00  0.00    +0.193 C 
ATOM     28  O   UNL     1      11.375   5.531  23.367  0.00  0.00    -0.383 OA
ENDBRANCH  26  28
ENDBRANCH  25  26
ENDBRANCH  24  25
ENDBRANCH  18  24
ENDBRANCH   1  21
TORSDOF 7
ENDMDL
MODEL 3
REMARK VINA RESULT:      -6.7      1.380      1.724
REMARK  Name = 
REMARK  8 active torsions:
REMARK  status: ('A' for Active; 'I' for Inactive)
REMARK    1  A    between atoms: C_1  and  O_2
REMARK    2  A    between atoms: O_2  and  C_3
REMARK    3  A    between atoms: C_3  and  C_4
REMARK    4  A    between atoms: C_4  and  C_5
REMARK    5  A    between atoms: C_5  and  N_6
REMARK    6  A    between atoms: C_9  and  N_12
REMARK    7  A    between atoms: C_13  and  C_15
REMARK    8  A    between atoms: C_21  and  N_22
REMARK                            x       y       z     vdW  Elec       q    Type
REMARK                         _______ _______ _______ _____ _____    ______ ____
ROOT
ATOM      1  N   UNL     1       8.887  -1.703  23.504  0.00  0.00    -0.308 N 
ATOM      2  H   UNL     1       7.908  -1.452  23.399  0.00  0.00    +0.149 HD
ATOM      3  C   UNL     1       9.173  -3.011  23.819  0.00  0.00    +0.248 C 
ATOM      4  O   UNL     1      10.301  -3.393  24.112  0.00  0.00    -0.270 OA
ENDROOT
BRANCH   3   5
ATOM      5  C   UNL     1       8.044  -3.982  23.779  0.00  0.00    +0.080 A 
ATOM      6  C   UNL     1       7.621  -4.440  22.526  0.00  0.00    +0.038 A 
ATOM      7  C   UNL     1       6.536  -5.321  22.416  0.00  0.00    +0.063 A 
ATOM      8 CL   UNL     1       6.056  -5.827  20.832  0.00  0.00    -0.082 Cl
ATOM      9  C   UNL     1       5.864  -5.809  23.554  0.00  0.00    +0.050 A 
ATOM     10  C   UNL     1       6.284  -5.323  24.787  0.00  0.00    +0.020 A 
ATOM     11  C   UNL     1       5.728  -5.615  26.129  0.00  0.00    +0.081 C 
ATOM     12  C   UNL     1       6.636  -4.759  27.006  0.00  0.00    +0.234 C 
ATOM     13  O   UNL     1       7.631  -4.089  26.199  0.00  0.00    -0.491 OA
ATOM     14  C   UNL     1       7.356  -4.442  24.900  0.00  0.00    +0.138 A 
BRANCH   9  15
ATOM     15  N   UNL     1       4.683  -6.559  23.450  0.00  0.00    -0.357 N 
ATOM     16  H   UNL     1       4.304  -6.568  22.503  0.00  0.00    +0.142 HD
ATOM     17  H   UNL     1       4.720  -7.482  23.867  0.00  0.00    +0.142 HD
ENDBRANCH   9  15
ENDBRANCH   3   5
BRANCH   1  21
ATOM     18  N   UNL     1       8.514   1.968  23.845  0.00  0.00    -0.302 NA
ATOM     19  C   UNL     1       8.642   1.031  24.977  0.00  0.00    +0.086 C 
ATOM     20  C   UNL     1       9.858   0.105  24.882  0.00  0.00    +0.037 C 
ATOM     21  C   UNL     1       9.891  -0.648  23.548  0.00  0.00    +0.076 C 
ATOM     22  C   UNL     1       9.708   0.316  22.374  0.00  0.00    +0.037 C 
ATOM     23  C   UNL     1       8.495   1.226  22.577  0.00  0.00    +0.086 C 
BRANCH  18  24
ATOM     24  C   UNL     1       9.538   3.024  23.911  0.00  0.00    +0.086 C 
BRANCH  24  25
ATOM     25  C   UNL     1       9.016   4.371  24.416  0.00  0.00    +0.043 C 
BRANCH  25  26
ATOM     26  C   UNL     1       7.659   4.677  23.794  0.00  0.00    +0.160 C 
BRANCH  26  28
ATOM     27  C   UNL     1       7.302   6.166  22.011  0.00  0.00    +0.193 C 
ATOM     28  O   UNL     1       7.838   4.908  22.399  0.00  0.00    -0.383 OA
ENDBRANCH  26  28
ENDBRANCH  25  26
ENDBRANCH  24  25
ENDBRANCH  18  24
ENDBRANCH   1  21
TORSDOF 7
ENDMDL
MODEL 4
REMARK VINA RESULT:      -6.7      2.330      3.091
REMARK  Name = 
REMARK  8 active torsions:
REMARK  status: ('A' for Active; 'I' for Inactive)
REMARK    1  A    between atoms: C_1  and  O_2
REMARK    2  A    between atoms: O_2  and  C_3
REMARK    3  A    between atoms: C_3  and  C_4
REMARK    4  A    between atoms: C_4  and  C_5
REMARK    5  A    between atoms: C_5  and  N_6
REMARK    6  A    between atoms: C_9  and  N_12
REMARK    7  A    between atoms: C_13  and  C_15
REMARK    8  A    between atoms: C_21  and  N_22
REMARK                            x       y       z     vdW  Elec       q    Type
REMARK                         _______ _______ _______ _____ _____    ______ ____
ROOT
ATOM      1  N   UNL     1       8.567  -2.793  23.980  0.00  0.00    -0.308 N 
ATOM      2  H   UNL     1       7.629  -2.408  24.041  0.00  0.00    +0.149 HD
ATOM      3  C   UNL     1       8.789  -4.015  24.569  0.00  0.00    +0.248 C 
ATOM      4  O   UNL     1       9.907  -4.505  24.684  0.00  0.00    -0.270 OA
ENDROOT
BRANCH   3   5
ATOM      5  C   UNL     1       7.596  -4.757  25.067  0.00  0.00    +0.080 A 
ATOM      6  C   UNL     1       7.535  -5.050  26.434  0.00  0.00    +0.038 A 
ATOM      7  C   UNL     1       6.461  -5.782  26.960  0.00  0.00    +0.063 A 
ATOM      8 CL   UNL     1       6.464  -6.126  28.657  0.00  0.00    -0.082 Cl
ATOM      9  C   UNL     1       5.392  -6.210  26.149  0.00  0.00    +0.050 A 
ATOM     10  C   UNL     1       5.485  -5.930  24.790  0.00  0.00    +0.020 A 
ATOM     11  C   UNL     1       4.547  -6.306  23.707  0.00  0.00    +0.081 C 
ATOM     12  C   UNL     1       5.252  -5.703  22.496  0.00  0.00    +0.234 C 
ATOM     13  O   UNL     1       6.459  -5.020  22.905  0.00  0.00    -0.491 OA
ATOM     14  C   UNL     1       6.553  -5.209  24.262  0.00  0.00    +0.138 A 
BRANCH   9  15
ATOM     15  N   UNL     1       4.400  -7.076  26.630  0.00  0.00    -0.357 N 
ATOM     16  H   UNL     1       4.593  -7.412  27.573  0.00  0.00    +0.142 HD
ATOM     17  H   UNL     1       3.448  -6.747  26.518  0.00  0.00    +0.142 HD
ENDBRANCH   9  15
ENDBRANCH   3   5
BRANCH   1  21
ATOM     18  N   UNL     1       8.710   0.869  23.429  0.00  0.00    -0.302 NA
ATOM     19  C   UNL     1       9.054   0.199  24.697  0.00  0.00    +0.086 C 
ATOM     20  C   UNL     1      10.083  -0.924  24.546  0.00  0.00    +0.037 C 
ATOM     21  C   UNL     1       9.650  -1.949  23.492  0.00  0.00    +0.076 C 
ATOM     22  C   UNL     1       9.245  -1.253  22.191  0.00  0.00    +0.037 C 
ATOM     23  C   UNL     1       8.247  -0.121  22.446  0.00  0.00    +0.086 C 
BRANCH  18  24
ATOM     24  C   UNL     1       9.818   1.715  22.957  0.00  0.00    +0.086 C 
BRANCH  24  25
ATOM     25  C   UNL     1       9.809   3.135  23.528  0.00  0.00    +0.043 C 
BRANCH  25  26
ATOM     26  C   UNL     1       8.376   3.618  23.714  0.00  0.00    +0.160 C 
BRANCH  26  28
ATOM     27  C   UNL     1       6.588   3.546  22.190  0.00  0.00    +0.193 C 
ATOM     28  O   UNL     1       7.881   4.074  22.458  0.00  0.00    -0.383 OA
ENDBRANCH  26  28
ENDBRANCH  25  26
ENDBRANCH  24  25
ENDBRANCH  18  24
ENDBRANCH   1  21
TORSDOF 7
ENDMDL
MODEL 5
REMARK VINA RESULT:      -6.5      1.705      2.084
REMARK  Name = 
REMARK  8 active torsions:
REMARK  status: ('A' for Active; 'I' for Inactive)
REMARK    1  A    between atoms: C_1  and  O_2
REMARK    2  A    between atoms: O_2  and  C_3
REMARK    3  A    between atoms: C_3  and  C_4
REMARK    4  A    between atoms: C_4  and  C_5
REMARK    5  A    between atoms: C_5  and  N_6
REMARK    6  A    between atoms: C_9  and  N_12
REMARK    7  A    between atoms: C_13  and  C_15
REMARK    8  A    between atoms: C_21  and  N_22
REMARK                            x       y       z     vdW  Elec       q    Type
REMARK                         _______ _______ _______ _____ _____    ______ ____
ROOT
ATOM      1  N   UNL     1       9.007  -0.354  23.319  0.00  0.00    -0.308 N 
ATOM      2  H   UNL     1       8.425  -0.269  24.148  0.00  0.00    +0.149 HD
ATOM      3  C   UNL     1       9.150  -1.609  22.774  0.00  0.00    +0.248 C 
ATOM      4  O   UNL     1       9.939  -1.854  21.868  0.00  0.00    -0.270 OA
ENDROOT
BRANCH   3   5
ATOM      5  C   UNL     1       8.286  -2.692  23.323  0.00  0.00    +0.080 A 
ATOM      6  C   UNL     1       7.952  -3.753  22.473  0.00  0.00    +0.038 A 
ATOM      7  C   UNL     1       7.108  -4.782  22.913  0.00  0.00    +0.063 A 
ATOM      8 CL   UNL     1       6.721  -6.050  21.799  0.00  0.00    -0.082 Cl
ATOM      9  C   UNL     1       6.601  -4.810  24.227  0.00  0.00    +0.050 A 
ATOM     10  C   UNL     1       6.925  -3.734  25.047  0.00  0.00    +0.020 A 
ATOM     11  C   UNL     1       6.490  -3.474  26.440  0.00  0.00    +0.081 C 
ATOM     12  C   UNL     1       7.190  -2.147  26.714  0.00  0.00    +0.234 C 
ATOM     13  O   UNL     1       7.973  -1.744  25.568  0.00  0.00    -0.491 OA
ATOM     14  C   UNL     1       7.758  -2.706  24.612  0.00  0.00    +0.138 A 
BRANCH   9  15
ATOM     15  N   UNL     1       5.632  -5.742  24.627  0.00  0.00    -0.357 N 
ATOM     16  H   UNL     1       4.685  -5.450  24.390  0.00  0.00    +0.142 HD
ATOM     17  H   UNL     1       5.825  -6.702  24.367  0.00  0.00    +0.142 HD
ENDBRANCH   9  15
ENDBRANCH   3   5
BRANCH   1  21
ATOM     18  N   UNL     1       8.378   3.289  23.571  0.00  0.00    -0.302 NA
ATOM     19  C   UNL     1       9.039   2.480  24.611  0.00  0.00    +0.086 C 
ATOM     20  C   UNL     1      10.221   1.653  24.097  0.00  0.00    +0.037 C 
ATOM     21  C   UNL     1       9.822   0.780  22.904  0.00  0.00    +0.076 C 
ATOM     22  C   UNL     1       9.091   1.607  21.844  0.00  0.00    +0.037 C 
ATOM     23  C   UNL     1       7.955   2.428  22.457  0.00  0.00    +0.086 C 
BRANCH  18  24
ATOM     24  C   UNL     1       9.219   4.427  23.167  0.00  0.00    +0.086 C 
BRANCH  24  25
ATOM     25  C   UNL     1       9.596   5.365  24.316  0.00  0.00    +0.043 C 
BRANCH  25  26
ATOM     26  C   UNL     1      11.049   5.804  24.182  0.00  0.00    +0.160 C 
BRANCH  26  28
ATOM     27  C   UNL     1      12.968   5.329  22.911  0.00  0.00    +0.193 C 
ATOM     28  O   UNL     1      11.761   4.808  23.453  0.00  0.00    -0.383 OA
ENDBRANCH  26  28
ENDBRANCH  25  26
ENDBRANCH  24  25
ENDBRANCH  18  24
ENDBRANCH   1  21
TORSDOF 7
ENDMDL
MODEL 6
REMARK VINA RESULT:      -6.4      2.278      3.183
REMARK  Name = 
REMARK  8 active torsions:
REMARK  status: ('A' for Active; 'I' for Inactive)
REMARK    1  A    between atoms: C_1  and  O_2
REMARK    2  A    between atoms: O_2  and  C_3
REMARK    3  A    between atoms: C_3  and  C_4
REMARK    4  A    between atoms: C_4  and  C_5
REMARK    5  A    between atoms: C_5  and  N_6
REMARK    6  A    between atoms: C_9  and  N_12
REMARK    7  A    between atoms: C_13  and  C_15
REMARK    8  A    between atoms: C_21  and  N_22
REMARK                            x       y       z     vdW  Elec       q    Type
REMARK                         _______ _______ _______ _____ _____    ______ ____
ROOT
ATOM      1  N   UNL     1       6.515  -2.911  23.355  0.00  0.00    -0.308 N 
ATOM      2  H   UNL     1       6.708  -3.064  24.340  0.00  0.00    +0.149 HD
ATOM      3  C   UNL     1       5.756  -3.857  22.706  0.00  0.00    +0.248 C 
ATOM      4  O   UNL     1       5.583  -3.853  21.492  0.00  0.00    -0.270 OA
ENDROOT
BRANCH   3   5
ATOM      5  C   UNL     1       5.118  -4.910  23.545  0.00  0.00    +0.080 A 
ATOM      6  C   UNL     1       3.978  -5.545  23.040  0.00  0.00    +0.038 A 
ATOM      7  C   UNL     1       3.305  -6.514  23.797  0.00  0.00    +0.063 A 
ATOM      8 CL   UNL     1       1.888  -7.240  23.116  0.00  0.00    -0.082 Cl
ATOM      9  C   UNL     1       3.770  -6.914  25.065  0.00  0.00    +0.050 A 
ATOM     10  C   UNL     1       4.890  -6.254  25.558  0.00  0.00    +0.020 A 
ATOM     11  C   UNL     1       5.556  -6.426  26.871  0.00  0.00    +0.081 C 
ATOM     12  C   UNL     1       6.683  -5.404  26.756  0.00  0.00    +0.234 C 
ATOM     13  O   UNL     1       6.648  -4.760  25.461  0.00  0.00    -0.491 OA
ATOM     14  C   UNL     1       5.557  -5.285  24.813  0.00  0.00    +0.138 A 
BRANCH   9  15
ATOM     15  N   UNL     1       3.020  -7.760  25.895  0.00  0.00    -0.357 N 
ATOM     16  H   UNL     1       3.134  -8.745  25.660  0.00  0.00    +0.142 HD
ATOM     17  H   UNL     1       3.108  -7.579  26.888  0.00  0.00    +0.142 HD
ENDBRANCH   9  15
ENDBRANCH   3   5
BRANCH   1  21
ATOM     18  N   UNL     1       9.638  -1.112  24.215  0.00  0.00    -0.302 NA
ATOM     19  C   UNL     1       9.580  -2.363  23.436  0.00  0.00    +0.086 C 
ATOM     20  C   UNL     1       8.633  -2.303  22.235  0.00  0.00    +0.037 C 
ATOM     21  C   UNL     1       7.227  -1.856  22.647  0.00  0.00    +0.076 C 
ATOM     22  C   UNL     1       7.287  -0.585  23.497  0.00  0.00    +0.037 C 
ATOM     23  C   UNL     1       8.288  -0.724  24.646  0.00  0.00    +0.086 C 
BRANCH  18  24
ATOM     24  C   UNL     1      10.361  -0.061  23.480  0.00  0.00    +0.086 C 
BRANCH  24  25
ATOM     25  C   UNL     1      10.890   1.070  24.365  0.00  0.00    +0.043 C 
BRANCH  25  26
ATOM     26  C   UNL     1      10.492   2.422  23.785  0.00  0.00    +0.160 C 
BRANCH  26  28
ATOM     27  C   UNL     1       8.385   3.119  23.011  0.00  0.00    +0.193 C 
ATOM     28  O   UNL     1       9.137   2.688  24.138  0.00  0.00    -0.383 OA
ENDBRANCH  26  28
ENDBRANCH  25  26
ENDBRANCH  24  25
ENDBRANCH  18  24
ENDBRANCH   1  21
TORSDOF 7
ENDMDL
MODEL 7
REMARK VINA RESULT:      -6.4      1.810      2.309
REMARK  Name = 
REMARK  8 active torsions:
REMARK  status: ('A' for Active; 'I' for Inactive)
REMARK    1  A    between atoms: C_1  and  O_2
REMARK    2  A    between atoms: O_2  and  C_3
REMARK    3  A    between atoms: C_3  and  C_4
REMARK    4  A    between atoms: C_4  and  C_5
REMARK    5  A    between atoms: C_5  and  N_6
REMARK    6  A    between atoms: C_9  and  N_12
REMARK    7  A    between atoms: C_13  and  C_15
REMARK    8  A    between atoms: C_21  and  N_22
REMARK                            x       y       z     vdW  Elec       q    Type
REMARK                         _______ _______ _______ _____ _____    ______ ____
ROOT
ATOM      1  N   UNL     1       7.627  -1.711  23.379  0.00  0.00    -0.308 N 
ATOM      2  H   UNL     1       7.839  -1.696  24.373  0.00  0.00    +0.149 HD
ATOM      3  C   UNL     1       7.086  -2.867  22.867  0.00  0.00    +0.248 C 
ATOM      4  O   UNL     1       6.927  -3.051  21.665  0.00  0.00    -0.270 OA
ENDROOT
BRANCH   3   5
ATOM      5  C   UNL     1       6.674  -3.916  23.842  0.00  0.00    +0.080 A 
ATOM      6  C   UNL     1       5.450  -4.560  23.627  0.00  0.00    +0.038 A 
ATOM      7  C   UNL     1       4.983  -5.526  24.530  0.00  0.00    +0.063 A 
ATOM      8 CL   UNL     1       3.450  -6.265  24.211  0.00  0.00    -0.082 Cl
ATOM      9  C   UNL     1       5.739  -5.911  25.655  0.00  0.00    +0.050 A 
ATOM     10  C   UNL     1       6.940  -5.241  25.863  0.00  0.00    +0.020 A 
ATOM     11  C   UNL     1       7.899  -5.398  26.981  0.00  0.00    +0.081 C 
ATOM     12  C   UNL     1       8.960  -4.372  26.593  0.00  0.00    +0.234 C 
ATOM     13  O   UNL     1       8.614  -3.740  25.339  0.00  0.00    -0.491 OA
ATOM     14  C   UNL     1       7.404  -4.276  24.972  0.00  0.00    +0.138 A 
BRANCH   9  15
ATOM     15  N   UNL     1       5.213  -6.753  26.646  0.00  0.00    -0.357 N 
ATOM     16  H   UNL     1       4.234  -6.986  26.486  0.00  0.00    +0.142 HD
ATOM     17  H   UNL     1       5.779  -7.564  26.869  0.00  0.00    +0.142 HD
ENDBRANCH   9  15
ENDBRANCH   3   5
BRANCH   1  21
ATOM     18  N   UNL     1       9.758   1.212  24.184  0.00  0.00    -0.302 NA
ATOM     19  C   UNL     1      10.268  -0.102  23.752  0.00  0.00    +0.086 C 
ATOM     20  C   UNL     1       9.641  -0.616  22.454  0.00  0.00    +0.037 C 
ATOM     21  C   UNL     1       8.111  -0.629  22.533  0.00  0.00    +0.076 C 
ATOM     22  C   UNL     1       7.580   0.719  23.028  0.00  0.00    +0.037 C 
ATOM     23  C   UNL     1       8.294   1.168  24.305  0.00  0.00    +0.086 C 
BRANCH  18  24
ATOM     24  C   UNL     1      10.259   2.289  23.315  0.00  0.00    +0.086 C 
BRANCH  24  25
ATOM     25  C   UNL     1       9.629   3.657  23.587  0.00  0.00    +0.043 C 
BRANCH  25  26
ATOM     26  C   UNL     1      10.716   4.700  23.816  0.00  0.00    +0.160 C 
BRANCH  26  28
ATOM     27  C   UNL     1      12.830   5.193  22.915  0.00  0.00    +0.193 C 
ATOM     28  O   UNL     1      11.962   4.166  23.374  0.00  0.00    -0.383 OA
ENDBRANCH  26  28
ENDBRANCH  25  26
ENDBRANCH  24  25
ENDBRANCH  18  24
ENDBRANCH   1  21
TORSDOF 7
ENDMDL
MODEL 8
REMARK VINA RESULT:      -6.4      1.726      2.167
REMARK  Name = 
REMARK  8 active torsions:
REMARK  status: ('A' for Active; 'I' for Inactive)
REMARK    1  A    between atoms: C_1  and  O_2
REMARK    2  A    between atoms: O_2  and  C_3
REMARK    3  A    between atoms: C_3  and  C_4
REMARK    4  A    between atoms: C_4  and  C_5
REMARK    5  A    between atoms: C_5  and  N_6
REMARK    6  A    between atoms: C_9  and  N_12
REMARK    7  A    between atoms: C_13  and  C_15
REMARK    8  A    between atoms: C_21  and  N_22
REMARK                            x       y       z     vdW  Elec       q    Type
REMARK                         _______ _______ _______ _____ _____    ______ ____
ROOT
ATOM      1  N   UNL     1       8.088  -2.895  24.858  0.00  0.00    -0.308 N 
ATOM      2  H   UNL     1       7.142  -2.547  24.726  0.00  0.00    +0.149 HD
ATOM      3  C   UNL     1       8.228  -4.165  25.368  0.00  0.00    +0.248 C 
ATOM      4  O   UNL     1       9.311  -4.630  25.704  0.00  0.00    -0.270 OA
ENDROOT
BRANCH   3   5
ATOM      5  C   UNL     1       6.992  -4.988  25.492  0.00  0.00    +0.080 A 
ATOM      6  C   UNL     1       6.206  -5.160  24.347  0.00  0.00    +0.038 A 
ATOM      7  C   UNL     1       5.009  -5.887  24.405  0.00  0.00    +0.063 A 
ATOM      8 CL   UNL     1       4.077  -6.039  22.954  0.00  0.00    -0.082 Cl
ATOM      9  C   UNL     1       4.577  -6.503  25.596  0.00  0.00    +0.050 A 
ATOM     10  C   UNL     1       5.360  -6.300  26.727  0.00  0.00    +0.020 A 
ATOM     11  C   UNL     1       5.120  -6.774  28.110  0.00  0.00    +0.081 C 
ATOM     12  C   UNL     1       6.336  -6.195  28.825  0.00  0.00    +0.234 C 
ATOM     13  O   UNL     1       7.186  -5.495  27.888  0.00  0.00    -0.491 OA
ATOM     14  C   UNL     1       6.546  -5.572  26.675  0.00  0.00    +0.138 A 
BRANCH   9  15
ATOM     15  N   UNL     1       3.309  -7.093  25.705  0.00  0.00    -0.357 N 
ATOM     16  H   UNL     1       2.893  -7.304  24.799  0.00  0.00    +0.142 HD
ATOM     17  H   UNL     1       3.248  -7.867  26.357  0.00  0.00    +0.142 HD
ENDBRANCH   9  15
ENDBRANCH   3   5
BRANCH   1  21
ATOM     18  N   UNL     1       8.839  -0.366  22.256  0.00  0.00    -0.302 NA
ATOM     19  C   UNL     1       8.045  -0.107  23.471  0.00  0.00    +0.086 C 
ATOM     20  C   UNL     1       8.745  -0.514  24.770  0.00  0.00    +0.037 C 
ATOM     21  C   UNL     1       9.208  -1.974  24.727  0.00  0.00    +0.076 C 
ATOM     22  C   UNL     1       9.991  -2.259  23.443  0.00  0.00    +0.037 C 
ATOM     23  C   UNL     1       9.231  -1.781  22.204  0.00  0.00    +0.086 C 
BRANCH  18  24
ATOM     24  C   UNL     1       9.965   0.576  22.146  0.00  0.00    +0.086 C 
BRANCH  24  25
ATOM     25  C   UNL     1       9.562   2.049  22.258  0.00  0.00    +0.043 C 
BRANCH  25  26
ATOM     26  C   UNL     1      10.387   2.739  23.337  0.00  0.00    +0.160 C 
BRANCH  26  28
ATOM     27  C   UNL     1       8.923   4.495  23.880  0.00  0.00    +0.193 C 
ATOM     28  O   UNL     1       9.501   3.272  24.318  0.00  0.00    -0.383 OA
ENDBRANCH  26  28
ENDBRANCH  25  26
ENDBRANCH  24  25
ENDBRANCH  18  24
ENDBRANCH   1  21
TORSDOF 7
ENDMDL
MODEL 9
REMARK VINA RESULT:      -6.3      3.504      8.492
REMARK  Name = 
REMARK  8 active torsions:
REMARK  status: ('A' for Active; 'I' for Inactive)
REMARK    1  A    between atoms: C_1  and  O_2
REMARK    2  A    between atoms: O_2  and  C_3
REMARK    3  A    between atoms: C_3  and  C_4
REMARK    4  A    between atoms: C_4  and  C_5
REMARK    5  A    between atoms: C_5  and  N_6
REMARK    6  A    between atoms: C_9  and  N_12
REMARK    7  A    between atoms: C_13  and  C_15
REMARK    8  A    between atoms: C_21  and  N_22
REMARK                            x       y       z     vdW  Elec       q    Type
REMARK                         _______ _______ _______ _____ _____    ______ ____
ROOT
ATOM      1  N   UNL     1       8.989  -0.566  23.278  0.00  0.00    -0.308 N 
ATOM      2  H   UNL     1       8.731  -0.298  24.223  0.00  0.00    +0.149 HD
ATOM      3  C   UNL     1       9.235   0.447  22.380  0.00  0.00    +0.248 C 
ATOM      4  O   UNL     1       9.410   0.247  21.183  0.00  0.00    -0.270 OA
ENDROOT
BRANCH   3   5
ATOM      5  C   UNL     1       9.297   1.835  22.920  0.00  0.00    +0.080 A 
ATOM      6  C   UNL     1      10.528   2.498  22.870  0.00  0.00    +0.038 A 
ATOM      7  C   UNL     1      10.665   3.789  23.400  0.00  0.00    +0.063 A 
ATOM      8 CL   UNL     1      12.224   4.540  23.323  0.00  0.00    -0.082 Cl
ATOM      9  C   UNL     1       9.571   4.478  23.959  0.00  0.00    +0.050 A 
ATOM     10  C   UNL     1       8.363   3.791  24.021  0.00  0.00    +0.020 A 
ATOM     11  C   UNL     1       7.077   4.241  24.602  0.00  0.00    +0.081 C 
ATOM     12  C   UNL     1       6.203   3.017  24.345  0.00  0.00    +0.234 C 
ATOM     13  O   UNL     1       6.955   2.001  23.642  0.00  0.00    -0.491 OA
ATOM     14  C   UNL     1       8.224   2.506  23.502  0.00  0.00    +0.138 A 
BRANCH   9  15
ATOM     15  N   UNL     1       9.731   5.697  24.634  0.00  0.00    -0.357 N 
ATOM     16  H   UNL     1      10.637   5.777  25.094  0.00  0.00    +0.142 HD
ATOM     17  H   UNL     1       9.488   6.522  24.097  0.00  0.00    +0.142 HD
ENDBRANCH   9  15
ENDBRANCH   3   5
BRANCH   1  21
ATOM     18  N   UNL     1       7.176  -3.381  24.866  0.00  0.00    -0.302 NA
ATOM     19  C   UNL     1       6.588  -2.457  23.878  0.00  0.00    +0.086 C 
ATOM     20  C   UNL     1       7.401  -2.329  22.587  0.00  0.00    +0.037 C 
ATOM     21  C   UNL     1       8.860  -1.959  22.873  0.00  0.00    +0.076 C 
ATOM     22  C   UNL     1       9.458  -2.885  23.935  0.00  0.00    +0.037 C 
ATOM     23  C   UNL     1       8.558  -2.981  25.168  0.00  0.00    +0.086 C 
BRANCH  18  24
ATOM     24  C   UNL     1       7.034  -4.780  24.436  0.00  0.00    +0.086 C 
BRANCH  24  25
ATOM     25  C   UNL     1       5.584  -5.260  24.333  0.00  0.00    +0.043 C 
BRANCH  25  26
ATOM     26  C   UNL     1       5.389  -6.080  23.064  0.00  0.00    +0.160 C 
BRANCH  26  28
ATOM     27  C   UNL     1       6.202  -5.622  20.906  0.00  0.00    +0.193 C 
ATOM     28  O   UNL     1       5.338  -5.192  21.950  0.00  0.00    -0.383 OA
ENDBRANCH  26  28
ENDBRANCH  25  26
ENDBRANCH  24  25
ENDBRANCH  18  24
ENDBRANCH   1  21
TORSDOF 7
ENDMDL
