MODEL 1
REMARK VINA RESULT:      -6.9      0.000      0.000
REMARK  Name = 
REMARK  6 active torsions:
REMARK  status: ('A' for Active; 'I' for Inactive)
REMARK    1  A    between atoms: C_2  and  O_3
REMARK    2  A    between atoms: C_8  and  C_10
REMARK    3  A    between atoms: C_10  and  C_11
REMARK    4  A    between atoms: C_11  and  C_12
REMARK    5  A    between atoms: C_14  and  C_16
REMARK    6  A    between atoms: C_23  and  O_25
REMARK                            x       y       z     vdW  Elec       q    Type
REMARK                         _______ _______ _______ _____ _____    ______ ____
ROOT
ATOM      1  C   UNL     1       8.296  -1.205  23.975  0.00  0.00    +0.006 C 
ATOM      2  C   UNL     1       9.423  -0.106  23.978  0.00  0.00    +0.051 C 
ATOM      3  C   UNL     1       8.935   1.214  24.601  0.00  0.00    -0.046 C 
ATOM      4  C   UNL     1       9.367   2.424  24.200  0.00  0.00    -0.023 C 
ATOM      5  C   UNL     1      10.256   2.625  23.020  0.00  0.00    +0.030 C 
ATOM      6  C   UNL     1      10.027   1.517  22.015  0.00  0.00    +0.036 C 
ATOM      7  C   UNL     1       7.970   1.149  25.675  0.00  0.00    -0.000 C 
ATOM      8  C   UNL     1       7.363   0.017  26.035  0.00  0.00    -0.023 C 
ATOM      9  C   UNL     1      10.235   0.143  22.651  0.00  0.00    +0.122 C 
ATOM     10  C   UNL     1       7.623  -1.317  25.393  0.00  0.00    +0.012 C 
ATOM     11  C   UNL     1       8.409  -2.155  26.414  0.00  0.00    +0.012 C 
ENDROOT
BRANCH   9  12
ATOM     12  O   UNL     1      10.042  -0.802  21.611  0.00  0.00    -0.391 OA
ATOM     13  H   UNL     1       9.343  -0.478  21.019  0.00  0.00    +0.210 HD
ENDBRANCH   9  12
BRANCH   1  14
ATOM     14  C   UNL     1       8.791  -2.595  23.499  0.00  0.00    +0.008 C 
BRANCH  14  15
ATOM     15  C   UNL     1       7.826  -3.364  22.579  0.00  0.00    +0.045 C 
BRANCH  15  18
ATOM     16  C   UNL     1       5.246  -4.785  23.770  0.00  0.00    +0.129 C 
ATOM     17  C   UNL     1       6.675  -4.985  24.232  0.00  0.00    +0.076 C 
ATOM     18  C   UNL     1       7.653  -4.813  23.080  0.00  0.00    +0.179 C 
ATOM     19  O   UNL     1       7.302  -5.674  21.985  0.00  0.00    -0.461 OA
ATOM     20  C   UNL     1       6.035  -5.715  21.516  0.00  0.00    +0.310 C 
ATOM     21  O   UNL     1       5.801  -6.010  20.348  0.00  0.00    -0.251 OA
ATOM     22  C   UNL     1       4.922  -5.598  22.529  0.00  0.00    +0.152 C 
BRANCH  16  23
ATOM     23  O   UNL     1       4.986  -3.408  23.518  0.00  0.00    -0.391 OA
ATOM     24  H   UNL     1       5.702  -2.882  23.916  0.00  0.00    +0.210 HD
ENDBRANCH  16  23
ENDBRANCH  15  18
ENDBRANCH  14  15
ENDBRANCH   1  14
TORSDOF 5
ENDMDL
MODEL 2
REMARK VINA RESULT:      -6.8      2.406      6.602
REMARK  Name = 
REMARK  6 active torsions:
REMARK  status: ('A' for Active; 'I' for Inactive)
REMARK    1  A    between atoms: C_2  and  O_3
REMARK    2  A    between atoms: C_8  and  C_10
REMARK    3  A    between atoms: C_10  and  C_11
REMARK    4  A    between atoms: C_11  and  C_12
REMARK    5  A    between atoms: C_14  and  C_16
REMARK    6  A    between atoms: C_23  and  O_25
REMARK                            x       y       z     vdW  Elec       q    Type
REMARK                         _______ _______ _______ _____ _____    ______ ____
ROOT
ATOM      1  C   UNL     1       6.688  -4.077  23.326  0.00  0.00    +0.006 C 
ATOM      2  C   UNL     1       6.960  -5.046  24.538  0.00  0.00    +0.051 C 
ATOM      3  C   UNL     1       5.664  -5.702  25.047  0.00  0.00    -0.046 C 
ATOM      4  C   UNL     1       5.456  -6.020  26.339  0.00  0.00    -0.023 C 
ATOM      5  C   UNL     1       6.396  -5.646  27.435  0.00  0.00    +0.030 C 
ATOM      6  C   UNL     1       7.133  -4.377  27.063  0.00  0.00    +0.036 C 
ATOM      7  C   UNL     1       4.623  -5.998  24.090  0.00  0.00    -0.000 C 
ATOM      8  C   UNL     1       4.664  -5.580  22.824  0.00  0.00    -0.023 C 
ATOM      9  C   UNL     1       7.857  -4.532  25.726  0.00  0.00    +0.122 C 
ATOM     10  C   UNL     1       5.796  -4.782  22.238  0.00  0.00    +0.012 C 
ATOM     11  C   UNL     1       6.558  -5.722  21.290  0.00  0.00    +0.012 C 
ENDROOT
BRANCH   9  12
ATOM     12  O   UNL     1       8.544  -3.309  25.510  0.00  0.00    -0.391 OA
ATOM     13  H   UNL     1       9.299  -3.262  26.120  0.00  0.00    +0.210 HD
ENDBRANCH   9  12
BRANCH   1  14
ATOM     14  C   UNL     1       7.983  -3.515  22.684  0.00  0.00    +0.008 C 
BRANCH  14  15
ATOM     15  C   UNL     1       7.965  -2.011  22.361  0.00  0.00    +0.045 C 
BRANCH  15  18
ATOM     16  C   UNL     1       8.969   1.003  22.309  0.00  0.00    +0.129 C 
ATOM     17  C   UNL     1       9.569  -0.156  21.539  0.00  0.00    +0.076 C 
ATOM     18  C   UNL     1       9.406  -1.463  22.301  0.00  0.00    +0.179 C 
ATOM     19  O   UNL     1       9.944  -1.344  23.629  0.00  0.00    -0.461 OA
ATOM     20  C   UNL     1       9.609  -0.301  24.420  0.00  0.00    +0.310 C 
ATOM     21  O   UNL     1       9.618  -0.405  25.643  0.00  0.00    -0.251 OA
ATOM     22  C   UNL     1       9.439   1.042  23.753  0.00  0.00    +0.152 C 
BRANCH  16  23
ATOM     23  O   UNL     1       7.547   0.951  22.273  0.00  0.00    -0.391 OA
ATOM     24  H   UNL     1       7.265   0.884  21.343  0.00  0.00    +0.210 HD
ENDBRANCH  16  23
ENDBRANCH  15  18
ENDBRANCH  14  15
ENDBRANCH   1  14
TORSDOF 5
ENDMDL
MODEL 3
REMARK VINA RESULT:      -6.8      2.490      6.783
REMARK  Name = 
REMARK  6 active torsions:
REMARK  status: ('A' for Active; 'I' for Inactive)
REMARK    1  A    between atoms: C_2  and  O_3
REMARK    2  A    between atoms: C_8  and  C_10
REMARK    3  A    between atoms: C_10  and  C_11
REMARK    4  A    between atoms: C_11  and  C_12
REMARK    5  A    between atoms: C_14  and  C_16
REMARK    6  A    between atoms: C_23  and  O_25
REMARK                            x       y       z     vdW  Elec       q    Type
REMARK                         _______ _______ _______ _____ _____    ______ ____
ROOT
ATOM      1  C   UNL     1       6.477  -4.206  23.729  0.00  0.00    +0.006 C 
ATOM      2  C   UNL     1       6.705  -5.202  24.926  0.00  0.00    +0.051 C 
ATOM      3  C   UNL     1       5.446  -6.036  25.225  0.00  0.00    -0.046 C 
ATOM      4  C   UNL     1       5.111  -6.449  26.462  0.00  0.00    -0.023 C 
ATOM      5  C   UNL     1       5.842  -6.029  27.691  0.00  0.00    +0.030 C 
ATOM      6  C   UNL     1       6.457  -4.663  27.476  0.00  0.00    +0.036 C 
ATOM      7  C   UNL     1       4.586  -6.398  24.122  0.00  0.00    -0.000 C 
ATOM      8  C   UNL     1       4.742  -5.907  22.891  0.00  0.00    -0.023 C 
ATOM      9  C   UNL     1       7.366  -4.654  26.247  0.00  0.00    +0.122 C 
ATOM     10  C   UNL     1       5.832  -4.948  22.501  0.00  0.00    +0.012 C 
ATOM     11  C   UNL     1       6.824  -5.736  21.630  0.00  0.00    +0.012 C 
ENDROOT
BRANCH   9  12
ATOM     12  O   UNL     1       7.916  -3.348  26.178  0.00  0.00    -0.391 OA
ATOM     13  H   UNL     1       8.634  -3.275  26.829  0.00  0.00    +0.210 HD
ENDBRANCH   9  12
BRANCH   1  14
ATOM     14  C   UNL     1       7.764  -3.458  23.295  0.00  0.00    +0.008 C 
BRANCH  14  15
ATOM     15  C   UNL     1       7.547  -2.066  22.677  0.00  0.00    +0.045 C 
BRANCH  15  18
ATOM     16  C   UNL     1      10.366  -0.602  22.590  0.00  0.00    +0.129 C 
ATOM     17  C   UNL     1       9.614  -1.029  23.835  0.00  0.00    +0.076 C 
ATOM     18  C   UNL     1       8.110  -0.975  23.612  0.00  0.00    +0.179 C 
ATOM     19  O   UNL     1       7.714   0.325  23.146  0.00  0.00    -0.461 OA
ATOM     20  C   UNL     1       8.357   0.916  22.115  0.00  0.00    +0.310 C 
ATOM     21  O   UNL     1       7.784   1.725  21.391  0.00  0.00    -0.251 OA
ATOM     22  C   UNL     1       9.849   0.710  22.025  0.00  0.00    +0.152 C 
BRANCH  16  23
ATOM     23  O   UNL     1      10.297  -1.611  21.589  0.00  0.00    -0.391 OA
ATOM     24  H   UNL     1      10.199  -2.474  22.028  0.00  0.00    +0.210 HD
ENDBRANCH  16  23
ENDBRANCH  15  18
ENDBRANCH  14  15
ENDBRANCH   1  14
TORSDOF 5
ENDMDL
MODEL 4
REMARK VINA RESULT:      -6.6      1.801      6.217
REMARK  Name = 
REMARK  6 active torsions:
REMARK  status: ('A' for Active; 'I' for Inactive)
REMARK    1  A    between atoms: C_2  and  O_3
REMARK    2  A    between atoms: C_8  and  C_10
REMARK    3  A    between atoms: C_10  and  C_11
REMARK    4  A    between atoms: C_11  and  C_12
REMARK    5  A    between atoms: C_14  and  C_16
REMARK    6  A    between atoms: C_23  and  O_25
REMARK                            x       y       z     vdW  Elec       q    Type
REMARK                         _______ _______ _______ _____ _____    ______ ____
ROOT
ATOM      1  C   UNL     1       8.050  -2.844  24.331  0.00  0.00    +0.006 C 
ATOM      2  C   UNL     1       6.955  -3.812  23.746  0.00  0.00    +0.051 C 
ATOM      3  C   UNL     1       7.552  -5.171  23.338  0.00  0.00    -0.046 C 
ATOM      4  C   UNL     1       7.091  -5.900  22.304  0.00  0.00    -0.023 C 
ATOM      5  C   UNL     1       6.048  -5.409  21.359  0.00  0.00    +0.030 C 
ATOM      6  C   UNL     1       6.111  -3.899  21.269  0.00  0.00    +0.036 C 
ATOM      7  C   UNL     1       8.658  -5.693  24.108  0.00  0.00    -0.000 C 
ATOM      8  C   UNL     1       9.288  -4.980  25.044  0.00  0.00    -0.023 C 
ATOM      9  C   UNL     1       5.968  -3.258  22.649  0.00  0.00    +0.122 C 
ATOM     10  C   UNL     1       8.914  -3.575  25.424  0.00  0.00    +0.012 C 
ATOM     11  C   UNL     1       8.264  -3.650  26.815  0.00  0.00    +0.012 C 
ENDROOT
BRANCH   9  12
ATOM     12  O   UNL     1       5.994  -1.856  22.433  0.00  0.00    -0.391 OA
ATOM     13  H   UNL     1       5.842  -1.682  21.489  0.00  0.00    +0.210 HD
ENDBRANCH   9  12
BRANCH   1  14
ATOM     14  C   UNL     1       7.466  -1.523  24.897  0.00  0.00    +0.008 C 
BRANCH  14  15
ATOM     15  C   UNL     1       8.455  -0.348  24.995  0.00  0.00    +0.045 C 
BRANCH  15  18
ATOM     16  C   UNL     1      10.176   1.964  23.657  0.00  0.00    +0.129 C 
ATOM     17  C   UNL     1       8.784   2.103  24.240  0.00  0.00    +0.076 C 
ATOM     18  C   UNL     1       7.994   0.812  24.088  0.00  0.00    +0.179 C 
ATOM     19  O   UNL     1       7.978   0.388  22.715  0.00  0.00    -0.461 OA
ATOM     20  C   UNL     1       9.122   0.319  21.999  0.00  0.00    +0.310 C 
ATOM     21  O   UNL     1       9.237  -0.467  21.064  0.00  0.00    -0.251 OA
ATOM     22  C   UNL     1      10.158   1.386  22.253  0.00  0.00    +0.152 C 
BRANCH  16  23
ATOM     23  O   UNL     1      10.994   1.154  24.495  0.00  0.00    -0.391 OA
ATOM     24  H   UNL     1      11.926   1.362  24.308  0.00  0.00    +0.210 HD
ENDBRANCH  16  23
ENDBRANCH  15  18
ENDBRANCH  14  15
ENDBRANCH   1  14
TORSDOF 5
ENDMDL
MODEL 5
REMARK VINA RESULT:      -6.5      2.037      2.719
REMARK  Name = 
REMARK  6 active torsions:
REMARK  status: ('A' for Active; 'I' for Inactive)
REMARK    1  A    between atoms: C_2  and  O_3
REMARK    2  A    between atoms: C_8  and  C_10
REMARK    3  A    between atoms: C_10  and  C_11
REMARK    4  A    between atoms: C_11  and  C_12
REMARK    5  A    between atoms: C_14  and  C_16
REMARK    6  A    between atoms: C_23  and  O_25
REMARK                            x       y       z     vdW  Elec       q    Type
REMARK                         _______ _______ _______ _____ _____    ______ ____
ROOT
ATOM      1  C   UNL     1       8.031  -0.146  23.523  0.00  0.00    +0.006 C 
ATOM      2  C   UNL     1       8.388   1.284  22.968  0.00  0.00    +0.051 C 
ATOM      3  C   UNL     1       9.431   1.995  23.849  0.00  0.00    -0.046 C 
ATOM      4  C   UNL     1       9.457   3.329  24.030  0.00  0.00    -0.023 C 
ATOM      5  C   UNL     1       8.401   4.246  23.514  0.00  0.00    +0.030 C 
ATOM      6  C   UNL     1       7.083   3.507  23.427  0.00  0.00    +0.036 C 
ATOM      7  C   UNL     1      10.435   1.191  24.507  0.00  0.00    -0.000 C 
ATOM      8  C   UNL     1      10.399  -0.143  24.521  0.00  0.00    -0.023 C 
ATOM      9  C   UNL     1       7.211   2.251  22.565  0.00  0.00    +0.122 C 
ATOM     10  C   UNL     1       9.338  -0.962  23.842  0.00  0.00    +0.012 C 
ATOM     11  C   UNL     1      10.000  -1.622  22.622  0.00  0.00    +0.012 C 
ENDROOT
BRANCH   9  12
ATOM     12  O   UNL     1       5.915   1.676  22.519  0.00  0.00    -0.391 OA
ATOM     13  H   UNL     1       5.818   1.061  23.265  0.00  0.00    +0.210 HD
ENDBRANCH   9  12
BRANCH   1  14
ATOM     14  C   UNL     1       7.102  -0.957  22.583  0.00  0.00    +0.008 C 
BRANCH  14  15
ATOM     15  C   UNL     1       6.381  -2.151  23.231  0.00  0.00    +0.045 C 
BRANCH  15  18
ATOM     16  C   UNL     1       6.889  -5.147  24.160  0.00  0.00    +0.129 C 
ATOM     17  C   UNL     1       7.515  -4.460  22.963  0.00  0.00    +0.076 C 
ATOM     18  C   UNL     1       6.574  -3.420  22.374  0.00  0.00    +0.179 C 
ATOM     19  O   UNL     1       5.299  -4.007  22.068  0.00  0.00    -0.461 OA
ATOM     20  C   UNL     1       4.646  -4.758  22.983  0.00  0.00    +0.310 C 
ATOM     21  O   UNL     1       3.422  -4.846  22.973  0.00  0.00    -0.251 OA
ATOM     22  C   UNL     1       5.485  -5.647  23.869  0.00  0.00    +0.152 C 
BRANCH  16  23
ATOM     23  O   UNL     1       6.860  -4.275  25.284  0.00  0.00    -0.391 OA
ATOM     24  H   UNL     1       6.952  -4.811  26.092  0.00  0.00    +0.210 HD
ENDBRANCH  16  23
ENDBRANCH  15  18
ENDBRANCH  14  15
ENDBRANCH   1  14
TORSDOF 5
ENDMDL
MODEL 6
REMARK VINA RESULT:      -6.5      1.957      6.662
REMARK  Name = 
REMARK  6 active torsions:
REMARK  status: ('A' for Active; 'I' for Inactive)
REMARK    1  A    between atoms: C_2  and  O_3
REMARK    2  A    between atoms: C_8  and  C_10
REMARK    3  A    between atoms: C_10  and  C_11
REMARK    4  A    between atoms: C_11  and  C_12
REMARK    5  A    between atoms: C_14  and  C_16
REMARK    6  A    between atoms: C_23  and  O_25
REMARK                            x       y       z     vdW  Elec       q    Type
REMARK                         _______ _______ _______ _____ _____    ______ ____
ROOT
ATOM      1  C   UNL     1       7.772  -2.553  23.925  0.00  0.00    +0.006 C 
ATOM      2  C   UNL     1       6.834  -3.768  23.578  0.00  0.00    +0.051 C 
ATOM      3  C   UNL     1       7.619  -5.090  23.490  0.00  0.00    -0.046 C 
ATOM      4  C   UNL     1       7.289  -6.089  22.650  0.00  0.00    -0.023 C 
ATOM      5  C   UNL     1       6.218  -5.972  21.620  0.00  0.00    +0.030 C 
ATOM      6  C   UNL     1       6.082  -4.528  21.189  0.00  0.00    +0.036 C 
ATOM      7  C   UNL     1       8.761  -5.268  24.357  0.00  0.00    -0.000 C 
ATOM      8  C   UNL     1       9.263  -4.283  25.104  0.00  0.00    -0.023 C 
ATOM      9  C   UNL     1       5.815  -3.617  22.387  0.00  0.00    +0.122 C 
ATOM     10  C   UNL     1       8.694  -2.892  25.154  0.00  0.00    +0.012 C 
ATOM     11  C   UNL     1       8.020  -2.739  26.527  0.00  0.00    +0.012 C 
ENDROOT
BRANCH   9  12
ATOM     12  O   UNL     1       5.660  -2.310  21.856  0.00  0.00    -0.391 OA
ATOM     13  H   UNL     1       5.167  -1.769  22.496  0.00  0.00    +0.210 HD
ENDBRANCH   9  12
BRANCH   1  14
ATOM     14  C   UNL     1       7.001  -1.231  24.176  0.00  0.00    +0.008 C 
BRANCH  14  15
ATOM     15  C   UNL     1       7.612   0.026  23.533  0.00  0.00    +0.045 C 
BRANCH  15  18
ATOM     16  C   UNL     1      10.006   1.495  22.047  0.00  0.00    +0.129 C 
ATOM     17  C   UNL     1      10.098   0.207  22.840  0.00  0.00    +0.076 C 
ATOM     18  C   UNL     1       9.083   0.188  23.973  0.00  0.00    +0.179 C 
ATOM     19  O   UNL     1       9.224   1.356  24.799  0.00  0.00    -0.461 OA
ATOM     20  C   UNL     1       9.282   2.589  24.249  0.00  0.00    +0.310 C 
ATOM     21  O   UNL     1       8.908   3.578  24.871  0.00  0.00    -0.251 OA
ATOM     22  C   UNL     1      10.020   2.724  22.939  0.00  0.00    +0.152 C 
BRANCH  16  23
ATOM     23  O   UNL     1       8.835   1.508  21.239  0.00  0.00    -0.391 OA
ATOM     24  H   UNL     1       9.104   1.621  20.310  0.00  0.00    +0.210 HD
ENDBRANCH  16  23
ENDBRANCH  15  18
ENDBRANCH  14  15
ENDBRANCH   1  14
TORSDOF 5
ENDMDL
MODEL 7
REMARK VINA RESULT:      -6.2      1.695      2.563
REMARK  Name = 
REMARK  6 active torsions:
REMARK  status: ('A' for Active; 'I' for Inactive)
REMARK    1  A    between atoms: C_2  and  O_3
REMARK    2  A    between atoms: C_8  and  C_10
REMARK    3  A    between atoms: C_10  and  C_11
REMARK    4  A    between atoms: C_11  and  C_12
REMARK    5  A    between atoms: C_14  and  C_16
REMARK    6  A    between atoms: C_23  and  O_25
REMARK                            x       y       z     vdW  Elec       q    Type
REMARK                         _______ _______ _______ _____ _____    ______ ____
ROOT
ATOM      1  C   UNL     1       6.763  -0.479  24.345  0.00  0.00    +0.006 C 
ATOM      2  C   UNL     1       8.166  -0.053  24.919  0.00  0.00    +0.051 C 
ATOM      3  C   UNL     1       8.459   1.437  24.664  0.00  0.00    -0.046 C 
ATOM      4  C   UNL     1       9.697   1.918  24.444  0.00  0.00    -0.023 C 
ATOM      5  C   UNL     1      10.897   1.048  24.284  0.00  0.00    +0.030 C 
ATOM      6  C   UNL     1      10.481  -0.295  23.721  0.00  0.00    +0.036 C 
ATOM      7  C   UNL     1       7.351   2.364  24.668  0.00  0.00    -0.000 C 
ATOM      8  C   UNL     1       6.077   1.970  24.717  0.00  0.00    -0.023 C 
ATOM      9  C   UNL     1       9.417  -0.955  24.597  0.00  0.00    +0.122 C 
ATOM     10  C   UNL     1       5.645   0.532  24.796  0.00  0.00    +0.012 C 
ATOM     11  C   UNL     1       5.109   0.308  26.219  0.00  0.00    +0.012 C 
ENDROOT
BRANCH   9  12
ATOM     12  O   UNL     1       9.146  -2.213  24.001  0.00  0.00    -0.391 OA
ATOM     13  H   UNL     1       9.841  -2.840  24.263  0.00  0.00    +0.210 HD
ENDBRANCH   9  12
BRANCH   1  14
ATOM     14  C   UNL     1       6.361  -1.931  24.716  0.00  0.00    +0.008 C 
BRANCH  14  15
ATOM     15  C   UNL     1       5.638  -2.721  23.612  0.00  0.00    +0.045 C 
BRANCH  15  18
ATOM     16  C   UNL     1       5.685  -5.390  21.888  0.00  0.00    +0.129 C 
ATOM     17  C   UNL     1       4.743  -5.078  23.033  0.00  0.00    +0.076 C 
ATOM     18  C   UNL     1       5.412  -4.180  24.063  0.00  0.00    +0.179 C 
ATOM     19  O   UNL     1       6.651  -4.756  24.508  0.00  0.00    -0.461 OA
ATOM     20  C   UNL     1       7.565  -5.202  23.618  0.00  0.00    +0.310 C 
ATOM     21  O   UNL     1       8.761  -5.222  23.894  0.00  0.00    -0.251 OA
ATOM     22  C   UNL     1       7.042  -5.871  22.370  0.00  0.00    +0.152 C 
BRANCH  16  23
ATOM     23  O   UNL     1       5.854  -4.252  21.049  0.00  0.00    -0.391 OA
ATOM     24  H   UNL     1       6.607  -3.734  21.382  0.00  0.00    +0.210 HD
ENDBRANCH  16  23
ENDBRANCH  15  18
ENDBRANCH  14  15
ENDBRANCH   1  14
TORSDOF 5
ENDMDL
MODEL 8
REMARK VINA RESULT:      -6.1      1.988      3.067
REMARK  Name = 
REMARK  6 active torsions:
REMARK  status: ('A' for Active; 'I' for Inactive)
REMARK    1  A    between atoms: C_2  and  O_3
REMARK    2  A    between atoms: C_8  and  C_10
REMARK    3  A    between atoms: C_10  and  C_11
REMARK    4  A    between atoms: C_11  and  C_12
REMARK    5  A    between atoms: C_14  and  C_16
REMARK    6  A    between atoms: C_23  and  O_25
REMARK                            x       y       z     vdW  Elec       q    Type
REMARK                         _______ _______ _______ _____ _____    ______ ____
ROOT
ATOM      1  C   UNL     1       8.448  -0.196  23.605  0.00  0.00    +0.006 C 
ATOM      2  C   UNL     1       8.496   1.193  22.866  0.00  0.00    +0.051 C 
ATOM      3  C   UNL     1       9.502   2.156  23.522  0.00  0.00    -0.046 C 
ATOM      4  C   UNL     1       9.328   3.491  23.562  0.00  0.00    -0.023 C 
ATOM      5  C   UNL     1       8.081   4.167  23.102  0.00  0.00    +0.030 C 
ATOM      6  C   UNL     1       6.903   3.231  23.267  0.00  0.00    +0.036 C 
ATOM      7  C   UNL     1      10.695   1.600  24.117  0.00  0.00    -0.000 C 
ATOM      8  C   UNL     1      10.883   0.288  24.271  0.00  0.00    -0.023 C 
ATOM      9  C   UNL     1       7.136   1.914  22.529  0.00  0.00    +0.122 C 
ATOM     10  C   UNL     1       9.900  -0.760  23.828  0.00  0.00    +0.012 C 
ATOM     11  C   UNL     1      10.516  -1.455  22.603  0.00  0.00    +0.012 C 
ENDROOT
BRANCH   9  12
ATOM     12  O   UNL     1       5.957   1.148  22.715  0.00  0.00    -0.391 OA
ATOM     13  H   UNL     1       5.189   1.743  22.690  0.00  0.00    +0.210 HD
ENDBRANCH   9  12
BRANCH   1  14
ATOM     14  C   UNL     1       7.563  -1.247  22.886  0.00  0.00    +0.008 C 
BRANCH  14  15
ATOM     15  C   UNL     1       7.374  -2.579  23.633  0.00  0.00    +0.045 C 
BRANCH  15  18
ATOM     16  C   UNL     1       5.777  -4.935  22.221  0.00  0.00    +0.129 C 
ATOM     17  C   UNL     1       5.275  -3.524  22.454  0.00  0.00    +0.076 C 
ATOM     18  C   UNL     1       5.874  -2.932  23.720  0.00  0.00    +0.179 C 
ATOM     19  O   UNL     1       5.636  -3.795  24.844  0.00  0.00    -0.461 OA
ATOM     20  C   UNL     1       5.915  -5.116  24.773  0.00  0.00    +0.310 C 
ATOM     21  O   UNL     1       6.202  -5.757  25.779  0.00  0.00    -0.251 OA
ATOM     22  C   UNL     1       5.646  -5.806  23.458  0.00  0.00    +0.152 C 
BRANCH  16  23
ATOM     23  O   UNL     1       7.133  -4.923  21.789  0.00  0.00    -0.391 OA
ATOM     24  H   UNL     1       7.146  -4.870  20.817  0.00  0.00    +0.210 HD
ENDBRANCH  16  23
ENDBRANCH  15  18
ENDBRANCH  14  15
ENDBRANCH   1  14
TORSDOF 5
ENDMDL
MODEL 9
REMARK VINA RESULT:      -6.0      1.879      2.666
REMARK  Name = 
REMARK  6 active torsions:
REMARK  status: ('A' for Active; 'I' for Inactive)
REMARK    1  A    between atoms: C_2  and  O_3
REMARK    2  A    between atoms: C_8  and  C_10
REMARK    3  A    between atoms: C_10  and  C_11
REMARK    4  A    between atoms: C_11  and  C_12
REMARK    5  A    between atoms: C_14  and  C_16
REMARK    6  A    between atoms: C_23  and  O_25
REMARK                            x       y       z     vdW  Elec       q    Type
REMARK                         _______ _______ _______ _____ _____    ______ ____
ROOT
ATOM      1  C   UNL     1       7.683  -0.538  25.069  0.00  0.00    +0.006 C 
ATOM      2  C   UNL     1       8.580   0.448  24.231  0.00  0.00    +0.051 C 
ATOM      3  C   UNL     1       7.732   1.371  23.337  0.00  0.00    -0.046 C 
ATOM      4  C   UNL     1       8.145   1.816  22.135  0.00  0.00    -0.023 C 
ATOM      5  C   UNL     1       9.401   1.354  21.479  0.00  0.00    +0.030 C 
ATOM      6  C   UNL     1       9.723  -0.054  21.931  0.00  0.00    +0.036 C 
ATOM      7  C   UNL     1       6.434   1.786  23.816  0.00  0.00    -0.000 C 
ATOM      8  C   UNL     1       5.870   1.277  24.913  0.00  0.00    -0.023 C 
ATOM      9  C   UNL     1       9.819  -0.137  23.454  0.00  0.00    +0.122 C 
ATOM     10  C   UNL     1       6.519   0.240  25.787  0.00  0.00    +0.012 C 
ATOM     11  C   UNL     1       6.923   0.948  27.090  0.00  0.00    +0.012 C 
ENDROOT
BRANCH   9  12
ATOM     12  O   UNL     1      10.169  -1.479  23.751  0.00  0.00    -0.391 OA
ATOM     13  H   UNL     1      11.136  -1.543  23.820  0.00  0.00    +0.210 HD
ENDBRANCH   9  12
BRANCH   1  14
ATOM     14  C   UNL     1       8.486  -1.379  26.097  0.00  0.00    +0.008 C 
BRANCH  14  15
ATOM     15  C   UNL     1       7.784  -2.650  26.607  0.00  0.00    +0.045 C 
BRANCH  15  18
ATOM     16  C   UNL     1       6.634  -5.398  25.503  0.00  0.00    +0.129 C 
ATOM     17  C   UNL     1       7.843  -5.227  26.400  0.00  0.00    +0.076 C 
ATOM     18  C   UNL     1       8.544  -3.905  26.128  0.00  0.00    +0.179 C 
ATOM     19  O   UNL     1       8.869  -3.782  24.734  0.00  0.00    -0.461 OA
ATOM     20  C   UNL     1       7.938  -4.018  23.783  0.00  0.00    +0.310 C 
ATOM     21  O   UNL     1       8.000  -3.469  22.687  0.00  0.00    -0.251 OA
ATOM     22  C   UNL     1       6.956  -5.134  24.043  0.00  0.00    +0.152 C 
BRANCH  16  23
ATOM     23  O   UNL     1       5.573  -4.544  25.918  0.00  0.00    -0.391 OA
ATOM     24  H   UNL     1       4.731  -5.016  25.793  0.00  0.00    +0.210 HD
ENDBRANCH  16  23
ENDBRANCH  15  18
ENDBRANCH  14  15
ENDBRANCH   1  14
TORSDOF 5
ENDMDL
