MODEL 1
REMARK VINA RESULT:      -7.2      0.000      0.000
REMARK  Name = 
REMARK  16 active torsions:
REMARK  status: ('A' for Active; 'I' for Inactive)
REMARK    1  A    between atoms: O_1  and  C_2
REMARK    2  A    between atoms: C_4  and  O_6
REMARK    3  A    between atoms: C_7  and  N_26
REMARK    4  A    between atoms: C_10  and  C_12
REMARK    5  A    between atoms: C_12  and  O_13
REMARK    6  A    between atoms: O_13  and  P_14
REMARK    7  A    between atoms: P_14  and  O_17
REMARK    8  A    between atoms: O_17  and  P_18
REMARK    9  A    between atoms: P_18  and  O_21
REMARK   10  A    between atoms: O_21  and  P_22
REMARK   11  A    between atoms: N_33  and  C_34
REMARK   12  A    between atoms: C_37  and  C_39
REMARK   13  A    between atoms: C_39  and  O_40
REMARK   14  A    between atoms: O_40  and  P_41
REMARK   15  A    between atoms: C_45  and  O_47
REMARK   16  A    between atoms: C_48  and  O_50
REMARK                            x       y       z     vdW  Elec       q    Type
REMARK                         _______ _______ _______ _____ _____    ______ ____
ROOT
ATOM      1  N   UNL     1       6.920  -3.617  23.752  0.00  0.00    -0.286 N 
ATOM      2  C   UNL     1       7.438  -2.366  23.600  0.00  0.00    +0.168 A 
ATOM      3  N   UNL     1       7.279  -1.587  22.506  0.00  0.00    -0.218 NA
ATOM      4  C   UNL     1       7.813  -0.418  22.703  0.00  0.00    +0.205 A 
ATOM      5  N   UNL     1       8.564   0.005  23.815  0.00  0.00    -0.286 N 
ATOM      6  C   UNL     1       8.651  -0.759  24.990  0.00  0.00    +0.159 A 
ATOM      7  N   UNL     1       9.185  -0.454  26.129  0.00  0.00    -0.281 NA
ATOM      8  H   UNL     1       9.514   0.507  26.145  0.00  0.00    +0.188 HD
ATOM      9  C   UNL     1       8.051  -2.069  24.800  0.00  0.00    +0.150 A 
ATOM     10  N   UNL     1       7.950  -3.116  25.676  0.00  0.00    -0.230 NA
ATOM     11  C   UNL     1       7.098  -3.932  25.077  0.00  0.00    +0.203 A 
ENDROOT
BRANCH   1  15
ATOM     12  C   UNL     1       5.075  -6.239  23.591  0.00  0.00    +0.178 C 
ATOM     13  C   UNL     1       4.126  -5.196  22.953  0.00  0.00    +0.178 C 
ATOM     14  O   UNL     1       4.919  -4.065  22.591  0.00  0.00    -0.346 OA
ATOM     15  C   UNL     1       6.303  -4.398  22.689  0.00  0.00    +0.253 C 
ATOM     16  C   UNL     1       6.397  -5.933  22.907  0.00  0.00    +0.195 C 
BRANCH  12  17
ATOM     17  O   UNL     1       5.270  -6.233  25.007  0.00  0.00    -0.386 OA
ATOM     18  H   UNL     1       4.832  -7.016  25.395  0.00  0.00    +0.210 HD
ENDBRANCH  12  17
BRANCH  16  19
ATOM     19  O   UNL     1       6.444  -6.649  21.652  0.00  0.00    -0.385 OA
ATOM     20  H   UNL     1       7.171  -6.268  21.136  0.00  0.00    +0.210 HD
ENDBRANCH  16  19
BRANCH  13  21
ATOM     21  C   UNL     1       2.990  -4.806  23.860  0.00  0.00    +0.202 C 
BRANCH  21  22
ATOM     22  O   UNL     1       3.323  -3.969  24.962  0.00  0.00    -0.325 OA
BRANCH  22  23
ATOM     23  P   UNL     1       2.054  -3.826  26.086  0.00  0.00    +0.218 P 
ATOM     24  O   UNL     1       0.881  -4.147  24.857  0.00  0.00    -0.437 OA
ATOM     25  O   UNL     1       1.746  -2.281  26.041  0.00  0.00    -0.517 OA
BRANCH  23  26
ATOM     26  O   UNL     1       3.228  -3.505  27.316  0.00  0.00    -0.270 OA
BRANCH  26  27
ATOM     27  P   UNL     1       3.553  -5.075  27.967  0.00  0.00    +0.221 P 
ATOM     28  O   UNL     1       1.920  -5.546  27.646  0.00  0.00    -0.437 OA
ATOM     29  O   UNL     1       3.242  -4.870  29.503  0.00  0.00    -0.517 OA
BRANCH  27  30
ATOM     30  O   UNL     1       5.187  -4.603  28.287  0.00  0.00    -0.314 OA
BRANCH  30  31
ATOM     31  P   UNL     1       6.062  -5.982  28.567  0.00  0.00    -0.007 P 
ATOM     32  O   UNL     1       6.207  -6.004  30.083  0.00  0.00    -0.637 OA
ATOM     33  O   UNL     1       7.403  -5.804  27.850  0.00  0.00    -0.577 OA
ATOM     34  O   UNL     1       5.236  -7.119  27.971  0.00  0.00    -0.577 OA
ENDBRANCH  30  31
ENDBRANCH  27  30
ENDBRANCH  26  27
ENDBRANCH  23  26
ENDBRANCH  22  23
ENDBRANCH  21  22
ENDBRANCH  13  21
ENDBRANCH   1  15
BRANCH   5  35
ATOM     35  C   UNL     1       9.364   1.227  23.710  0.00  0.00    +0.253 C 
ATOM     36  C   UNL     1       8.950   2.133  22.518  0.00  0.00    +0.195 C 
ATOM     37  C   UNL     1       8.504   3.451  23.149  0.00  0.00    +0.178 C 
ATOM     38  C   UNL     1       8.276   3.091  24.605  0.00  0.00    +0.178 C 
ATOM     39  O   UNL     1       9.267   2.070  24.871  0.00  0.00    -0.346 OA
BRANCH  36  40
ATOM     40  O   UNL     1      10.063   2.377  21.628  0.00  0.00    -0.385 OA
ATOM     41  H   UNL     1      10.349   1.470  21.374  0.00  0.00    +0.210 HD
ENDBRANCH  36  40
BRANCH  37  42
ATOM     42  O   UNL     1       9.589   4.409  23.016  0.00  0.00    -0.386 OA
ATOM     43  H   UNL     1      10.295   4.072  23.604  0.00  0.00    +0.210 HD
ENDBRANCH  37  42
BRANCH  38  44
ATOM     44  C   UNL     1       6.842   2.611  24.866  0.00  0.00    +0.198 C 
BRANCH  44  45
ATOM     45  O   UNL     1       6.790   1.853  26.070  0.00  0.00    -0.365 OA
BRANCH  45  46
ATOM     46  P   UNL     1       5.332   0.943  26.269  0.00  0.00    -0.015 P 
ATOM     47  O   UNL     1       4.028   0.129  26.449  0.00  0.00    -0.638 OA
ATOM     48  O   UNL     1       6.173   0.005  27.152  0.00  0.00    -0.577 OA
ATOM     49  O   UNL     1       5.297   0.790  24.727  0.00  0.00    -0.577 OA
ENDBRANCH  45  46
ENDBRANCH  44  45
ENDBRANCH  38  44
ENDBRANCH   5  35
TORSDOF 16
ENDMDL
MODEL 2
REMARK VINA RESULT:      -7.1      2.751      5.084
REMARK  Name = 
REMARK  16 active torsions:
REMARK  status: ('A' for Active; 'I' for Inactive)
REMARK    1  A    between atoms: O_1  and  C_2
REMARK    2  A    between atoms: C_4  and  O_6
REMARK    3  A    between atoms: C_7  and  N_26
REMARK    4  A    between atoms: C_10  and  C_12
REMARK    5  A    between atoms: C_12  and  O_13
REMARK    6  A    between atoms: O_13  and  P_14
REMARK    7  A    between atoms: P_14  and  O_17
REMARK    8  A    between atoms: O_17  and  P_18
REMARK    9  A    between atoms: P_18  and  O_21
REMARK   10  A    between atoms: O_21  and  P_22
REMARK   11  A    between atoms: N_33  and  C_34
REMARK   12  A    between atoms: C_37  and  C_39
REMARK   13  A    between atoms: C_39  and  O_40
REMARK   14  A    between atoms: O_40  and  P_41
REMARK   15  A    between atoms: C_45  and  O_47
REMARK   16  A    between atoms: C_48  and  O_50
REMARK                            x       y       z     vdW  Elec       q    Type
REMARK                         _______ _______ _______ _____ _____    ______ ____
ROOT
ATOM      1  N   UNL     1       9.459  -1.484  23.619  0.00  0.00    -0.286 N 
ATOM      2  C   UNL     1       8.872  -0.261  23.747  0.00  0.00    +0.168 A 
ATOM      3  N   UNL     1       8.448   0.278  24.912  0.00  0.00    -0.218 NA
ATOM      4  C   UNL     1       8.018   1.491  24.718  0.00  0.00    +0.205 A 
ATOM      5  N   UNL     1       7.874   2.162  23.491  0.00  0.00    -0.286 N 
ATOM      6  C   UNL     1       8.401   1.650  22.294  0.00  0.00    +0.159 A 
ATOM      7  N   UNL     1       8.466   2.201  21.124  0.00  0.00    -0.281 NA
ATOM      8  H   UNL     1       8.140   3.162  21.142  0.00  0.00    +0.188 HD
ATOM      9  C   UNL     1       8.898   0.298  22.485  0.00  0.00    +0.150 A 
ATOM     10  N   UNL     1       9.458  -0.561  21.579  0.00  0.00    -0.230 NA
ATOM     11  C   UNL     1       9.956  -1.523  22.338  0.00  0.00    +0.203 A 
ENDROOT
BRANCH   1  15
ATOM     12  C   UNL     1       7.381  -3.479  25.035  0.00  0.00    +0.178 C 
ATOM     13  C   UNL     1       8.367  -4.500  24.419  0.00  0.00    +0.178 C 
ATOM     14  O   UNL     1       9.559  -3.792  24.084  0.00  0.00    -0.346 OA
ATOM     15  C   UNL     1       9.525  -2.490  24.669  0.00  0.00    +0.253 C 
ATOM     16  C   UNL     1       8.319  -2.453  25.647  0.00  0.00    +0.195 C 
BRANCH  12  17
ATOM     17  O   UNL     1       6.448  -2.808  24.184  0.00  0.00    -0.386 OA
ATOM     18  H   UNL     1       6.903  -2.532  23.363  0.00  0.00    +0.210 HD
ENDBRANCH  12  17
BRANCH  16  19
ATOM     19  O   UNL     1       8.691  -2.900  26.971  0.00  0.00    -0.385 OA
ATOM     20  H   UNL     1       7.919  -3.353  27.343  0.00  0.00    +0.210 HD
ENDBRANCH  16  19
BRANCH  13  21
ATOM     21  C   UNL     1       7.798  -5.219  23.226  0.00  0.00    +0.202 C 
BRANCH  21  22
ATOM     22  O   UNL     1       6.449  -5.657  23.340  0.00  0.00    -0.325 OA
BRANCH  22  23
ATOM     23  P   UNL     1       5.518  -5.287  21.964  0.00  0.00    +0.218 P 
ATOM     24  O   UNL     1       6.595  -6.184  20.951  0.00  0.00    -0.437 OA
ATOM     25  O   UNL     1       6.146  -3.918  21.499  0.00  0.00    -0.517 OA
BRANCH  23  26
ATOM     26  O   UNL     1       4.440  -4.391  22.978  0.00  0.00    -0.270 OA
BRANCH  26  27
ATOM     27  P   UNL     1       3.611  -5.628  23.859  0.00  0.00    +0.221 P 
ATOM     28  O   UNL     1       2.861  -6.168  22.397  0.00  0.00    -0.437 OA
ATOM     29  O   UNL     1       2.293  -4.886  24.317  0.00  0.00    -0.517 OA
BRANCH  27  30
ATOM     30  O   UNL     1       4.362  -5.088  25.322  0.00  0.00    -0.314 OA
BRANCH  30  31
ATOM     31  P   UNL     1       4.615  -6.417  26.277  0.00  0.00    -0.007 P 
ATOM     32  O   UNL     1       4.252  -7.581  25.363  0.00  0.00    -0.637 OA
ATOM     33  O   UNL     1       3.665  -6.288  27.470  0.00  0.00    -0.577 OA
ATOM     34  O   UNL     1       6.081  -6.347  26.696  0.00  0.00    -0.577 OA
ENDBRANCH  30  31
ENDBRANCH  27  30
ENDBRANCH  26  27
ENDBRANCH  23  26
ENDBRANCH  22  23
ENDBRANCH  21  22
ENDBRANCH  13  21
ENDBRANCH   1  15
BRANCH   5  35
ATOM     35  C   UNL     1       7.065   3.382  23.437  0.00  0.00    +0.253 C 
ATOM     36  C   UNL     1       6.855   4.042  24.828  0.00  0.00    +0.195 C 
ATOM     37  C   UNL     1       7.484   5.429  24.716  0.00  0.00    +0.178 C 
ATOM     38  C   UNL     1       8.363   5.324  23.484  0.00  0.00    +0.178 C 
ATOM     39  O   UNL     1       7.645   4.413  22.619  0.00  0.00    -0.346 OA
BRANCH  36  40
ATOM     40  O   UNL     1       5.450   4.174  25.143  0.00  0.00    -0.385 OA
ATOM     41  H   UNL     1       5.020   3.554  24.511  0.00  0.00    +0.210 HD
ENDBRANCH  36  40
BRANCH  37  42
ATOM     42  O   UNL     1       6.419   6.396  24.510  0.00  0.00    -0.386 OA
ATOM     43  H   UNL     1       6.687   7.180  25.030  0.00  0.00    +0.210 HD
ENDBRANCH  37  42
BRANCH  38  44
ATOM     44  C   UNL     1       9.778   4.833  23.821  0.00  0.00    +0.198 C 
BRANCH  44  45
ATOM     45  O   UNL     1      10.710   5.901  23.698  0.00  0.00    -0.365 OA
BRANCH  45  46
ATOM     46  P   UNL     1      12.331   5.390  23.376  0.00  0.00    -0.015 P 
ATOM     47  O   UNL     1      13.783   4.933  23.089  0.00  0.00    -0.638 OA
ATOM     48  O   UNL     1      11.765   3.961  23.400  0.00  0.00    -0.577 OA
ATOM     49  O   UNL     1      12.747   6.120  24.680  0.00  0.00    -0.577 OA
ENDBRANCH  45  46
ENDBRANCH  44  45
ENDBRANCH  38  44
ENDBRANCH   5  35
TORSDOF 16
ENDMDL
MODEL 3
REMARK VINA RESULT:      -7.1      3.021      5.489
REMARK  Name = 
REMARK  16 active torsions:
REMARK  status: ('A' for Active; 'I' for Inactive)
REMARK    1  A    between atoms: O_1  and  C_2
REMARK    2  A    between atoms: C_4  and  O_6
REMARK    3  A    between atoms: C_7  and  N_26
REMARK    4  A    between atoms: C_10  and  C_12
REMARK    5  A    between atoms: C_12  and  O_13
REMARK    6  A    between atoms: O_13  and  P_14
REMARK    7  A    between atoms: P_14  and  O_17
REMARK    8  A    between atoms: O_17  and  P_18
REMARK    9  A    between atoms: P_18  and  O_21
REMARK   10  A    between atoms: O_21  and  P_22
REMARK   11  A    between atoms: N_33  and  C_34
REMARK   12  A    between atoms: C_37  and  C_39
REMARK   13  A    between atoms: C_39  and  O_40
REMARK   14  A    between atoms: O_40  and  P_41
REMARK   15  A    between atoms: C_45  and  O_47
REMARK   16  A    between atoms: C_48  and  O_50
REMARK                            x       y       z     vdW  Elec       q    Type
REMARK                         _______ _______ _______ _____ _____    ______ ____
ROOT
ATOM      1  N   UNL     1       9.499  -1.385  23.701  0.00  0.00    -0.286 N 
ATOM      2  C   UNL     1       8.928  -0.153  23.806  0.00  0.00    +0.168 A 
ATOM      3  N   UNL     1       8.619   0.464  24.968  0.00  0.00    -0.218 NA
ATOM      4  C   UNL     1       8.174   1.664  24.738  0.00  0.00    +0.205 A 
ATOM      5  N   UNL     1       7.911   2.256  23.490  0.00  0.00    -0.286 N 
ATOM      6  C   UNL     1       8.317   1.663  22.283  0.00  0.00    +0.159 A 
ATOM      7  N   UNL     1       8.269   2.136  21.079  0.00  0.00    -0.281 NA
ATOM      8  H   UNL     1       7.946   3.099  21.067  0.00  0.00    +0.188 HD
ATOM      9  C   UNL     1       8.830   0.322  22.513  0.00  0.00    +0.150 A 
ATOM     10  N   UNL     1       9.298  -0.597  21.615  0.00  0.00    -0.230 NA
ATOM     11  C   UNL     1       9.868  -1.511  22.383  0.00  0.00    +0.203 A 
ENDROOT
BRANCH   1  15
ATOM     12  C   UNL     1       7.584  -3.347  25.372  0.00  0.00    +0.178 C 
ATOM     13  C   UNL     1       8.561  -4.376  24.754  0.00  0.00    +0.178 C 
ATOM     14  O   UNL     1       9.705  -3.656  24.297  0.00  0.00    -0.346 OA
ATOM     15  C   UNL     1       9.667  -2.322  24.803  0.00  0.00    +0.253 C 
ATOM     16  C   UNL     1       8.526  -2.258  25.856  0.00  0.00    +0.195 C 
BRANCH  12  17
ATOM     17  O   UNL     1       6.576  -2.757  24.547  0.00  0.00    -0.386 OA
ATOM     18  H   UNL     1       6.260  -1.932  24.966  0.00  0.00    +0.210 HD
ENDBRANCH  12  17
BRANCH  16  19
ATOM     19  O   UNL     1       8.999  -2.611  27.177  0.00  0.00    -0.385 OA
ATOM     20  H   UNL     1       8.215  -2.798  27.716  0.00  0.00    +0.210 HD
ENDBRANCH  16  19
BRANCH  13  21
ATOM     21  C   UNL     1       7.938  -5.184  23.647  0.00  0.00    +0.202 C 
BRANCH  21  22
ATOM     22  O   UNL     1       7.111  -4.470  22.736  0.00  0.00    -0.325 OA
BRANCH  22  23
ATOM     23  P   UNL     1       5.785  -5.388  22.193  0.00  0.00    +0.218 P 
ATOM     24  O   UNL     1       6.814  -6.735  21.849  0.00  0.00    -0.437 OA
ATOM     25  O   UNL     1       5.713  -4.995  20.669  0.00  0.00    -0.517 OA
BRANCH  23  26
ATOM     26  O   UNL     1       4.756  -4.041  22.538  0.00  0.00    -0.270 OA
BRANCH  26  27
ATOM     27  P   UNL     1       3.715  -4.650  23.779  0.00  0.00    +0.221 P 
ATOM     28  O   UNL     1       3.767  -3.116  24.576  0.00  0.00    -0.437 OA
ATOM     29  O   UNL     1       4.746  -5.271  24.804  0.00  0.00    -0.517 OA
BRANCH  27  30
ATOM     30  O   UNL     1       3.663  -6.185  22.981  0.00  0.00    -0.314 OA
BRANCH  30  31
ATOM     31  P   UNL     1       2.285  -6.961  23.475  0.00  0.00    -0.007 P 
ATOM     32  O   UNL     1       1.654  -5.971  24.446  0.00  0.00    -0.637 OA
ATOM     33  O   UNL     1       2.731  -8.255  24.161  0.00  0.00    -0.577 OA
ATOM     34  O   UNL     1       1.487  -7.228  22.202  0.00  0.00    -0.577 OA
ENDBRANCH  30  31
ENDBRANCH  27  30
ENDBRANCH  26  27
ENDBRANCH  23  26
ENDBRANCH  22  23
ENDBRANCH  21  22
ENDBRANCH  13  21
ENDBRANCH   1  15
BRANCH   5  35
ATOM     35  C   UNL     1       7.101   3.475  23.436  0.00  0.00    +0.253 C 
ATOM     36  C   UNL     1       6.914   4.151  24.822  0.00  0.00    +0.195 C 
ATOM     37  C   UNL     1       7.541   5.536  24.684  0.00  0.00    +0.178 C 
ATOM     38  C   UNL     1       8.400   5.417  23.439  0.00  0.00    +0.178 C 
ATOM     39  O   UNL     1       7.667   4.496  22.597  0.00  0.00    -0.346 OA
BRANCH  36  40
ATOM     40  O   UNL     1       5.515   4.286  25.160  0.00  0.00    -0.385 OA
ATOM     41  H   UNL     1       5.514   4.223  26.142  0.00  0.00    +0.210 HD
ENDBRANCH  36  40
BRANCH  37  42
ATOM     42  O   UNL     1       6.474   6.501  24.485  0.00  0.00    -0.386 OA
ATOM     43  H   UNL     1       6.655   7.214  25.130  0.00  0.00    +0.210 HD
ENDBRANCH  37  42
BRANCH  38  44
ATOM     44  C   UNL     1       9.821   4.929  23.758  0.00  0.00    +0.198 C 
BRANCH  44  45
ATOM     45  O   UNL     1      10.759   5.977  23.540  0.00  0.00    -0.365 OA
BRANCH  45  46
ATOM     46  P   UNL     1      12.387   5.433  23.327  0.00  0.00    -0.015 P 
ATOM     47  O   UNL     1      13.845   4.946  23.136  0.00  0.00    -0.638 OA
ATOM     48  O   UNL     1      11.791   4.015  23.311  0.00  0.00    -0.577 OA
ATOM     49  O   UNL     1      12.730   6.154  24.656  0.00  0.00    -0.577 OA
ENDBRANCH  45  46
ENDBRANCH  44  45
ENDBRANCH  38  44
ENDBRANCH   5  35
TORSDOF 16
ENDMDL
MODEL 4
REMARK VINA RESULT:      -6.9      1.299      1.788
REMARK  Name = 
REMARK  16 active torsions:
REMARK  status: ('A' for Active; 'I' for Inactive)
REMARK    1  A    between atoms: O_1  and  C_2
REMARK    2  A    between atoms: C_4  and  O_6
REMARK    3  A    between atoms: C_7  and  N_26
REMARK    4  A    between atoms: C_10  and  C_12
REMARK    5  A    between atoms: C_12  and  O_13
REMARK    6  A    between atoms: O_13  and  P_14
REMARK    7  A    between atoms: P_14  and  O_17
REMARK    8  A    between atoms: O_17  and  P_18
REMARK    9  A    between atoms: P_18  and  O_21
REMARK   10  A    between atoms: O_21  and  P_22
REMARK   11  A    between atoms: N_33  and  C_34
REMARK   12  A    between atoms: C_37  and  C_39
REMARK   13  A    between atoms: C_39  and  O_40
REMARK   14  A    between atoms: O_40  and  P_41
REMARK   15  A    between atoms: C_45  and  O_47
REMARK   16  A    between atoms: C_48  and  O_50
REMARK                            x       y       z     vdW  Elec       q    Type
REMARK                         _______ _______ _______ _____ _____    ______ ____
ROOT
ATOM      1  N   UNL     1       6.024  -2.832  23.731  0.00  0.00    -0.286 N 
ATOM      2  C   UNL     1       6.742  -1.680  23.627  0.00  0.00    +0.168 A 
ATOM      3  N   UNL     1       6.755  -0.867  22.546  0.00  0.00    -0.218 NA
ATOM      4  C   UNL     1       7.463   0.196  22.790  0.00  0.00    +0.205 A 
ATOM      5  N   UNL     1       8.227   0.473  23.937  0.00  0.00    -0.286 N 
ATOM      6  C   UNL     1       8.142  -0.314  25.097  0.00  0.00    +0.159 A 
ATOM      7  N   UNL     1       8.672  -0.118  26.262  0.00  0.00    -0.281 NA
ATOM      8  H   UNL     1       9.150   0.776  26.312  0.00  0.00    +0.188 HD
ATOM      9  C   UNL     1       7.347  -1.507  24.856  0.00  0.00    +0.150 A 
ATOM     10  N   UNL     1       7.043  -2.537  25.703  0.00  0.00    -0.230 NA
ATOM     11  C   UNL     1       6.095  -3.194  25.055  0.00  0.00    +0.203 A 
ENDROOT
BRANCH   1  15
ATOM     12  C   UNL     1       6.351  -5.585  22.112  0.00  0.00    +0.178 C 
ATOM     13  C   UNL     1       4.938  -5.784  22.711  0.00  0.00    +0.178 C 
ATOM     14  O   UNL     1       4.472  -4.505  23.138  0.00  0.00    -0.346 OA
ATOM     15  C   UNL     1       5.332  -3.485  22.629  0.00  0.00    +0.253 C 
ATOM     16  C   UNL     1       6.287  -4.155  21.602  0.00  0.00    +0.195 C 
BRANCH  12  17
ATOM     17  O   UNL     1       7.494  -5.727  22.958  0.00  0.00    -0.386 OA
ATOM     18  H   UNL     1       7.261  -6.293  23.721  0.00  0.00    +0.210 HD
ENDBRANCH  12  17
BRANCH  16  19
ATOM     19  O   UNL     1       5.719  -4.165  20.272  0.00  0.00    -0.385 OA
ATOM     20  H   UNL     1       6.196  -3.497  19.757  0.00  0.00    +0.210 HD
ENDBRANCH  16  19
BRANCH  13  21
ATOM     21  C   UNL     1       4.912  -6.785  23.834  0.00  0.00    +0.202 C 
BRANCH  21  22
ATOM     22  O   UNL     1       4.674  -6.262  25.136  0.00  0.00    -0.325 OA
BRANCH  22  23
ATOM     23  P   UNL     1       3.235  -6.851  25.828  0.00  0.00    +0.218 P 
ATOM     24  O   UNL     1       3.255  -8.230  24.785  0.00  0.00    -0.437 OA
ATOM     25  O   UNL     1       2.133  -6.145  24.949  0.00  0.00    -0.517 OA
BRANCH  23  26
ATOM     26  O   UNL     1       3.214  -5.472  26.873  0.00  0.00    -0.270 OA
BRANCH  26  27
ATOM     27  P   UNL     1       3.338  -6.172  28.450  0.00  0.00    +0.221 P 
ATOM     28  O   UNL     1       2.018  -7.229  28.085  0.00  0.00    -0.437 OA
ATOM     29  O   UNL     1       2.407  -5.228  29.308  0.00  0.00    -0.517 OA
BRANCH  27  30
ATOM     30  O   UNL     1       4.659  -5.116  28.814  0.00  0.00    -0.314 OA
BRANCH  30  31
ATOM     31  P   UNL     1       6.012  -6.053  29.007  0.00  0.00    -0.007 P 
ATOM     32  O   UNL     1       7.011  -5.429  28.040  0.00  0.00    -0.637 OA
ATOM     33  O   UNL     1       5.620  -7.479  28.609  0.00  0.00    -0.577 OA
ATOM     34  O   UNL     1       6.377  -5.946  30.485  0.00  0.00    -0.577 OA
ENDBRANCH  30  31
ENDBRANCH  27  30
ENDBRANCH  26  27
ENDBRANCH  23  26
ENDBRANCH  22  23
ENDBRANCH  21  22
ENDBRANCH  13  21
ENDBRANCH   1  15
BRANCH   5  35
ATOM     35  C   UNL     1       9.217   1.551  23.890  0.00  0.00    +0.253 C 
ATOM     36  C   UNL     1       9.019   2.517  22.689  0.00  0.00    +0.195 C 
ATOM     37  C   UNL     1       8.756   3.886  23.311  0.00  0.00    +0.178 C 
ATOM     38  C   UNL     1       8.395   3.563  24.748  0.00  0.00    +0.178 C 
ATOM     39  O   UNL     1       9.193   2.395  25.054  0.00  0.00    -0.346 OA
BRANCH  36  40
ATOM     40  O   UNL     1      10.203   2.581  21.862  0.00  0.00    -0.385 OA
ATOM     41  H   UNL     1      10.531   3.497  22.011  0.00  0.00    +0.210 HD
ENDBRANCH  36  40
BRANCH  37  42
ATOM     42  O   UNL     1       9.986   4.658  23.248  0.00  0.00    -0.386 OA
ATOM     43  H   UNL     1       9.770   5.430  22.688  0.00  0.00    +0.210 HD
ENDBRANCH  37  42
BRANCH  38  44
ATOM     44  C   UNL     1       6.890   3.319  24.928  0.00  0.00    +0.198 C 
BRANCH  44  45
ATOM     45  O   UNL     1       6.653   2.561  26.108  0.00  0.00    -0.365 OA
BRANCH  45  46
ATOM     46  P   UNL     1       5.074   1.860  26.193  0.00  0.00    -0.015 P 
ATOM     47  O   UNL     1       3.661   1.231  26.270  0.00  0.00    -0.638 OA
ATOM     48  O   UNL     1       5.717   0.801  27.106  0.00  0.00    -0.577 OA
ATOM     49  O   UNL     1       5.121   1.734  24.649  0.00  0.00    -0.577 OA
ENDBRANCH  45  46
ENDBRANCH  44  45
ENDBRANCH  38  44
ENDBRANCH   5  35
TORSDOF 16
ENDMDL
MODEL 5
REMARK VINA RESULT:      -6.9      2.450      8.144
REMARK  Name = 
REMARK  16 active torsions:
REMARK  status: ('A' for Active; 'I' for Inactive)
REMARK    1  A    between atoms: O_1  and  C_2
REMARK    2  A    between atoms: C_4  and  O_6
REMARK    3  A    between atoms: C_7  and  N_26
REMARK    4  A    between atoms: C_10  and  C_12
REMARK    5  A    between atoms: C_12  and  O_13
REMARK    6  A    between atoms: O_13  and  P_14
REMARK    7  A    between atoms: P_14  and  O_17
REMARK    8  A    between atoms: O_17  and  P_18
REMARK    9  A    between atoms: P_18  and  O_21
REMARK   10  A    between atoms: O_21  and  P_22
REMARK   11  A    between atoms: N_33  and  C_34
REMARK   12  A    between atoms: C_37  and  C_39
REMARK   13  A    between atoms: C_39  and  O_40
REMARK   14  A    between atoms: O_40  and  P_41
REMARK   15  A    between atoms: C_45  and  O_47
REMARK   16  A    between atoms: C_48  and  O_50
REMARK                            x       y       z     vdW  Elec       q    Type
REMARK                         _______ _______ _______ _____ _____    ______ ____
ROOT
ATOM      1  N   UNL     1       7.289  -3.868  22.630  0.00  0.00    -0.286 N 
ATOM      2  C   UNL     1       6.658  -4.551  23.626  0.00  0.00    +0.168 A 
ATOM      3  N   UNL     1       6.907  -4.405  24.946  0.00  0.00    -0.218 NA
ATOM      4  C   UNL     1       6.080  -5.126  25.644  0.00  0.00    +0.205 A 
ATOM      5  N   UNL     1       5.122  -6.037  25.164  0.00  0.00    -0.286 N 
ATOM      6  C   UNL     1       4.790  -6.122  23.802  0.00  0.00    +0.159 A 
ATOM      7  N   UNL     1       3.853  -6.804  23.227  0.00  0.00    -0.281 NA
ATOM      8  H   UNL     1       3.260  -7.274  23.905  0.00  0.00    +0.188 HD
ATOM      9  C   UNL     1       5.695  -5.316  22.999  0.00  0.00    +0.150 A 
ATOM     10  N   UNL     1       5.738  -5.145  21.642  0.00  0.00    -0.230 NA
ATOM     11  C   UNL     1       6.567  -4.125  21.490  0.00  0.00    +0.203 A 
ENDROOT
BRANCH   1  15
ATOM     12  C   UNL     1       7.886  -0.725  22.897  0.00  0.00    +0.178 C 
ATOM     13  C   UNL     1       8.404  -1.221  24.269  0.00  0.00    +0.178 C 
ATOM     14  O   UNL     1       8.574  -2.635  24.174  0.00  0.00    -0.346 OA
ATOM     15  C   UNL     1       8.473  -3.040  22.809  0.00  0.00    +0.253 C 
ATOM     16  C   UNL     1       8.471  -1.751  21.942  0.00  0.00    +0.195 C 
BRANCH  12  17
ATOM     17  O   UNL     1       6.477  -0.631  22.675  0.00  0.00    -0.386 OA
ATOM     18  H   UNL     1       6.211   0.310  22.698  0.00  0.00    +0.210 HD
ENDBRANCH  12  17
BRANCH  16  19
ATOM     19  O   UNL     1       9.813  -1.342  21.590  0.00  0.00    -0.385 OA
ATOM     20  H   UNL     1       9.807  -1.139  20.642  0.00  0.00    +0.210 HD
ENDBRANCH  16  19
BRANCH  13  21
ATOM     21  C   UNL     1       7.493  -0.850  25.408  0.00  0.00    +0.202 C 
BRANCH  21  22
ATOM     22  O   UNL     1       6.725   0.336  25.239  0.00  0.00    -0.325 OA
BRANCH  22  23
ATOM     23  P   UNL     1       7.104   1.535  26.386  0.00  0.00    +0.218 P 
ATOM     24  O   UNL     1       7.490   0.332  27.568  0.00  0.00    -0.437 OA
ATOM     25  O   UNL     1       5.703   1.807  27.054  0.00  0.00    -0.517 OA
BRANCH  23  26
ATOM     26  O   UNL     1       6.720   2.738  25.204  0.00  0.00    -0.270 OA
BRANCH  26  27
ATOM     27  P   UNL     1       8.225   3.558  24.975  0.00  0.00    +0.221 P 
ATOM     28  O   UNL     1       7.986   4.413  26.460  0.00  0.00    -0.437 OA
ATOM     29  O   UNL     1       7.793   4.819  24.125  0.00  0.00    -0.517 OA
BRANCH  27  30
ATOM     30  O   UNL     1       8.465   2.703  23.491  0.00  0.00    -0.314 OA
BRANCH  30  31
ATOM     31  P   UNL     1      10.081   2.361  23.363  0.00  0.00    -0.007 P 
ATOM     32  O   UNL     1      10.349   1.479  24.577  0.00  0.00    -0.637 OA
ATOM     33  O   UNL     1      10.821   3.699  23.434  0.00  0.00    -0.577 OA
ATOM     34  O   UNL     1      10.249   1.679  22.008  0.00  0.00    -0.577 OA
ENDBRANCH  30  31
ENDBRANCH  27  30
ENDBRANCH  26  27
ENDBRANCH  23  26
ENDBRANCH  22  23
ENDBRANCH  21  22
ENDBRANCH  13  21
ENDBRANCH   1  15
BRANCH   5  35
ATOM     35  C   UNL     1       4.524  -6.997  26.094  0.00  0.00    +0.253 C 
ATOM     36  C   UNL     1       4.681  -6.590  27.585  0.00  0.00    +0.195 C 
ATOM     37  C   UNL     1       3.257  -6.430  28.112  0.00  0.00    +0.178 C 
ATOM     38  C   UNL     1       2.419  -6.323  26.852  0.00  0.00    +0.178 C 
ATOM     39  O   UNL     1       3.109  -7.169  25.902  0.00  0.00    -0.346 OA
BRANCH  36  40
ATOM     40  O   UNL     1       5.364  -7.614  28.344  0.00  0.00    -0.385 OA
ATOM     41  H   UNL     1       5.583  -8.289  27.662  0.00  0.00    +0.210 HD
ENDBRANCH  36  40
BRANCH  37  42
ATOM     42  O   UNL     1       2.912  -7.626  28.862  0.00  0.00    -0.386 OA
ATOM     43  H   UNL     1       1.934  -7.635  28.885  0.00  0.00    +0.210 HD
ENDBRANCH  37  42
BRANCH  38  44
ATOM     44  C   UNL     1       2.282  -4.873  26.367  0.00  0.00    +0.198 C 
BRANCH  44  45
ATOM     45  O   UNL     1       2.705  -3.973  27.385  0.00  0.00    -0.365 OA
BRANCH  45  46
ATOM     46  P   UNL     1       3.319  -2.470  26.789  0.00  0.00    -0.015 P 
ATOM     47  O   UNL     1       3.868  -1.124  26.255  0.00  0.00    -0.638 OA
ATOM     48  O   UNL     1       3.135  -3.080  25.389  0.00  0.00    -0.577 OA
ATOM     49  O   UNL     1       4.594  -2.736  27.628  0.00  0.00    -0.577 OA
ENDBRANCH  45  46
ENDBRANCH  44  45
ENDBRANCH  38  44
ENDBRANCH   5  35
TORSDOF 16
ENDMDL
MODEL 6
REMARK VINA RESULT:      -6.9      2.651      7.368
REMARK  Name = 
REMARK  16 active torsions:
REMARK  status: ('A' for Active; 'I' for Inactive)
REMARK    1  A    between atoms: O_1  and  C_2
REMARK    2  A    between atoms: C_4  and  O_6
REMARK    3  A    between atoms: C_7  and  N_26
REMARK    4  A    between atoms: C_10  and  C_12
REMARK    5  A    between atoms: C_12  and  O_13
REMARK    6  A    between atoms: O_13  and  P_14
REMARK    7  A    between atoms: P_14  and  O_17
REMARK    8  A    between atoms: O_17  and  P_18
REMARK    9  A    between atoms: P_18  and  O_21
REMARK   10  A    between atoms: O_21  and  P_22
REMARK   11  A    between atoms: N_33  and  C_34
REMARK   12  A    between atoms: C_37  and  C_39
REMARK   13  A    between atoms: C_39  and  O_40
REMARK   14  A    between atoms: O_40  and  P_41
REMARK   15  A    between atoms: C_45  and  O_47
REMARK   16  A    between atoms: C_48  and  O_50
REMARK                            x       y       z     vdW  Elec       q    Type
REMARK                         _______ _______ _______ _____ _____    ______ ____
ROOT
ATOM      1  N   UNL     1       9.841   1.068  23.135  0.00  0.00    -0.286 N 
ATOM      2  C   UNL     1       9.572  -0.116  23.752  0.00  0.00    +0.168 A 
ATOM      3  N   UNL     1       9.486  -0.294  25.089  0.00  0.00    -0.218 NA
ATOM      4  C   UNL     1       9.125  -1.514  25.360  0.00  0.00    +0.205 A 
ATOM      5  N   UNL     1       8.949  -2.576  24.456  0.00  0.00    -0.286 N 
ATOM      6  C   UNL     1       8.940  -2.379  23.065  0.00  0.00    +0.159 A 
ATOM      7  N   UNL     1       8.664  -3.217  22.119  0.00  0.00    -0.281 NA
ATOM      8  H   UNL     1       8.351  -4.110  22.488  0.00  0.00    +0.188 HD
ATOM      9  C   UNL     1       9.331  -1.018  22.734  0.00  0.00    +0.150 A 
ATOM     10  N   UNL     1       9.475  -0.426  21.509  0.00  0.00    -0.230 NA
ATOM     11  C   UNL     1       9.582   0.859  21.802  0.00  0.00    +0.203 A 
ENDROOT
BRANCH   1  15
ATOM     12  C   UNL     1       8.942   4.149  23.201  0.00  0.00    +0.178 C 
ATOM     13  C   UNL     1       8.727   3.768  24.685  0.00  0.00    +0.178 C 
ATOM     14  O   UNL     1       9.438   2.553  24.920  0.00  0.00    -0.346 OA
ATOM     15  C   UNL     1      10.294   2.275  23.812  0.00  0.00    +0.253 C 
ATOM     16  C   UNL     1      10.300   3.536  22.904  0.00  0.00    +0.195 C 
BRANCH  12  17
ATOM     17  O   UNL     1       8.003   3.700  22.221  0.00  0.00    -0.386 OA
ATOM     18  H   UNL     1       7.098   3.919  22.520  0.00  0.00    +0.210 HD
ENDBRANCH  12  17
BRANCH  16  19
ATOM     19  O   UNL     1      11.327   4.474  23.300  0.00  0.00    -0.385 OA
ATOM     20  H   UNL     1      11.559   4.988  22.511  0.00  0.00    +0.210 HD
ENDBRANCH  16  19
BRANCH  13  21
ATOM     21  C   UNL     1       7.273   3.637  25.052  0.00  0.00    +0.202 C 
BRANCH  21  22
ATOM     22  O   UNL     1       6.824   2.328  25.385  0.00  0.00    -0.325 OA
BRANCH  22  23
ATOM     23  P   UNL     1       5.435   1.868  24.517  0.00  0.00    +0.218 P 
ATOM     24  O   UNL     1       6.388   1.491  23.123  0.00  0.00    -0.437 OA
ATOM     25  O   UNL     1       4.972   3.236  23.886  0.00  0.00    -0.517 OA
BRANCH  23  26
ATOM     26  O   UNL     1       4.482   2.244  25.910  0.00  0.00    -0.270 OA
BRANCH  26  27
ATOM     27  P   UNL     1       4.876   0.969  27.011  0.00  0.00    +0.221 P 
ATOM     28  O   UNL     1       4.568  -0.197  25.771  0.00  0.00    -0.437 OA
ATOM     29  O   UNL     1       3.483   0.678  27.697  0.00  0.00    -0.517 OA
BRANCH  27  30
ATOM     30  O   UNL     1       5.186   2.135  28.251  0.00  0.00    -0.314 OA
BRANCH  30  31
ATOM     31  P   UNL     1       6.580   1.687  29.026  0.00  0.00    -0.007 P 
ATOM     32  O   UNL     1       7.134   0.580  28.137  0.00  0.00    -0.637 OA
ATOM     33  O   UNL     1       6.169   1.178  30.410  0.00  0.00    -0.577 OA
ATOM     34  O   UNL     1       7.429   2.952  29.105  0.00  0.00    -0.577 OA
ENDBRANCH  30  31
ENDBRANCH  27  30
ENDBRANCH  26  27
ENDBRANCH  23  26
ENDBRANCH  22  23
ENDBRANCH  21  22
ENDBRANCH  13  21
ENDBRANCH   1  15
BRANCH   5  35
ATOM     35  C   UNL     1       8.875  -3.945  24.971  0.00  0.00    +0.253 C 
ATOM     36  C   UNL     1       8.705  -4.013  26.514  0.00  0.00    +0.195 C 
ATOM     37  C   UNL     1       7.372  -4.723  26.741  0.00  0.00    +0.178 C 
ATOM     38  C   UNL     1       6.681  -4.627  25.394  0.00  0.00    +0.178 C 
ATOM     39  O   UNL     1       7.767  -4.692  24.440  0.00  0.00    -0.346 OA
BRANCH  36  40
ATOM     40  O   UNL     1       9.768  -4.774  27.130  0.00  0.00    -0.385 OA
ATOM     41  H   UNL     1      10.223  -4.107  27.693  0.00  0.00    +0.210 HD
ENDBRANCH  36  40
BRANCH  37  42
ATOM     42  O   UNL     1       7.647  -6.108  27.084  0.00  0.00    -0.386 OA
ATOM     43  H   UNL     1       8.581  -6.115  27.374  0.00  0.00    +0.210 HD
ENDBRANCH  37  42
BRANCH  38  44
ATOM     44  C   UNL     1       5.847  -3.346  25.259  0.00  0.00    +0.198 C 
BRANCH  44  45
ATOM     45  O   UNL     1       4.715  -3.583  24.430  0.00  0.00    -0.365 OA
BRANCH  45  46
ATOM     46  P   UNL     1       5.092  -4.325  22.914  0.00  0.00    -0.015 P 
ATOM     47  O   UNL     1       5.430  -4.988  21.556  0.00  0.00    -0.638 OA
ATOM     48  O   UNL     1       5.500  -2.914  22.455  0.00  0.00    -0.577 OA
ATOM     49  O   UNL     1       3.618  -4.801  22.857  0.00  0.00    -0.577 OA
ENDBRANCH  45  46
ENDBRANCH  44  45
ENDBRANCH  38  44
ENDBRANCH   5  35
TORSDOF 16
ENDMDL
MODEL 7
REMARK VINA RESULT:      -6.9      1.980      2.491
REMARK  Name = 
REMARK  16 active torsions:
REMARK  status: ('A' for Active; 'I' for Inactive)
REMARK    1  A    between atoms: O_1  and  C_2
REMARK    2  A    between atoms: C_4  and  O_6
REMARK    3  A    between atoms: C_7  and  N_26
REMARK    4  A    between atoms: C_10  and  C_12
REMARK    5  A    between atoms: C_12  and  O_13
REMARK    6  A    between atoms: O_13  and  P_14
REMARK    7  A    between atoms: P_14  and  O_17
REMARK    8  A    between atoms: O_17  and  P_18
REMARK    9  A    between atoms: P_18  and  O_21
REMARK   10  A    between atoms: O_21  and  P_22
REMARK   11  A    between atoms: N_33  and  C_34
REMARK   12  A    between atoms: C_37  and  C_39
REMARK   13  A    between atoms: C_39  and  O_40
REMARK   14  A    between atoms: O_40  and  P_41
REMARK   15  A    between atoms: C_45  and  O_47
REMARK   16  A    between atoms: C_48  and  O_50
REMARK                            x       y       z     vdW  Elec       q    Type
REMARK                         _______ _______ _______ _____ _____    ______ ____
ROOT
ATOM      1  N   UNL     1       5.855  -2.800  23.408  0.00  0.00    -0.286 N 
ATOM      2  C   UNL     1       6.761  -1.792  23.543  0.00  0.00    +0.168 A 
ATOM      3  N   UNL     1       7.733  -1.496  22.652  0.00  0.00    -0.218 NA
ATOM      4  C   UNL     1       8.374  -0.426  23.020  0.00  0.00    +0.205 A 
ATOM      5  N   UNL     1       8.215   0.299  24.215  0.00  0.00    -0.286 N 
ATOM      6  C   UNL     1       7.148   0.060  25.096  0.00  0.00    +0.159 A 
ATOM      7  N   UNL     1       6.793   0.717  26.153  0.00  0.00    -0.281 NA
ATOM      8  H   UNL     1       7.355   1.554  26.281  0.00  0.00    +0.188 HD
ATOM      9  C   UNL     1       6.408  -1.128  24.701  0.00  0.00    +0.150 A 
ATOM     10  N   UNL     1       5.328  -1.719  25.297  0.00  0.00    -0.230 NA
ATOM     11  C   UNL     1       4.914  -2.585  24.386  0.00  0.00    +0.203 A 
ENDROOT
BRANCH   1  15
ATOM     12  C   UNL     1       6.114  -5.999  23.427  0.00  0.00    +0.178 C 
ATOM     13  C   UNL     1       4.744  -5.838  22.725  0.00  0.00    +0.178 C 
ATOM     14  O   UNL     1       4.648  -4.484  22.286  0.00  0.00    -0.346 OA
ATOM     15  C   UNL     1       5.921  -3.849  22.401  0.00  0.00    +0.253 C 
ATOM     16  C   UNL     1       6.963  -4.957  22.720  0.00  0.00    +0.195 C 
BRANCH  12  17
ATOM     17  O   UNL     1       6.204  -5.795  24.839  0.00  0.00    -0.386 OA
ATOM     18  H   UNL     1       6.174  -4.836  25.027  0.00  0.00    +0.210 HD
ENDBRANCH  12  17
BRANCH  16  19
ATOM     19  O   UNL     1       7.506  -5.543  21.515  0.00  0.00    -0.385 OA
ATOM     20  H   UNL     1       8.445  -5.305  21.483  0.00  0.00    +0.210 HD
ENDBRANCH  16  19
BRANCH  13  21
ATOM     21  C   UNL     1       3.585  -6.217  23.606  0.00  0.00    +0.202 C 
BRANCH  21  22
ATOM     22  O   UNL     1       3.710  -7.443  24.318  0.00  0.00    -0.325 OA
BRANCH  22  23
ATOM     23  P   UNL     1       2.512  -7.637  25.511  0.00  0.00    +0.218 P 
ATOM     24  O   UNL     1       2.114  -9.207  24.906  0.00  0.00    -0.437 OA
ATOM     25  O   UNL     1       1.249  -6.999  24.816  0.00  0.00    -0.517 OA
BRANCH  23  26
ATOM     26  O   UNL     1       2.910  -6.066  26.116  0.00  0.00    -0.270 OA
BRANCH  26  27
ATOM     27  P   UNL     1       3.415  -6.388  27.740  0.00  0.00    +0.221 P 
ATOM     28  O   UNL     1       1.975  -7.308  28.006  0.00  0.00    -0.437 OA
ATOM     29  O   UNL     1       2.825  -5.149  28.525  0.00  0.00    -0.517 OA
BRANCH  27  30
ATOM     30  O   UNL     1       4.856  -5.468  27.473  0.00  0.00    -0.314 OA
BRANCH  30  31
ATOM     31  P   UNL     1       6.029  -6.071  28.475  0.00  0.00    -0.007 P 
ATOM     32  O   UNL     1       5.635  -7.533  28.637  0.00  0.00    -0.637 OA
ATOM     33  O   UNL     1       5.932  -5.287  29.787  0.00  0.00    -0.577 OA
ATOM     34  O   UNL     1       7.351  -5.824  27.753  0.00  0.00    -0.577 OA
ENDBRANCH  30  31
ENDBRANCH  27  30
ENDBRANCH  26  27
ENDBRANCH  23  26
ENDBRANCH  22  23
ENDBRANCH  21  22
ENDBRANCH  13  21
ENDBRANCH   1  15
BRANCH   5  35
ATOM     35  C   UNL     1       9.245   1.264  24.605  0.00  0.00    +0.253 C 
ATOM     36  C   UNL     1      10.409   1.369  23.581  0.00  0.00    +0.195 C 
ATOM     37  C   UNL     1      10.391   2.817  23.096  0.00  0.00    +0.178 C 
ATOM     38  C   UNL     1       9.018   3.314  23.508  0.00  0.00    +0.178 C 
ATOM     39  O   UNL     1       8.746   2.605  24.740  0.00  0.00    -0.346 OA
BRANCH  36  40
ATOM     40  O   UNL     1      11.685   1.083  24.199  0.00  0.00    -0.385 OA
ATOM     41  H   UNL     1      11.826   0.131  23.991  0.00  0.00    +0.210 HD
ENDBRANCH  36  40
BRANCH  37  42
ATOM     42  O   UNL     1      11.436   3.544  23.795  0.00  0.00    -0.386 OA
ATOM     43  H   UNL     1      11.605   3.024  24.607  0.00  0.00    +0.210 HD
ENDBRANCH  37  42
BRANCH  38  44
ATOM     44  C   UNL     1       7.959   3.057  22.428  0.00  0.00    +0.198 C 
BRANCH  44  45
ATOM     45  O   UNL     1       6.841   3.916  22.623  0.00  0.00    -0.365 OA
BRANCH  45  46
ATOM     46  P   UNL     1       5.464   3.134  23.320  0.00  0.00    -0.015 P 
ATOM     47  O   UNL     1       4.231   2.434  23.944  0.00  0.00    -0.638 OA
ATOM     48  O   UNL     1       5.867   1.917  22.471  0.00  0.00    -0.577 OA
ATOM     49  O   UNL     1       4.601   4.282  22.734  0.00  0.00    -0.577 OA
ENDBRANCH  45  46
ENDBRANCH  44  45
ENDBRANCH  38  44
ENDBRANCH   5  35
TORSDOF 16
ENDMDL
MODEL 8
REMARK VINA RESULT:      -6.9      2.125      3.829
REMARK  Name = 
REMARK  16 active torsions:
REMARK  status: ('A' for Active; 'I' for Inactive)
REMARK    1  A    between atoms: O_1  and  C_2
REMARK    2  A    between atoms: C_4  and  O_6
REMARK    3  A    between atoms: C_7  and  N_26
REMARK    4  A    between atoms: C_10  and  C_12
REMARK    5  A    between atoms: C_12  and  O_13
REMARK    6  A    between atoms: O_13  and  P_14
REMARK    7  A    between atoms: P_14  and  O_17
REMARK    8  A    between atoms: O_17  and  P_18
REMARK    9  A    between atoms: P_18  and  O_21
REMARK   10  A    between atoms: O_21  and  P_22
REMARK   11  A    between atoms: N_33  and  C_34
REMARK   12  A    between atoms: C_37  and  C_39
REMARK   13  A    between atoms: C_39  and  O_40
REMARK   14  A    between atoms: O_40  and  P_41
REMARK   15  A    between atoms: C_45  and  O_47
REMARK   16  A    between atoms: C_48  and  O_50
REMARK                            x       y       z     vdW  Elec       q    Type
REMARK                         _______ _______ _______ _____ _____    ______ ____
ROOT
ATOM      1  N   UNL     1       9.616  -1.704  23.716  0.00  0.00    -0.286 N 
ATOM      2  C   UNL     1       9.315  -0.393  23.929  0.00  0.00    +0.168 A 
ATOM      3  N   UNL     1       9.121   0.173  25.141  0.00  0.00    -0.218 NA
ATOM      4  C   UNL     1       8.941   1.455  25.018  0.00  0.00    +0.205 A 
ATOM      5  N   UNL     1       8.833   2.194  23.826  0.00  0.00    -0.286 N 
ATOM      6  C   UNL     1       9.128   1.635  22.572  0.00  0.00    +0.159 A 
ATOM      7  N   UNL     1       9.202   2.209  21.414  0.00  0.00    -0.281 NA
ATOM      8  H   UNL     1       9.089   3.216  21.487  0.00  0.00    +0.188 HD
ATOM      9  C   UNL     1       9.344   0.202  22.683  0.00  0.00    +0.150 A 
ATOM     10  N   UNL     1       9.625  -0.715  21.708  0.00  0.00    -0.230 NA
ATOM     11  C   UNL     1       9.975  -1.791  22.393  0.00  0.00    +0.203 A 
ENDROOT
BRANCH   1  15
ATOM     12  C   UNL     1       7.318  -3.490  25.069  0.00  0.00    +0.178 C 
ATOM     13  C   UNL     1       8.179  -4.598  24.417  0.00  0.00    +0.178 C 
ATOM     14  O   UNL     1       9.446  -4.022  24.104  0.00  0.00    -0.346 OA
ATOM     15  C   UNL     1       9.563  -2.746  24.732  0.00  0.00    +0.253 C 
ATOM     16  C   UNL     1       8.368  -2.602  25.713  0.00  0.00    +0.195 C 
BRANCH  12  17
ATOM     17  O   UNL     1       6.471  -2.687  24.243  0.00  0.00    -0.386 OA
ATOM     18  H   UNL     1       6.035  -3.258  23.579  0.00  0.00    +0.210 HD
ENDBRANCH  12  17
BRANCH  16  19
ATOM     19  O   UNL     1       8.683  -3.133  27.021  0.00  0.00    -0.385 OA
ATOM     20  H   UNL     1       8.932  -4.062  26.896  0.00  0.00    +0.210 HD
ENDBRANCH  16  19
BRANCH  13  21
ATOM     21  C   UNL     1       7.532  -5.206  23.202  0.00  0.00    +0.202 C 
BRANCH  21  22
ATOM     22  O   UNL     1       6.223  -5.734  23.384  0.00  0.00    -0.325 OA
BRANCH  22  23
ATOM     23  P   UNL     1       5.128  -5.202  22.195  0.00  0.00    +0.218 P 
ATOM     24  O   UNL     1       5.935  -6.135  20.983  0.00  0.00    -0.437 OA
ATOM     25  O   UNL     1       5.809  -3.873  21.690  0.00  0.00    -0.517 OA
BRANCH  23  26
ATOM     26  O   UNL     1       4.320  -4.268  23.407  0.00  0.00    -0.270 OA
BRANCH  26  27
ATOM     27  P   UNL     1       3.289  -5.428  24.173  0.00  0.00    +0.221 P 
ATOM     28  O   UNL     1       2.493  -5.716  22.664  0.00  0.00    -0.437 OA
ATOM     29  O   UNL     1       2.096  -4.527  24.685  0.00  0.00    -0.517 OA
BRANCH  27  30
ATOM     30  O   UNL     1       4.087  -5.141  25.681  0.00  0.00    -0.314 OA
BRANCH  30  31
ATOM     31  P   UNL     1       4.436  -6.614  26.353  0.00  0.00    -0.007 P 
ATOM     32  O   UNL     1       5.922  -6.512  26.669  0.00  0.00    -0.637 OA
ATOM     33  O   UNL     1       4.133  -7.668  25.283  0.00  0.00    -0.577 OA
ATOM     34  O   UNL     1       3.515  -6.741  27.563  0.00  0.00    -0.577 OA
ENDBRANCH  30  31
ENDBRANCH  27  30
ENDBRANCH  26  27
ENDBRANCH  23  26
ENDBRANCH  22  23
ENDBRANCH  21  22
ENDBRANCH  13  21
ENDBRANCH   1  15
BRANCH   5  35
ATOM     35  C   UNL     1       8.298   3.556  23.880  0.00  0.00    +0.253 C 
ATOM     36  C   UNL     1       7.356   3.895  22.691  0.00  0.00    +0.195 C 
ATOM     37  C   UNL     1       6.003   4.211  23.326  0.00  0.00    +0.178 C 
ATOM     38  C   UNL     1       6.121   3.635  24.724  0.00  0.00    +0.178 C 
ATOM     39  O   UNL     1       7.517   3.815  25.059  0.00  0.00    -0.346 OA
BRANCH  36  40
ATOM     40  O   UNL     1       7.826   5.048  21.956  0.00  0.00    -0.385 OA
ATOM     41  H   UNL     1       8.652   4.721  21.532  0.00  0.00    +0.210 HD
ENDBRANCH  36  40
BRANCH  37  42
ATOM     42  O   UNL     1       5.850   5.655  23.373  0.00  0.00    -0.386 OA
ATOM     43  H   UNL     1       6.696   5.987  23.736  0.00  0.00    +0.210 HD
ENDBRANCH  37  42
BRANCH  38  44
ATOM     44  C   UNL     1       5.679   2.166  24.786  0.00  0.00    +0.198 C 
BRANCH  44  45
ATOM     45  O   UNL     1       5.615   1.729  26.138  0.00  0.00    -0.365 OA
BRANCH  45  46
ATOM     46  P   UNL     1       5.223   0.054  26.322  0.00  0.00    -0.015 P 
ATOM     47  O   UNL     1       4.872  -1.445  26.487  0.00  0.00    -0.638 OA
ATOM     48  O   UNL     1       6.415  -0.001  27.292  0.00  0.00    -0.577 OA
ATOM     49  O   UNL     1       5.416  -0.089  24.790  0.00  0.00    -0.577 OA
ENDBRANCH  45  46
ENDBRANCH  44  45
ENDBRANCH  38  44
ENDBRANCH   5  35
TORSDOF 16
ENDMDL
MODEL 9
REMARK VINA RESULT:      -6.8      2.556      8.409
REMARK  Name = 
REMARK  16 active torsions:
REMARK  status: ('A' for Active; 'I' for Inactive)
REMARK    1  A    between atoms: O_1  and  C_2
REMARK    2  A    between atoms: C_4  and  O_6
REMARK    3  A    between atoms: C_7  and  N_26
REMARK    4  A    between atoms: C_10  and  C_12
REMARK    5  A    between atoms: C_12  and  O_13
REMARK    6  A    between atoms: O_13  and  P_14
REMARK    7  A    between atoms: P_14  and  O_17
REMARK    8  A    between atoms: O_17  and  P_18
REMARK    9  A    between atoms: P_18  and  O_21
REMARK   10  A    between atoms: O_21  and  P_22
REMARK   11  A    between atoms: N_33  and  C_34
REMARK   12  A    between atoms: C_37  and  C_39
REMARK   13  A    between atoms: C_39  and  O_40
REMARK   14  A    between atoms: O_40  and  P_41
REMARK   15  A    between atoms: C_45  and  O_47
REMARK   16  A    between atoms: C_48  and  O_50
REMARK                            x       y       z     vdW  Elec       q    Type
REMARK                         _______ _______ _______ _____ _____    ______ ____
ROOT
ATOM      1  N   UNL     1       9.568   0.915  23.111  0.00  0.00    -0.286 N 
ATOM      2  C   UNL     1       9.333  -0.258  23.763  0.00  0.00    +0.168 A 
ATOM      3  N   UNL     1       9.394  -0.428  25.103  0.00  0.00    -0.218 NA
ATOM      4  C   UNL     1       9.028  -1.634  25.422  0.00  0.00    +0.205 A 
ATOM      5  N   UNL     1       8.717  -2.694  24.552  0.00  0.00    -0.286 N 
ATOM      6  C   UNL     1       8.557  -2.502  23.170  0.00  0.00    +0.159 A 
ATOM      7  N   UNL     1       8.149  -3.334  22.267  0.00  0.00    -0.281 NA
ATOM      8  H   UNL     1       7.852  -4.216  22.676  0.00  0.00    +0.188 HD
ATOM      9  C   UNL     1       8.950  -1.155  22.787  0.00  0.00    +0.150 A 
ATOM     10  N   UNL     1       8.973  -0.574  21.549  0.00  0.00    -0.230 NA
ATOM     11  C   UNL     1       9.153   0.709  21.818  0.00  0.00    +0.203 A 
ENDROOT
BRANCH   1  15
ATOM     12  C   UNL     1       8.819   4.035  23.198  0.00  0.00    +0.178 C 
ATOM     13  C   UNL     1       8.718   3.686  24.702  0.00  0.00    +0.178 C 
ATOM     14  O   UNL     1       9.391   2.443  24.897  0.00  0.00    -0.346 OA
ATOM     15  C   UNL     1      10.133   2.109  23.724  0.00  0.00    +0.253 C 
ATOM     16  C   UNL     1      10.116   3.355  22.795  0.00  0.00    +0.195 C 
BRANCH  12  17
ATOM     17  O   UNL     1       7.778   3.616  22.312  0.00  0.00    -0.386 OA
ATOM     18  H   UNL     1       7.047   4.264  22.346  0.00  0.00    +0.210 HD
ENDBRANCH  12  17
BRANCH  16  19
ATOM     19  O   UNL     1      11.215   4.250  23.082  0.00  0.00    -0.385 OA
ATOM     20  H   UNL     1      11.987   3.696  23.274  0.00  0.00    +0.210 HD
ENDBRANCH  16  19
BRANCH  13  21
ATOM     21  C   UNL     1       7.297   3.628  25.196  0.00  0.00    +0.202 C 
BRANCH  21  22
ATOM     22  O   UNL     1       6.591   2.420  24.939  0.00  0.00    -0.325 OA
BRANCH  22  23
ATOM     23  P   UNL     1       4.941   2.524  25.343  0.00  0.00    +0.218 P 
ATOM     24  O   UNL     1       5.330   2.807  27.005  0.00  0.00    -0.437 OA
ATOM     25  O   UNL     1       4.578   1.019  25.637  0.00  0.00    -0.517 OA
BRANCH  23  26
ATOM     26  O   UNL     1       4.552   2.242  23.681  0.00  0.00    -0.270 OA
BRANCH  26  27
ATOM     27  P   UNL     1       3.587   3.616  23.266  0.00  0.00    +0.221 P 
ATOM     28  O   UNL     1       2.199   2.853  23.960  0.00  0.00    -0.437 OA
ATOM     29  O   UNL     1       3.110   3.259  21.802  0.00  0.00    -0.517 OA
BRANCH  27  30
ATOM     30  O   UNL     1       4.975   4.380  22.572  0.00  0.00    -0.314 OA
BRANCH  30  31
ATOM     31  P   UNL     1       4.930   5.982  22.992  0.00  0.00    -0.007 P 
ATOM     32  O   UNL     1       6.387   6.414  22.888  0.00  0.00    -0.637 OA
ATOM     33  O   UNL     1       4.399   6.045  24.427  0.00  0.00    -0.577 OA
ATOM     34  O   UNL     1       3.979   6.640  21.996  0.00  0.00    -0.577 OA
ENDBRANCH  30  31
ENDBRANCH  27  30
ENDBRANCH  26  27
ENDBRANCH  23  26
ENDBRANCH  22  23
ENDBRANCH  21  22
ENDBRANCH  13  21
ENDBRANCH   1  15
BRANCH   5  35
ATOM     35  C   UNL     1       8.659  -4.058  25.082  0.00  0.00    +0.253 C 
ATOM     36  C   UNL     1       8.606  -4.112  26.634  0.00  0.00    +0.195 C 
ATOM     37  C   UNL     1       7.282  -4.796  26.969  0.00  0.00    +0.178 C 
ATOM     38  C   UNL     1       6.492  -4.697  25.678  0.00  0.00    +0.178 C 
ATOM     39  O   UNL     1       7.501  -4.788  24.644  0.00  0.00    -0.346 OA
BRANCH  36  40
ATOM     40  O   UNL     1       9.700  -4.888  27.174  0.00  0.00    -0.385 OA
ATOM     41  H   UNL     1      10.488  -4.336  26.969  0.00  0.00    +0.210 HD
ENDBRANCH  36  40
BRANCH  37  42
ATOM     42  O   UNL     1       7.558  -6.184  27.301  0.00  0.00    -0.386 OA
ATOM     43  H   UNL     1       6.816  -6.457  27.877  0.00  0.00    +0.210 HD
ENDBRANCH  37  42
BRANCH  38  44
ATOM     44  C   UNL     1       5.672  -3.402  25.596  0.00  0.00    +0.198 C 
BRANCH  44  45
ATOM     45  O   UNL     1       5.357  -3.105  24.241  0.00  0.00    -0.365 OA
BRANCH  45  46
ATOM     46  P   UNL     1       4.529  -4.378  23.413  0.00  0.00    -0.015 P 
ATOM     47  O   UNL     1       3.787  -5.518  22.671  0.00  0.00    -0.638 OA
ATOM     48  O   UNL     1       5.014  -3.700  22.121  0.00  0.00    -0.577 OA
ATOM     49  O   UNL     1       3.237  -3.916  24.135  0.00  0.00    -0.577 OA
ENDBRANCH  45  46
ENDBRANCH  44  45
ENDBRANCH  38  44
ENDBRANCH   5  35
TORSDOF 16
ENDMDL
