MODEL 1
REMARK VINA RESULT:      -6.2      0.000      0.000
REMARK  Name = 
REMARK  35 active torsions:
REMARK  status: ('A' for Active; 'I' for Inactive)
REMARK    1  A    between atoms: C_1  and  C_2
REMARK    2  A    between atoms: C_5  and  O_7
REMARK    3  A    between atoms: O_7  and  C_8
REMARK    4  A    between atoms: C_10  and  C_12
REMARK    5  A    between atoms: C_12  and  O_13
REMARK    6  A    between atoms: C_15  and  O_17
REMARK    7  A    between atoms: O_17  and  C_18
REMARK    8  A    between atoms: C_20  and  C_22
REMARK    9  A    between atoms: C_22  and  O_23
REMARK   10  A    between atoms: C_25  and  O_27
REMARK   11  A    between atoms: C_28  and  O_30
REMARK   12  A    between atoms: C_31  and  O_33
REMARK   13  A    between atoms: C_34  and  O_36
REMARK   14  A    between atoms: C_37  and  O_39
REMARK   15  A    between atoms: C_40  and  O_42
REMARK   16  A    between atoms: C_43  and  O_45
REMARK   17  A    between atoms: C_46  and  N_48
REMARK   18  A    between atoms: N_48  and  C_49
REMARK   19  A    between atoms: C_52  and  C_53
REMARK   20  A    between atoms: C_53  and  O_54
REMARK   21  A    between atoms: C_55  and  O_57
REMARK   22  A    between atoms: O_57  and  C_58
REMARK   23  A    between atoms: C_61  and  C_63
REMARK   24  A    between atoms: C_63  and  O_64
REMARK   25  A    between atoms: C_65  and  O_67
REMARK   26  A    between atoms: O_67  and  C_68
REMARK   27  A    between atoms: C_71  and  C_73
REMARK   28  A    between atoms: C_73  and  O_74
REMARK   29  A    between atoms: C_75  and  O_77
REMARK   30  A    between atoms: C_78  and  O_80
REMARK   31  A    between atoms: C_81  and  O_83
REMARK   32  A    between atoms: C_84  and  O_86
REMARK   33  A    between atoms: C_87  and  O_89
REMARK   34  A    between atoms: C_90  and  O_92
REMARK   35  A    between atoms: C_93  and  O_95
REMARK                            x       y       z     vdW  Elec       q    Type
REMARK                         _______ _______ _______ _____ _____    ______ ____
ROOT
ATOM      1  N   UNL     1       3.811   4.766  24.664  0.00  0.00    -0.300 NA
ATOM      2  H   UNL     1       3.051   5.005  24.014  0.00  0.00    +0.123 HD
ENDROOT
BRANCH   1   5
ATOM      3  C   UNL     1       3.973   4.321  28.489  0.00  0.00    +0.039 C 
ATOM      4  C   UNL     1       4.153   4.029  26.993  0.00  0.00    +0.138 C 
ATOM      5  C   UNL     1       3.217   4.832  26.044  0.00  0.00    +0.114 C 
ATOM      6  C   UNL     1       1.767   4.262  26.154  0.00  0.00    +0.167 C 
ATOM      7  C   UNL     1       1.742   2.742  25.907  0.00  0.00    +0.200 C 
ATOM      8  C   UNL     1       2.759   2.069  26.840  0.00  0.00    +0.282 C 
ATOM      9  O   UNL     1       4.067   2.624  26.716  0.00  0.00    -0.344 OA
BRANCH   7  10
ATOM     10  O   UNL     1       2.035   2.457  24.534  0.00  0.00    -0.384 OA
ATOM     11  H   UNL     1       2.151   1.490  24.459  0.00  0.00    +0.210 HD
ENDBRANCH   7  10
BRANCH   6  12
ATOM     12  O   UNL     1       1.183   4.648  27.407  0.00  0.00    -0.387 OA
ATOM     13  H   UNL     1       1.857   4.995  28.016  0.00  0.00    +0.210 HD
ENDBRANCH   6  12
BRANCH   8  14
ATOM     14  O   UNL     1       2.807   0.659  26.578  0.00  0.00    -0.340 OA
BRANCH  14  15
ATOM     15  C   UNL     1       2.876  -0.112  27.800  0.00  0.00    +0.183 C 
ATOM     16  C   UNL     1       1.536  -0.832  28.110  0.00  0.00    +0.179 C 
ATOM     17  C   UNL     1       1.672  -1.833  29.240  0.00  0.00    +0.201 C 
ATOM     18  C   UNL     1       2.860  -2.752  28.988  0.00  0.00    +0.282 C 
ATOM     19  O   UNL     1       4.063  -2.005  28.819  0.00  0.00    -0.341 OA
ATOM     20  C   UNL     1       4.022  -1.138  27.676  0.00  0.00    +0.178 C 
BRANCH  17  21
ATOM     21  O   UNL     1       0.443  -2.553  29.402  0.00  0.00    -0.384 OA
ATOM     22  H   UNL     1      -0.254  -2.076  28.919  0.00  0.00    +0.210 HD
ENDBRANCH  17  21
BRANCH  16  23
ATOM     23  O   UNL     1       0.523   0.100  28.527  0.00  0.00    -0.386 OA
ATOM     24  H   UNL     1       0.384  -0.017  29.483  0.00  0.00    +0.210 HD
ENDBRANCH  16  23
BRANCH  18  25
ATOM     25  O   UNL     1       2.631  -3.628  27.888  0.00  0.00    -0.340 OA
BRANCH  25  26
ATOM     26  C   UNL     1       3.816  -4.307  27.441  0.00  0.00    +0.183 C 
ATOM     27  C   UNL     1       4.153  -5.544  28.307  0.00  0.00    +0.179 C 
ATOM     28  C   UNL     1       5.288  -6.353  27.690  0.00  0.00    +0.201 C 
ATOM     29  C   UNL     1       4.994  -6.654  26.214  0.00  0.00    +0.279 C 
ATOM     30  O   UNL     1       4.768  -5.456  25.483  0.00  0.00    -0.341 OA
ATOM     31  C   UNL     1       3.622  -4.726  25.968  0.00  0.00    +0.178 C 
BRANCH  28  32
ATOM     32  O   UNL     1       5.482  -7.539  28.470  0.00  0.00    -0.384 OA
ATOM     33  H   UNL     1       5.819  -7.281  29.342  0.00  0.00    +0.210 HD
ENDBRANCH  28  32
BRANCH  29  34
ATOM     34  O   UNL     1       3.879  -7.518  26.085  0.00  0.00    -0.365 OA
ATOM     35  H   UNL     1       4.145  -8.364  26.479  0.00  0.00    +0.213 HD
ENDBRANCH  29  34
BRANCH  27  36
ATOM     36  O   UNL     1       4.570  -5.173  29.640  0.00  0.00    -0.386 OA
ATOM     37  H   UNL     1       4.900  -4.259  29.626  0.00  0.00    +0.210 HD
ENDBRANCH  27  36
BRANCH  31  38
ATOM     38  C   UNL     1       3.434  -3.513  25.042  0.00  0.00    +0.190 C 
BRANCH  38  39
ATOM     39  O   UNL     1       4.182  -3.694  23.836  0.00  0.00    -0.392 OA
ATOM     40  H   UNL     1       4.839  -2.972  23.818  0.00  0.00    +0.210 HD
ENDBRANCH  38  39
ENDBRANCH  31  38
ENDBRANCH  25  26
ENDBRANCH  18  25
BRANCH  20  41
ATOM     41  C   UNL     1       5.413  -0.483  27.559  0.00  0.00    +0.190 C 
BRANCH  41  42
ATOM     42  O   UNL     1       5.564   0.724  28.292  0.00  0.00    -0.392 OA
ATOM     43  H   UNL     1       5.011   1.410  27.877  0.00  0.00    +0.210 HD
ENDBRANCH  41  42
ENDBRANCH  20  41
ENDBRANCH  14  15
ENDBRANCH   8  14
ENDBRANCH   1   5
BRANCH   1  44
ATOM     44  C   UNL     1       4.877   5.761  24.430  0.00  0.00    +0.109 C 
ATOM     45  C   UNL     1       5.432   5.785  22.981  0.00  0.00    +0.166 C 
ATOM     46  C   UNL     1       6.543   4.772  22.685  0.00  0.00    +0.178 C 
ATOM     47  C   UNL     1       7.558   4.512  23.833  0.00  0.00    +0.180 C 
ATOM     48  C   UNL     1       7.185   5.083  25.191  0.00  0.00    -0.016 C 
ATOM     49  C   UNL     1       5.972   5.604  25.437  0.00  0.00    -0.002 C 
BRANCH  45  50
ATOM     50  O   UNL     1       4.358   5.614  22.029  0.00  0.00    -0.387 OA
ATOM     51  H   UNL     1       4.109   4.674  22.023  0.00  0.00    +0.210 HD
ENDBRANCH  45  50
BRANCH  46  52
ATOM     52  O   UNL     1       7.264   5.266  21.523  0.00  0.00    -0.386 OA
ATOM     53  H   UNL     1       8.056   5.747  21.818  0.00  0.00    +0.210 HD
ENDBRANCH  46  52
BRANCH  47  54
ATOM     54  O   UNL     1       7.821   3.083  23.977  0.00  0.00    -0.338 OA
BRANCH  54  55
ATOM     55  C   UNL     1       7.262   2.292  22.919  0.00  0.00    +0.282 C 
ATOM     56  C   UNL     1       6.101   1.391  23.385  0.00  0.00    +0.201 C 
ATOM     57  C   UNL     1       6.553   0.097  24.057  0.00  0.00    +0.179 C 
ATOM     58  C   UNL     1       7.750  -0.551  23.337  0.00  0.00    +0.183 C 
ATOM     59  C   UNL     1       8.824   0.517  23.061  0.00  0.00    +0.178 C 
ATOM     60  O   UNL     1       8.274   1.563  22.237  0.00  0.00    -0.341 OA
BRANCH  57  61
ATOM     61  O   UNL     1       5.435  -0.812  24.004  0.00  0.00    -0.386 OA
ATOM     62  H   UNL     1       5.786  -1.707  23.842  0.00  0.00    +0.210 HD
ENDBRANCH  57  61
BRANCH  56  63
ATOM     63  O   UNL     1       5.189   2.091  24.242  0.00  0.00    -0.384 OA
ATOM     64  H   UNL     1       5.672   2.305  25.064  0.00  0.00    +0.210 HD
ENDBRANCH  56  63
BRANCH  59  65
ATOM     65  C   UNL     1      10.035  -0.041  22.307  0.00  0.00    +0.190 C 
BRANCH  65  66
ATOM     66  O   UNL     1       9.622  -1.133  21.480  0.00  0.00    -0.392 OA
ATOM     67  H   UNL     1      10.388  -1.352  20.917  0.00  0.00    +0.210 HD
ENDBRANCH  65  66
ENDBRANCH  59  65
BRANCH  58  68
ATOM     68  O   UNL     1       8.342  -1.620  24.100  0.00  0.00    -0.340 OA
BRANCH  68  69
ATOM     69  C   UNL     1       7.387  -2.446  24.794  0.00  0.00    +0.282 C 
ATOM     70  C   UNL     1       8.019  -2.962  26.100  0.00  0.00    +0.201 C 
ATOM     71  C   UNL     1       9.122  -3.975  25.777  0.00  0.00    +0.179 C 
ATOM     72  C   UNL     1       8.594  -5.067  24.829  0.00  0.00    +0.177 C 
ATOM     73  C   UNL     1       7.955  -4.426  23.594  0.00  0.00    +0.178 C 
ATOM     74  O   UNL     1       6.915  -3.523  23.989  0.00  0.00    -0.341 OA
BRANCH  72  75
ATOM     75  O   UNL     1       9.667  -5.949  24.488  0.00  0.00    -0.386 OA
ATOM     76  H   UNL     1       9.630  -6.731  25.067  0.00  0.00    +0.210 HD
ENDBRANCH  72  75
BRANCH  71  77
ATOM     77  O   UNL     1       9.597  -4.591  26.980  0.00  0.00    -0.386 OA
ATOM     78  H   UNL     1       9.551  -3.907  27.676  0.00  0.00    +0.210 HD
ENDBRANCH  71  77
BRANCH  70  79
ATOM     79  O   UNL     1       8.523  -1.860  26.871  0.00  0.00    -0.384 OA
ATOM     80  H   UNL     1       9.177  -2.227  27.492  0.00  0.00    +0.210 HD
ENDBRANCH  70  79
BRANCH  73  81
ATOM     81  C   UNL     1       7.346  -5.461  22.644  0.00  0.00    +0.190 C 
BRANCH  81  82
ATOM     82  O   UNL     1       5.930  -5.518  22.844  0.00  0.00    -0.392 OA
ATOM     83  H   UNL     1       5.600  -6.195  22.222  0.00  0.00    +0.210 HD
ENDBRANCH  81  82
ENDBRANCH  73  81
ENDBRANCH  68  69
ENDBRANCH  58  68
ENDBRANCH  54  55
ENDBRANCH  47  54
BRANCH  48  84
ATOM     84  C   UNL     1       8.306   5.075  26.198  0.00  0.00    +0.189 C 
BRANCH  84  85
ATOM     85  O   UNL     1       7.834   5.244  27.526  0.00  0.00    -0.391 OA
ATOM     86  H   UNL     1       7.001   4.777  27.586  0.00  0.00    +0.210 HD
ENDBRANCH  84  85
ENDBRANCH  48  84
ENDBRANCH   1  44
TORSDOF 34
ENDMDL
MODEL 2
REMARK VINA RESULT:      -6.2      2.321      9.902
REMARK  Name = 
REMARK  35 active torsions:
REMARK  status: ('A' for Active; 'I' for Inactive)
REMARK    1  A    between atoms: C_1  and  C_2
REMARK    2  A    between atoms: C_5  and  O_7
REMARK    3  A    between atoms: O_7  and  C_8
REMARK    4  A    between atoms: C_10  and  C_12
REMARK    5  A    between atoms: C_12  and  O_13
REMARK    6  A    between atoms: C_15  and  O_17
REMARK    7  A    between atoms: O_17  and  C_18
REMARK    8  A    between atoms: C_20  and  C_22
REMARK    9  A    between atoms: C_22  and  O_23
REMARK   10  A    between atoms: C_25  and  O_27
REMARK   11  A    between atoms: C_28  and  O_30
REMARK   12  A    between atoms: C_31  and  O_33
REMARK   13  A    between atoms: C_34  and  O_36
REMARK   14  A    between atoms: C_37  and  O_39
REMARK   15  A    between atoms: C_40  and  O_42
REMARK   16  A    between atoms: C_43  and  O_45
REMARK   17  A    between atoms: C_46  and  N_48
REMARK   18  A    between atoms: N_48  and  C_49
REMARK   19  A    between atoms: C_52  and  C_53
REMARK   20  A    between atoms: C_53  and  O_54
REMARK   21  A    between atoms: C_55  and  O_57
REMARK   22  A    between atoms: O_57  and  C_58
REMARK   23  A    between atoms: C_61  and  C_63
REMARK   24  A    between atoms: C_63  and  O_64
REMARK   25  A    between atoms: C_65  and  O_67
REMARK   26  A    between atoms: O_67  and  C_68
REMARK   27  A    between atoms: C_71  and  C_73
REMARK   28  A    between atoms: C_73  and  O_74
REMARK   29  A    between atoms: C_75  and  O_77
REMARK   30  A    between atoms: C_78  and  O_80
REMARK   31  A    between atoms: C_81  and  O_83
REMARK   32  A    between atoms: C_84  and  O_86
REMARK   33  A    between atoms: C_87  and  O_89
REMARK   34  A    between atoms: C_90  and  O_92
REMARK   35  A    between atoms: C_93  and  O_95
REMARK                            x       y       z     vdW  Elec       q    Type
REMARK                         _______ _______ _______ _____ _____    ______ ____
ROOT
ATOM      1  N   UNL     1       6.181  -5.795  24.369  0.00  0.00    -0.300 NA
ATOM      2  H   UNL     1       6.909  -6.374  23.932  0.00  0.00    +0.123 HD
ENDROOT
BRANCH   1   5
ATOM      3  C   UNL     1       6.065  -3.860  27.701  0.00  0.00    +0.039 C 
ATOM      4  C   UNL     1       6.063  -4.136  26.191  0.00  0.00    +0.138 C 
ATOM      5  C   UNL     1       6.656  -5.511  25.767  0.00  0.00    +0.114 C 
ATOM      6  C   UNL     1       8.208  -5.469  25.928  0.00  0.00    +0.167 C 
ATOM      7  C   UNL     1       8.819  -4.273  25.173  0.00  0.00    +0.200 C 
ATOM      8  C   UNL     1       8.102  -2.988  25.613  0.00  0.00    +0.282 C 
ATOM      9  O   UNL     1       6.686  -3.071  25.459  0.00  0.00    -0.344 OA
BRANCH   7  10
ATOM     10  O   UNL     1       8.705  -4.468  23.758  0.00  0.00    -0.384 OA
ATOM     11  H   UNL     1       7.938  -3.944  23.456  0.00  0.00    +0.210 HD
ENDBRANCH   7  10
BRANCH   6  12
ATOM     12  O   UNL     1       8.558  -5.504  27.321  0.00  0.00    -0.387 OA
ATOM     13  H   UNL     1       7.764  -5.485  27.882  0.00  0.00    +0.210 HD
ENDBRANCH   6  12
BRANCH   8  14
ATOM     14  O   UNL     1       8.602  -1.868  24.869  0.00  0.00    -0.340 OA
BRANCH  14  15
ATOM     15  C   UNL     1       7.676  -0.757  24.884  0.00  0.00    +0.183 C 
ATOM     16  C   UNL     1       8.187   0.414  25.767  0.00  0.00    +0.179 C 
ATOM     17  C   UNL     1       7.355   1.669  25.592  0.00  0.00    +0.201 C 
ATOM     18  C   UNL     1       7.196   1.992  24.113  0.00  0.00    +0.282 C 
ATOM     19  O   UNL     1       6.624   0.895  23.404  0.00  0.00    -0.341 OA
ATOM     20  C   UNL     1       7.449  -0.278  23.436  0.00  0.00    +0.178 C 
BRANCH  17  21
ATOM     21  O   UNL     1       7.941   2.747  26.332  0.00  0.00    -0.384 OA
ATOM     22  H   UNL     1       7.559   2.745  27.227  0.00  0.00    +0.210 HD
ENDBRANCH  17  21
BRANCH  16  23
ATOM     23  O   UNL     1       8.120   0.086  27.166  0.00  0.00    -0.386 OA
ATOM     24  H   UNL     1       7.266   0.406  27.508  0.00  0.00    +0.210 HD
ENDBRANCH  16  23
BRANCH  18  25
ATOM     25  O   UNL     1       8.426   2.408  23.524  0.00  0.00    -0.340 OA
BRANCH  25  26
ATOM     26  C   UNL     1       8.348   3.691  22.882  0.00  0.00    +0.183 C 
ATOM     27  C   UNL     1       6.892   4.195  22.739  0.00  0.00    +0.179 C 
ATOM     28  C   UNL     1       6.856   5.636  22.243  0.00  0.00    +0.201 C 
ATOM     29  C   UNL     1       7.769   6.524  23.101  0.00  0.00    +0.279 C 
ATOM     30  O   UNL     1       9.100   6.024  23.117  0.00  0.00    -0.341 OA
ATOM     31  C   UNL     1       9.183   4.704  23.694  0.00  0.00    +0.178 C 
BRANCH  28  32
ATOM     32  O   UNL     1       5.495   6.084  22.236  0.00  0.00    -0.384 OA
ATOM     33  H   UNL     1       5.181   6.127  23.152  0.00  0.00    +0.210 HD
ENDBRANCH  28  32
BRANCH  29  34
ATOM     34  O   UNL     1       7.275   6.628  24.425  0.00  0.00    -0.365 OA
ATOM     35  H   UNL     1       6.342   6.881  24.347  0.00  0.00    +0.213 HD
ENDBRANCH  29  34
BRANCH  27  36
ATOM     36  O   UNL     1       6.136   3.402  21.797  0.00  0.00    -0.386 OA
ATOM     37  H   UNL     1       5.353   3.038  22.244  0.00  0.00    +0.210 HD
ENDBRANCH  27  36
BRANCH  31  38
ATOM     38  C   UNL     1      10.672   4.323  23.736  0.00  0.00    +0.190 C 
BRANCH  38  39
ATOM     39  O   UNL     1      10.955   3.326  22.750  0.00  0.00    -0.392 OA
ATOM     40  H   UNL     1      11.350   2.576  23.233  0.00  0.00    +0.210 HD
ENDBRANCH  38  39
ENDBRANCH  31  38
ENDBRANCH  25  26
ENDBRANCH  18  25
BRANCH  20  41
ATOM     41  C   UNL     1       6.762  -1.335  22.548  0.00  0.00    +0.190 C 
BRANCH  41  42
ATOM     42  O   UNL     1       7.524  -2.513  22.329  0.00  0.00    -0.392 OA
ATOM     43  H   UNL     1       7.175  -3.220  22.901  0.00  0.00    +0.210 HD
ENDBRANCH  41  42
ENDBRANCH  20  41
ENDBRANCH  14  15
ENDBRANCH   8  14
ENDBRANCH   1   5
BRANCH   1  44
ATOM     44  C   UNL     1       4.939  -6.593  24.316  0.00  0.00    +0.109 C 
ATOM     45  C   UNL     1       3.812  -5.978  23.446  0.00  0.00    +0.166 C 
ATOM     46  C   UNL     1       2.922  -4.948  24.150  0.00  0.00    +0.178 C 
ATOM     47  C   UNL     1       2.595  -5.232  25.643  0.00  0.00    +0.180 C 
ATOM     48  C   UNL     1       3.400  -6.342  26.299  0.00  0.00    -0.016 C 
ATOM     49  C   UNL     1       4.458  -6.907  25.698  0.00  0.00    -0.002 C 
BRANCH  45  50
ATOM     50  O   UNL     1       4.367  -5.393  22.245  0.00  0.00    -0.387 OA
ATOM     51  H   UNL     1       4.893  -4.618  22.504  0.00  0.00    +0.210 HD
ENDBRANCH  45  50
BRANCH  46  52
ATOM     52  O   UNL     1       1.679  -4.883  23.401  0.00  0.00    -0.386 OA
ATOM     53  H   UNL     1       0.950  -5.204  23.960  0.00  0.00    +0.210 HD
ENDBRANCH  46  52
BRANCH  47  54
ATOM     54  O   UNL     1       2.728  -4.016  26.442  0.00  0.00    -0.338 OA
BRANCH  54  55
ATOM     55  C   UNL     1       1.510  -3.629  27.093  0.00  0.00    +0.282 C 
ATOM     56  C   UNL     1       0.834  -2.408  26.437  0.00  0.00    +0.201 C 
ATOM     57  C   UNL     1       1.435  -1.069  26.854  0.00  0.00    +0.179 C 
ATOM     58  C   UNL     1       1.760  -1.015  28.358  0.00  0.00    +0.183 C 
ATOM     59  C   UNL     1       2.519  -2.290  28.767  0.00  0.00    +0.178 C 
ATOM     60  O   UNL     1       1.712  -3.450  28.490  0.00  0.00    -0.341 OA
BRANCH  57  61
ATOM     61  O   UNL     1       0.448  -0.060  26.559  0.00  0.00    -0.386 OA
ATOM     62  H   UNL     1       0.536   0.177  25.618  0.00  0.00    +0.210 HD
ENDBRANCH  57  61
BRANCH  56  63
ATOM     63  O   UNL     1       0.817  -2.510  25.007  0.00  0.00    -0.384 OA
ATOM     64  H   UNL     1       1.441  -1.842  24.663  0.00  0.00    +0.210 HD
ENDBRANCH  56  63
BRANCH  59  65
ATOM     65  C   UNL     1       2.845  -2.333  30.263  0.00  0.00    +0.190 C 
BRANCH  65  66
ATOM     66  O   UNL     1       4.189  -1.889  30.472  0.00  0.00    -0.392 OA
ATOM     67  H   UNL     1       4.267  -1.698  31.426  0.00  0.00    +0.210 HD
ENDBRANCH  65  66
ENDBRANCH  59  65
BRANCH  58  68
ATOM     68  O   UNL     1       2.555   0.134  28.711  0.00  0.00    -0.340 OA
BRANCH  68  69
ATOM     69  C   UNL     1       3.147   0.809  27.584  0.00  0.00    +0.282 C 
ATOM     70  C   UNL     1       4.677   0.831  27.755  0.00  0.00    +0.201 C 
ATOM     71  C   UNL     1       5.057   1.768  28.906  0.00  0.00    +0.179 C 
ATOM     72  C   UNL     1       4.398   3.146  28.723  0.00  0.00    +0.177 C 
ATOM     73  C   UNL     1       2.889   2.985  28.523  0.00  0.00    +0.178 C 
ATOM     74  O   UNL     1       2.628   2.125  27.407  0.00  0.00    -0.341 OA
BRANCH  72  75
ATOM     75  O   UNL     1       4.711   3.967  29.852  0.00  0.00    -0.386 OA
ATOM     76  H   UNL     1       4.135   3.715  30.596  0.00  0.00    +0.210 HD
ENDBRANCH  72  75
BRANCH  71  77
ATOM     77  O   UNL     1       6.479   1.932  28.962  0.00  0.00    -0.386 OA
ATOM     78  H   UNL     1       6.639   2.862  29.217  0.00  0.00    +0.210 HD
ENDBRANCH  71  77
BRANCH  70  79
ATOM     79  O   UNL     1       5.166  -0.502  27.974  0.00  0.00    -0.384 OA
ATOM     80  H   UNL     1       4.936  -0.739  28.889  0.00  0.00    +0.210 HD
ENDBRANCH  70  79
BRANCH  73  81
ATOM     81  C   UNL     1       2.185   4.320  28.263  0.00  0.00    +0.190 C 
BRANCH  81  82
ATOM     82  O   UNL     1       3.131   5.270  27.763  0.00  0.00    -0.392 OA
ATOM     83  H   UNL     1       3.027   6.067  28.318  0.00  0.00    +0.210 HD
ENDBRANCH  81  82
ENDBRANCH  73  81
ENDBRANCH  68  69
ENDBRANCH  58  68
ENDBRANCH  54  55
ENDBRANCH  47  54
BRANCH  48  84
ATOM     84  C   UNL     1       2.865  -6.790  27.636  0.00  0.00    +0.189 C 
BRANCH  84  85
ATOM     85  O   UNL     1       3.314  -5.961  28.697  0.00  0.00    -0.391 OA
ATOM     86  H   UNL     1       3.488  -5.098  28.320  0.00  0.00    +0.210 HD
ENDBRANCH  84  85
ENDBRANCH  48  84
ENDBRANCH   1  44
TORSDOF 34
ENDMDL
MODEL 3
REMARK VINA RESULT:      -5.8      1.742      6.132
REMARK  Name = 
REMARK  35 active torsions:
REMARK  status: ('A' for Active; 'I' for Inactive)
REMARK    1  A    between atoms: C_1  and  C_2
REMARK    2  A    between atoms: C_5  and  O_7
REMARK    3  A    between atoms: O_7  and  C_8
REMARK    4  A    between atoms: C_10  and  C_12
REMARK    5  A    between atoms: C_12  and  O_13
REMARK    6  A    between atoms: C_15  and  O_17
REMARK    7  A    between atoms: O_17  and  C_18
REMARK    8  A    between atoms: C_20  and  C_22
REMARK    9  A    between atoms: C_22  and  O_23
REMARK   10  A    between atoms: C_25  and  O_27
REMARK   11  A    between atoms: C_28  and  O_30
REMARK   12  A    between atoms: C_31  and  O_33
REMARK   13  A    between atoms: C_34  and  O_36
REMARK   14  A    between atoms: C_37  and  O_39
REMARK   15  A    between atoms: C_40  and  O_42
REMARK   16  A    between atoms: C_43  and  O_45
REMARK   17  A    between atoms: C_46  and  N_48
REMARK   18  A    between atoms: N_48  and  C_49
REMARK   19  A    between atoms: C_52  and  C_53
REMARK   20  A    between atoms: C_53  and  O_54
REMARK   21  A    between atoms: C_55  and  O_57
REMARK   22  A    between atoms: O_57  and  C_58
REMARK   23  A    between atoms: C_61  and  C_63
REMARK   24  A    between atoms: C_63  and  O_64
REMARK   25  A    between atoms: C_65  and  O_67
REMARK   26  A    between atoms: O_67  and  C_68
REMARK   27  A    between atoms: C_71  and  C_73
REMARK   28  A    between atoms: C_73  and  O_74
REMARK   29  A    between atoms: C_75  and  O_77
REMARK   30  A    between atoms: C_78  and  O_80
REMARK   31  A    between atoms: C_81  and  O_83
REMARK   32  A    between atoms: C_84  and  O_86
REMARK   33  A    between atoms: C_87  and  O_89
REMARK   34  A    between atoms: C_90  and  O_92
REMARK   35  A    between atoms: C_93  and  O_95
REMARK                            x       y       z     vdW  Elec       q    Type
REMARK                         _______ _______ _______ _____ _____    ______ ____
ROOT
ATOM      1  N   UNL     1       8.233   3.158  22.317  0.00  0.00    -0.300 NA
ATOM      2  H   UNL     1       7.340   2.691  22.111  0.00  0.00    +0.123 HD
ENDROOT
BRANCH   1   5
ATOM      3  C   UNL     1      10.757   0.904  24.165  0.00  0.00    +0.039 C 
ATOM      4  C   UNL     1       9.784   1.401  23.086  0.00  0.00    +0.138 C 
ATOM      5  C   UNL     1       8.777   2.491  23.551  0.00  0.00    +0.114 C 
ATOM      6  C   UNL     1       7.694   1.831  24.462  0.00  0.00    +0.167 C 
ATOM      7  C   UNL     1       7.028   0.632  23.762  0.00  0.00    +0.200 C 
ATOM      8  C   UNL     1       8.120  -0.332  23.279  0.00  0.00    +0.282 C 
ATOM      9  O   UNL     1       9.093   0.311  22.457  0.00  0.00    -0.344 OA
BRANCH   7  10
ATOM     10  O   UNL     1       6.216   1.082  22.671  0.00  0.00    -0.384 OA
ATOM     11  H   UNL     1       5.350   0.638  22.754  0.00  0.00    +0.210 HD
ENDBRANCH   7  10
BRANCH   6  12
ATOM     12  O   UNL     1       8.262   1.505  25.740  0.00  0.00    -0.387 OA
ATOM     13  H   UNL     1       7.600   1.580  26.448  0.00  0.00    +0.210 HD
ENDBRANCH   6  12
BRANCH   8  14
ATOM     14  O   UNL     1       7.528  -1.423  22.558  0.00  0.00    -0.340 OA
BRANCH  14  15
ATOM     15  C   UNL     1       8.031  -2.701  23.010  0.00  0.00    +0.183 C 
ATOM     16  C   UNL     1       8.487  -2.655  24.494  0.00  0.00    +0.179 C 
ATOM     17  C   UNL     1       8.777  -4.036  25.047  0.00  0.00    +0.201 C 
ATOM     18  C   UNL     1       7.616  -4.975  24.753  0.00  0.00    +0.282 C 
ATOM     19  O   UNL     1       7.340  -5.032  23.356  0.00  0.00    -0.341 OA
ATOM     20  C   UNL     1       6.931  -3.765  22.818  0.00  0.00    +0.178 C 
BRANCH  17  21
ATOM     21  O   UNL     1       9.073  -3.945  26.447  0.00  0.00    -0.384 OA
ATOM     22  H   UNL     1       8.377  -3.415  26.871  0.00  0.00    +0.210 HD
ENDBRANCH  17  21
BRANCH  16  23
ATOM     23  O   UNL     1       9.703  -1.902  24.647  0.00  0.00    -0.386 OA
ATOM     24  H   UNL     1      10.230  -2.324  25.349  0.00  0.00    +0.210 HD
ENDBRANCH  16  23
BRANCH  18  25
ATOM     25  O   UNL     1       6.452  -4.632  25.501  0.00  0.00    -0.340 OA
BRANCH  25  26
ATOM     26  C   UNL     1       5.800  -5.766  26.096  0.00  0.00    +0.183 C 
ATOM     27  C   UNL     1       6.024  -5.843  27.626  0.00  0.00    +0.179 C 
ATOM     28  C   UNL     1       5.159  -6.931  28.252  0.00  0.00    +0.201 C 
ATOM     29  C   UNL     1       3.696  -6.773  27.817  0.00  0.00    +0.279 C 
ATOM     30  O   UNL     1       3.580  -6.785  26.401  0.00  0.00    -0.341 OA
ATOM     31  C   UNL     1       4.291  -5.691  25.783  0.00  0.00    +0.178 C 
BRANCH  28  32
ATOM     32  O   UNL     1       5.323  -6.883  29.675  0.00  0.00    -0.384 OA
ATOM     33  H   UNL     1       5.016  -6.019  29.990  0.00  0.00    +0.210 HD
ENDBRANCH  28  32
BRANCH  29  34
ATOM     34  O   UNL     1       3.138  -5.581  28.339  0.00  0.00    -0.365 OA
ATOM     35  H   UNL     1       3.527  -5.462  29.220  0.00  0.00    +0.213 HD
ENDBRANCH  29  34
BRANCH  27  36
ATOM     36  O   UNL     1       7.397  -6.148  27.957  0.00  0.00    -0.386 OA
ATOM     37  H   UNL     1       7.730  -5.478  28.578  0.00  0.00    +0.210 HD
ENDBRANCH  27  36
BRANCH  31  38
ATOM     38  C   UNL     1       4.010  -5.765  24.273  0.00  0.00    +0.190 C 
BRANCH  38  39
ATOM     39  O   UNL     1       4.907  -6.688  23.649  0.00  0.00    -0.392 OA
ATOM     40  H   UNL     1       5.787  -6.504  24.029  0.00  0.00    +0.210 HD
ENDBRANCH  38  39
ENDBRANCH  31  38
ENDBRANCH  25  26
ENDBRANCH  18  25
BRANCH  20  41
ATOM     41  C   UNL     1       6.566  -4.001  21.339  0.00  0.00    +0.190 C 
BRANCH  41  42
ATOM     42  O   UNL     1       5.779  -5.159  21.100  0.00  0.00    -0.392 OA
ATOM     43  H   UNL     1       5.656  -5.630  21.943  0.00  0.00    +0.210 HD
ENDBRANCH  41  42
ENDBRANCH  20  41
ENDBRANCH  14  15
ENDBRANCH   8  14
ENDBRANCH   1   5
BRANCH   1  44
ATOM     44  C   UNL     1       7.913   4.587  22.509  0.00  0.00    +0.109 C 
ATOM     45  C   UNL     1       8.620   5.251  23.719  0.00  0.00    +0.166 C 
ATOM     46  C   UNL     1       7.912   5.084  25.068  0.00  0.00    +0.178 C 
ATOM     47  C   UNL     1       6.359   5.128  25.038  0.00  0.00    +0.180 C 
ATOM     48  C   UNL     1       5.720   5.066  23.660  0.00  0.00    -0.016 C 
ATOM     49  C   UNL     1       6.431   4.791  22.555  0.00  0.00    -0.002 C 
BRANCH  45  50
ATOM     50  O   UNL     1       9.982   4.778  23.828  0.00  0.00    -0.387 OA
ATOM     51  H   UNL     1       9.964   3.806  23.809  0.00  0.00    +0.210 HD
ENDBRANCH  45  50
BRANCH  46  52
ATOM     52  O   UNL     1       8.395   6.149  25.931  0.00  0.00    -0.386 OA
ATOM     53  H   UNL     1       9.321   6.348  25.708  0.00  0.00    +0.210 HD
ENDBRANCH  46  52
BRANCH  47  54
ATOM     54  O   UNL     1       5.795   4.067  25.868  0.00  0.00    -0.338 OA
BRANCH  54  55
ATOM     55  C   UNL     1       5.469   4.498  27.197  0.00  0.00    +0.282 C 
ATOM     56  C   UNL     1       6.189   3.685  28.291  0.00  0.00    +0.201 C 
ATOM     57  C   UNL     1       5.525   2.348  28.606  0.00  0.00    +0.179 C 
ATOM     58  C   UNL     1       3.989   2.452  28.651  0.00  0.00    +0.183 C 
ATOM     59  C   UNL     1       3.489   3.217  27.413  0.00  0.00    +0.178 C 
ATOM     60  O   UNL     1       4.061   4.538  27.390  0.00  0.00    -0.341 OA
BRANCH  57  61
ATOM     61  O   UNL     1       5.998   1.944  29.908  0.00  0.00    -0.386 OA
ATOM     62  H   UNL     1       5.348   2.246  30.568  0.00  0.00    +0.210 HD
ENDBRANCH  57  61
BRANCH  56  63
ATOM     63  O   UNL     1       7.574   3.479  27.982  0.00  0.00    -0.384 OA
ATOM     64  H   UNL     1       7.637   3.339  27.017  0.00  0.00    +0.210 HD
ENDBRANCH  56  63
BRANCH  59  65
ATOM     65  C   UNL     1       1.968   3.400  27.403  0.00  0.00    +0.190 C 
BRANCH  65  66
ATOM     66  O   UNL     1       1.485   3.312  26.059  0.00  0.00    -0.392 OA
ATOM     67  H   UNL     1       1.595   2.380  25.792  0.00  0.00    +0.210 HD
ENDBRANCH  65  66
ENDBRANCH  59  65
BRANCH  58  68
ATOM     68  O   UNL     1       3.348   1.162  28.693  0.00  0.00    -0.340 OA
BRANCH  68  69
ATOM     69  C   UNL     1       3.148   0.562  27.398  0.00  0.00    +0.282 C 
ATOM     70  C   UNL     1       2.079  -0.540  27.510  0.00  0.00    +0.201 C 
ATOM     71  C   UNL     1       2.636  -1.721  28.312  0.00  0.00    +0.179 C 
ATOM     72  C   UNL     1       3.989  -2.177  27.738  0.00  0.00    +0.177 C 
ATOM     73  C   UNL     1       4.945  -0.986  27.638  0.00  0.00    +0.178 C 
ATOM     74  O   UNL     1       4.359   0.053  26.844  0.00  0.00    -0.341 OA
BRANCH  72  75
ATOM     75  O   UNL     1       4.514  -3.227  28.555  0.00  0.00    -0.386 OA
ATOM     76  H   UNL     1       5.189  -2.856  29.151  0.00  0.00    +0.210 HD
ENDBRANCH  72  75
BRANCH  71  77
ATOM     77  O   UNL     1       1.718  -2.821  28.275  0.00  0.00    -0.386 OA
ATOM     78  H   UNL     1       1.982  -3.425  28.997  0.00  0.00    +0.210 HD
ENDBRANCH  71  77
BRANCH  70  79
ATOM     79  O   UNL     1       0.887  -0.009  28.109  0.00  0.00    -0.384 OA
ATOM     80  H   UNL     1       0.618  -0.636  28.805  0.00  0.00    +0.210 HD
ENDBRANCH  70  79
BRANCH  73  81
ATOM     81  C   UNL     1       6.288  -1.362  27.006  0.00  0.00    +0.190 C 
BRANCH  81  82
ATOM     82  O   UNL     1       7.284  -0.413  27.400  0.00  0.00    -0.392 OA
ATOM     83  H   UNL     1       8.145  -0.838  27.218  0.00  0.00    +0.210 HD
ENDBRANCH  81  82
ENDBRANCH  73  81
ENDBRANCH  68  69
ENDBRANCH  58  68
ENDBRANCH  54  55
ENDBRANCH  47  54
BRANCH  48  84
ATOM     84  C   UNL     1       4.252   5.404  23.640  0.00  0.00    +0.189 C 
BRANCH  84  85
ATOM     85  O   UNL     1       3.459   4.382  24.223  0.00  0.00    -0.391 OA
ATOM     86  H   UNL     1       3.489   3.634  23.627  0.00  0.00    +0.210 HD
ENDBRANCH  84  85
ENDBRANCH  48  84
ENDBRANCH   1  44
TORSDOF 34
ENDMDL
MODEL 4
REMARK VINA RESULT:      -5.7      1.445      2.310
REMARK  Name = 
REMARK  35 active torsions:
REMARK  status: ('A' for Active; 'I' for Inactive)
REMARK    1  A    between atoms: C_1  and  C_2
REMARK    2  A    between atoms: C_5  and  O_7
REMARK    3  A    between atoms: O_7  and  C_8
REMARK    4  A    between atoms: C_10  and  C_12
REMARK    5  A    between atoms: C_12  and  O_13
REMARK    6  A    between atoms: C_15  and  O_17
REMARK    7  A    between atoms: O_17  and  C_18
REMARK    8  A    between atoms: C_20  and  C_22
REMARK    9  A    between atoms: C_22  and  O_23
REMARK   10  A    between atoms: C_25  and  O_27
REMARK   11  A    between atoms: C_28  and  O_30
REMARK   12  A    between atoms: C_31  and  O_33
REMARK   13  A    between atoms: C_34  and  O_36
REMARK   14  A    between atoms: C_37  and  O_39
REMARK   15  A    between atoms: C_40  and  O_42
REMARK   16  A    between atoms: C_43  and  O_45
REMARK   17  A    between atoms: C_46  and  N_48
REMARK   18  A    between atoms: N_48  and  C_49
REMARK   19  A    between atoms: C_52  and  C_53
REMARK   20  A    between atoms: C_53  and  O_54
REMARK   21  A    between atoms: C_55  and  O_57
REMARK   22  A    between atoms: O_57  and  C_58
REMARK   23  A    between atoms: C_61  and  C_63
REMARK   24  A    between atoms: C_63  and  O_64
REMARK   25  A    between atoms: C_65  and  O_67
REMARK   26  A    between atoms: O_67  and  C_68
REMARK   27  A    between atoms: C_71  and  C_73
REMARK   28  A    between atoms: C_73  and  O_74
REMARK   29  A    between atoms: C_75  and  O_77
REMARK   30  A    between atoms: C_78  and  O_80
REMARK   31  A    between atoms: C_81  and  O_83
REMARK   32  A    between atoms: C_84  and  O_86
REMARK   33  A    between atoms: C_87  and  O_89
REMARK   34  A    between atoms: C_90  and  O_92
REMARK   35  A    between atoms: C_93  and  O_95
REMARK                            x       y       z     vdW  Elec       q    Type
REMARK                         _______ _______ _______ _____ _____    ______ ____
ROOT
ATOM      1  N   UNL     1       3.877   4.916  24.363  0.00  0.00    -0.300 NA
ATOM      2  H   UNL     1       3.281   5.261  23.599  0.00  0.00    +0.123 HD
ENDROOT
BRANCH   1   5
ATOM      3  C   UNL     1       3.452   4.806  28.192  0.00  0.00    +0.039 C 
ATOM      4  C   UNL     1       3.871   4.395  26.773  0.00  0.00    +0.138 C 
ATOM      5  C   UNL     1       3.073   5.075  25.624  0.00  0.00    +0.114 C 
ATOM      6  C   UNL     1       1.640   4.458  25.562  0.00  0.00    +0.167 C 
ATOM      7  C   UNL     1       1.695   2.923  25.453  0.00  0.00    +0.200 C 
ATOM      8  C   UNL     1       2.571   2.374  26.588  0.00  0.00    +0.282 C 
ATOM      9  O   UNL     1       3.868   2.969  26.615  0.00  0.00    -0.344 OA
BRANCH   7  10
ATOM     10  O   UNL     1       2.206   2.533  24.172  0.00  0.00    -0.384 OA
ATOM     11  H   UNL     1       1.533   1.962  23.755  0.00  0.00    +0.210 HD
ENDBRANCH   7  10
BRANCH   6  12
ATOM     12  O   UNL     1       0.857   4.925  26.671  0.00  0.00    -0.387 OA
ATOM     13  H   UNL     1       0.647   5.870  26.579  0.00  0.00    +0.210 HD
ENDBRANCH   6  12
BRANCH   8  14
ATOM     14  O   UNL     1       2.698   0.949  26.465  0.00  0.00    -0.340 OA
BRANCH  14  15
ATOM     15  C   UNL     1       2.833   0.310  27.755  0.00  0.00    +0.183 C 
ATOM     16  C   UNL     1       1.726  -0.752  27.996  0.00  0.00    +0.179 C 
ATOM     17  C   UNL     1       2.001  -1.598  29.223  0.00  0.00    +0.201 C 
ATOM     18  C   UNL     1       3.423  -2.140  29.180  0.00  0.00    +0.282 C 
ATOM     19  O   UNL     1       4.374  -1.084  29.063  0.00  0.00    -0.341 OA
ATOM     20  C   UNL     1       4.229  -0.339  27.845  0.00  0.00    +0.178 C 
BRANCH  17  21
ATOM     21  O   UNL     1       1.018  -2.636  29.327  0.00  0.00    -0.384 OA
ATOM     22  H   UNL     1       0.393  -2.393  30.031  0.00  0.00    +0.210 HD
ENDBRANCH  17  21
BRANCH  16  23
ATOM     23  O   UNL     1       0.446  -0.137  28.217  0.00  0.00    -0.386 OA
ATOM     24  H   UNL     1      -0.163  -0.453  27.525  0.00  0.00    +0.210 HD
ENDBRANCH  16  23
BRANCH  18  25
ATOM     25  O   UNL     1       3.592  -3.111  28.150  0.00  0.00    -0.340 OA
BRANCH  25  26
ATOM     26  C   UNL     1       4.191  -4.333  28.608  0.00  0.00    +0.183 C 
ATOM     27  C   UNL     1       3.161  -5.478  28.761  0.00  0.00    +0.179 C 
ATOM     28  C   UNL     1       3.854  -6.804  29.050  0.00  0.00    +0.201 C 
ATOM     29  C   UNL     1       4.966  -7.066  28.025  0.00  0.00    +0.279 C 
ATOM     30  O   UNL     1       5.903  -5.997  28.005  0.00  0.00    -0.341 OA
ATOM     31  C   UNL     1       5.299  -4.745  27.616  0.00  0.00    +0.178 C 
BRANCH  28  32
ATOM     32  O   UNL     1       2.865  -7.842  29.072  0.00  0.00    -0.384 OA
ATOM     33  H   UNL     1       2.049  -7.497  28.677  0.00  0.00    +0.210 HD
ENDBRANCH  28  32
BRANCH  29  34
ATOM     34  O   UNL     1       4.426  -7.261  26.730  0.00  0.00    -0.365 OA
ATOM     35  H   UNL     1       3.839  -6.507  26.564  0.00  0.00    +0.213 HD
ENDBRANCH  29  34
BRANCH  27  36
ATOM     36  O   UNL     1       2.239  -5.233  29.847  0.00  0.00    -0.386 OA
ATOM     37  H   UNL     1       2.176  -6.034  30.396  0.00  0.00    +0.210 HD
ENDBRANCH  27  36
BRANCH  31  38
ATOM     38  C   UNL     1       6.427  -3.703  27.543  0.00  0.00    +0.190 C 
BRANCH  38  39
ATOM     39  O   UNL     1       7.660  -4.335  27.185  0.00  0.00    -0.392 OA
ATOM     40  H   UNL     1       7.461  -5.288  27.114  0.00  0.00    +0.210 HD
ENDBRANCH  38  39
ENDBRANCH  31  38
ENDBRANCH  25  26
ENDBRANCH  18  25
BRANCH  20  41
ATOM     41  C   UNL     1       5.379   0.688  27.807  0.00  0.00    +0.190 C 
BRANCH  41  42
ATOM     42  O   UNL     1       5.809   1.049  26.503  0.00  0.00    -0.392 OA
ATOM     43  H   UNL     1       6.763   0.869  26.429  0.00  0.00    +0.210 HD
ENDBRANCH  41  42
ENDBRANCH  20  41
ENDBRANCH  14  15
ENDBRANCH   8  14
ENDBRANCH   1   5
BRANCH   1  44
ATOM     44  C   UNL     1       5.100   5.742  24.332  0.00  0.00    +0.109 C 
ATOM     45  C   UNL     1       5.777   5.844  22.939  0.00  0.00    +0.166 C 
ATOM     46  C   UNL     1       6.739   4.704  22.590  0.00  0.00    +0.178 C 
ATOM     47  C   UNL     1       7.597   4.148  23.761  0.00  0.00    +0.180 C 
ATOM     48  C   UNL     1       7.199   4.611  25.153  0.00  0.00    -0.016 C 
ATOM     49  C   UNL     1       6.065   5.291  25.382  0.00  0.00    -0.002 C 
BRANCH  45  50
ATOM     50  O   UNL     1       4.776   5.964  21.902  0.00  0.00    -0.387 OA
ATOM     51  H   UNL     1       4.938   5.264  21.247  0.00  0.00    +0.210 HD
ENDBRANCH  45  50
BRANCH  46  52
ATOM     52  O   UNL     1       7.626   5.205  21.554  0.00  0.00    -0.386 OA
ATOM     53  H   UNL     1       7.993   6.061  21.832  0.00  0.00    +0.210 HD
ENDBRANCH  46  52
BRANCH  47  54
ATOM     54  O   UNL     1       7.622   2.688  23.737  0.00  0.00    -0.338 OA
BRANCH  54  55
ATOM     55  C   UNL     1       8.944   2.144  23.614  0.00  0.00    +0.282 C 
ATOM     56  C   UNL     1       9.183   1.432  22.268  0.00  0.00    +0.201 C 
ATOM     57  C   UNL     1       8.637   0.009  22.214  0.00  0.00    +0.179 C 
ATOM     58  C   UNL     1       8.895  -0.768  23.518  0.00  0.00    +0.183 C 
ATOM     59  C   UNL     1       8.492   0.100  24.723  0.00  0.00    +0.178 C 
ATOM     60  O   UNL     1       9.261   1.318  24.727  0.00  0.00    -0.341 OA
BRANCH  57  61
ATOM     61  O   UNL     1       9.321  -0.660  21.135  0.00  0.00    -0.386 OA
ATOM     62  H   UNL     1      10.271  -0.457  21.214  0.00  0.00    +0.210 HD
ENDBRANCH  57  61
BRANCH  56  63
ATOM     63  O   UNL     1       8.674   2.191  21.162  0.00  0.00    -0.384 OA
ATOM     64  H   UNL     1       9.319   2.104  20.433  0.00  0.00    +0.210 HD
ENDBRANCH  56  63
BRANCH  59  65
ATOM     65  C   UNL     1       8.758  -0.588  26.066  0.00  0.00    +0.190 C 
BRANCH  65  66
ATOM     66  O   UNL     1       8.481   0.324  27.133  0.00  0.00    -0.392 OA
ATOM     67  H   UNL     1       7.969   1.055  26.739  0.00  0.00    +0.210 HD
ENDBRANCH  65  66
ENDBRANCH  59  65
BRANCH  58  68
ATOM     68  O   UNL     1       8.168  -2.011  23.576  0.00  0.00    -0.340 OA
BRANCH  68  69
ATOM     69  C   UNL     1       7.101  -2.114  22.612  0.00  0.00    +0.282 C 
ATOM     70  C   UNL     1       5.749  -1.998  23.340  0.00  0.00    +0.201 C 
ATOM     71  C   UNL     1       5.512  -3.248  24.193  0.00  0.00    +0.179 C 
ATOM     72  C   UNL     1       5.696  -4.523  23.350  0.00  0.00    +0.177 C 
ATOM     73  C   UNL     1       7.055  -4.496  22.648  0.00  0.00    +0.178 C 
ATOM     74  O   UNL     1       7.175  -3.314  21.847  0.00  0.00    -0.341 OA
BRANCH  72  75
ATOM     75  O   UNL     1       5.543  -5.667  24.194  0.00  0.00    -0.386 OA
ATOM     76  H   UNL     1       5.197  -5.379  25.058  0.00  0.00    +0.210 HD
ENDBRANCH  72  75
BRANCH  71  77
ATOM     77  O   UNL     1       4.185  -3.233  24.736  0.00  0.00    -0.386 OA
ATOM     78  H   UNL     1       4.236  -2.733  25.574  0.00  0.00    +0.210 HD
ENDBRANCH  71  77
BRANCH  70  79
ATOM     79  O   UNL     1       5.720  -0.802  24.135  0.00  0.00    -0.384 OA
ATOM     80  H   UNL     1       4.891  -0.340  23.917  0.00  0.00    +0.210 HD
ENDBRANCH  70  79
BRANCH  73  81
ATOM     81  C   UNL     1       7.268  -5.708  21.734  0.00  0.00    +0.190 C 
BRANCH  81  82
ATOM     82  O   UNL     1       6.033  -6.049  21.099  0.00  0.00    -0.392 OA
ATOM     83  H   UNL     1       6.273  -6.597  20.326  0.00  0.00    +0.210 HD
ENDBRANCH  81  82
ENDBRANCH  73  81
ENDBRANCH  68  69
ENDBRANCH  58  68
ENDBRANCH  54  55
ENDBRANCH  47  54
BRANCH  48  84
ATOM     84  C   UNL     1       8.214   4.300  26.224  0.00  0.00    +0.189 C 
BRANCH  84  85
ATOM     85  O   UNL     1       7.895   3.114  26.934  0.00  0.00    -0.391 OA
ATOM     86  H   UNL     1       7.947   2.392  26.307  0.00  0.00    +0.210 HD
ENDBRANCH  84  85
ENDBRANCH  48  84
ENDBRANCH   1  44
TORSDOF 34
ENDMDL
MODEL 5
REMARK VINA RESULT:      -5.6      2.041      8.717
REMARK  Name = 
REMARK  35 active torsions:
REMARK  status: ('A' for Active; 'I' for Inactive)
REMARK    1  A    between atoms: C_1  and  C_2
REMARK    2  A    between atoms: C_5  and  O_7
REMARK    3  A    between atoms: O_7  and  C_8
REMARK    4  A    between atoms: C_10  and  C_12
REMARK    5  A    between atoms: C_12  and  O_13
REMARK    6  A    between atoms: C_15  and  O_17
REMARK    7  A    between atoms: O_17  and  C_18
REMARK    8  A    between atoms: C_20  and  C_22
REMARK    9  A    between atoms: C_22  and  O_23
REMARK   10  A    between atoms: C_25  and  O_27
REMARK   11  A    between atoms: C_28  and  O_30
REMARK   12  A    between atoms: C_31  and  O_33
REMARK   13  A    between atoms: C_34  and  O_36
REMARK   14  A    between atoms: C_37  and  O_39
REMARK   15  A    between atoms: C_40  and  O_42
REMARK   16  A    between atoms: C_43  and  O_45
REMARK   17  A    between atoms: C_46  and  N_48
REMARK   18  A    between atoms: N_48  and  C_49
REMARK   19  A    between atoms: C_52  and  C_53
REMARK   20  A    between atoms: C_53  and  O_54
REMARK   21  A    between atoms: C_55  and  O_57
REMARK   22  A    between atoms: O_57  and  C_58
REMARK   23  A    between atoms: C_61  and  C_63
REMARK   24  A    between atoms: C_63  and  O_64
REMARK   25  A    between atoms: C_65  and  O_67
REMARK   26  A    between atoms: O_67  and  C_68
REMARK   27  A    between atoms: C_71  and  C_73
REMARK   28  A    between atoms: C_73  and  O_74
REMARK   29  A    between atoms: C_75  and  O_77
REMARK   30  A    between atoms: C_78  and  O_80
REMARK   31  A    between atoms: C_81  and  O_83
REMARK   32  A    between atoms: C_84  and  O_86
REMARK   33  A    between atoms: C_87  and  O_89
REMARK   34  A    between atoms: C_90  and  O_92
REMARK   35  A    between atoms: C_93  and  O_95
REMARK                            x       y       z     vdW  Elec       q    Type
REMARK                         _______ _______ _______ _____ _____    ______ ____
ROOT
ATOM      1  N   UNL     1       4.223  -3.385  27.471  0.00  0.00    -0.300 NA
ATOM      2  H   UNL     1       3.494  -3.751  26.844  0.00  0.00    +0.123 HD
ENDROOT
BRANCH   1   5
ATOM      3  C   UNL     1       7.652  -5.116  27.144  0.00  0.00    +0.039 C 
ATOM      4  C   UNL     1       6.391  -4.326  26.765  0.00  0.00    +0.138 C 
ATOM      5  C   UNL     1       5.174  -4.524  27.714  0.00  0.00    +0.114 C 
ATOM      6  C   UNL     1       4.564  -5.941  27.475  0.00  0.00    +0.167 C 
ATOM      7  C   UNL     1       4.230  -6.163  25.988  0.00  0.00    +0.200 C 
ATOM      8  C   UNL     1       5.479  -5.862  25.147  0.00  0.00    +0.282 C 
ATOM      9  O   UNL     1       6.010  -4.563  25.401  0.00  0.00    -0.344 OA
BRANCH   7  10
ATOM     10  O   UNL     1       3.131  -5.332  25.595  0.00  0.00    -0.384 OA
ATOM     11  H   UNL     1       2.374  -5.569  26.165  0.00  0.00    +0.210 HD
ENDBRANCH   7  10
BRANCH   6  12
ATOM     12  O   UNL     1       5.429  -6.946  28.023  0.00  0.00    -0.387 OA
ATOM     13  H   UNL     1       5.806  -6.660  28.873  0.00  0.00    +0.210 HD
ENDBRANCH   6  12
BRANCH   8  14
ATOM     14  O   UNL     1       5.172  -5.991  23.750  0.00  0.00    -0.340 OA
BRANCH  14  15
ATOM     15  C   UNL     1       5.498  -4.788  23.017  0.00  0.00    +0.183 C 
ATOM     16  C   UNL     1       5.279  -3.509  23.870  0.00  0.00    +0.179 C 
ATOM     17  C   UNL     1       5.849  -2.272  23.206  0.00  0.00    +0.201 C 
ATOM     18  C   UNL     1       7.286  -2.524  22.770  0.00  0.00    +0.282 C 
ATOM     19  O   UNL     1       7.371  -3.655  21.906  0.00  0.00    -0.341 OA
ATOM     20  C   UNL     1       6.963  -4.874  22.544  0.00  0.00    +0.178 C 
BRANCH  17  21
ATOM     21  O   UNL     1       5.730  -1.149  24.088  0.00  0.00    -0.384 OA
ATOM     22  H   UNL     1       6.497  -1.149  24.685  0.00  0.00    +0.210 HD
ENDBRANCH  17  21
BRANCH  16  23
ATOM     23  O   UNL     1       3.880  -3.243  24.070  0.00  0.00    -0.386 OA
ATOM     24  H   UNL     1       3.643  -3.542  24.966  0.00  0.00    +0.210 HD
ENDBRANCH  16  23
BRANCH  18  25
ATOM     25  O   UNL     1       8.165  -2.653  23.884  0.00  0.00    -0.340 OA
BRANCH  25  26
ATOM     26  C   UNL     1       9.125  -1.588  23.982  0.00  0.00    +0.183 C 
ATOM     27  C   UNL     1       9.266  -0.795  22.660  0.00  0.00    +0.179 C 
ATOM     28  C   UNL     1      10.134   0.444  22.854  0.00  0.00    +0.201 C 
ATOM     29  C   UNL     1       9.641   1.264  24.054  0.00  0.00    +0.279 C 
ATOM     30  O   UNL     1       9.612   0.474  25.236  0.00  0.00    -0.341 OA
ATOM     31  C   UNL     1       8.704  -0.643  25.126  0.00  0.00    +0.178 C 
BRANCH  28  32
ATOM     32  O   UNL     1      10.138   1.195  21.634  0.00  0.00    -0.384 OA
ATOM     33  H   UNL     1       9.988   0.584  20.896  0.00  0.00    +0.210 HD
ENDBRANCH  28  32
BRANCH  29  34
ATOM     34  O   UNL     1       8.357   1.808  23.804  0.00  0.00    -0.365 OA
ATOM     35  H   UNL     1       8.458   2.772  23.850  0.00  0.00    +0.213 HD
ENDBRANCH  29  34
BRANCH  27  36
ATOM     36  O   UNL     1       9.880  -1.585  21.618  0.00  0.00    -0.386 OA
ATOM     37  H   UNL     1      10.054  -2.479  21.959  0.00  0.00    +0.210 HD
ENDBRANCH  27  36
BRANCH  31  38
ATOM     38  C   UNL     1       8.697  -1.354  26.490  0.00  0.00    +0.190 C 
BRANCH  38  39
ATOM     39  O   UNL     1       9.258  -0.502  27.493  0.00  0.00    -0.392 OA
ATOM     40  H   UNL     1       8.531  -0.304  28.113  0.00  0.00    +0.210 HD
ENDBRANCH  38  39
ENDBRANCH  31  38
ENDBRANCH  25  26
ENDBRANCH  18  25
BRANCH  20  41
ATOM     41  C   UNL     1       7.209  -6.014  21.534  0.00  0.00    +0.190 C 
BRANCH  41  42
ATOM     42  O   UNL     1       6.064  -6.403  20.789  0.00  0.00    -0.392 OA
ATOM     43  H   UNL     1       5.268  -6.124  21.275  0.00  0.00    +0.210 HD
ENDBRANCH  41  42
ENDBRANCH  20  41
ENDBRANCH  14  15
ENDBRANCH   8  14
ENDBRANCH   1   5
BRANCH   1  44
ATOM     44  C   UNL     1       3.523  -2.927  28.688  0.00  0.00    +0.109 C 
ATOM     45  C   UNL     1       2.083  -2.403  28.447  0.00  0.00    +0.166 C 
ATOM     46  C   UNL     1       1.976  -0.932  28.034  0.00  0.00    +0.178 C 
ATOM     47  C   UNL     1       2.986   0.042  28.703  0.00  0.00    +0.180 C 
ATOM     48  C   UNL     1       4.120  -0.607  29.479  0.00  0.00    -0.016 C 
ATOM     49  C   UNL     1       4.356  -1.928  29.428  0.00  0.00    -0.002 C 
BRANCH  45  50
ATOM     50  O   UNL     1       1.406  -3.227  27.470  0.00  0.00    -0.387 OA
ATOM     51  H   UNL     1       2.030  -3.411  26.748  0.00  0.00    +0.210 HD
ENDBRANCH  45  50
BRANCH  46  52
ATOM     52  O   UNL     1       0.626  -0.501  28.353  0.00  0.00    -0.386 OA
ATOM     53  H   UNL     1       0.058  -0.622  27.573  0.00  0.00    +0.210 HD
ENDBRANCH  46  52
BRANCH  47  54
ATOM     54  O   UNL     1       3.552   0.959  27.718  0.00  0.00    -0.338 OA
BRANCH  54  55
ATOM     55  C   UNL     1       3.053   2.299  27.835  0.00  0.00    +0.282 C 
ATOM     56  C   UNL     1       2.425   2.828  26.531  0.00  0.00    +0.201 C 
ATOM     57  C   UNL     1       3.442   3.340  25.516  0.00  0.00    +0.179 C 
ATOM     58  C   UNL     1       4.571   4.154  26.177  0.00  0.00    +0.183 C 
ATOM     59  C   UNL     1       5.111   3.387  27.397  0.00  0.00    +0.178 C 
ATOM     60  O   UNL     1       4.052   3.172  28.349  0.00  0.00    -0.341 OA
BRANCH  57  61
ATOM     61  O   UNL     1       2.726   4.200  24.606  0.00  0.00    -0.386 OA
ATOM     62  H   UNL     1       1.937   3.718  24.299  0.00  0.00    +0.210 HD
ENDBRANCH  57  61
BRANCH  56  63
ATOM     63  O   UNL     1       1.570   1.855  25.915  0.00  0.00    -0.384 OA
ATOM     64  H   UNL     1       1.064   1.422  26.630  0.00  0.00    +0.210 HD
ENDBRANCH  56  63
BRANCH  59  65
ATOM     65  C   UNL     1       6.213   4.151  28.137  0.00  0.00    +0.190 C 
BRANCH  65  66
ATOM     66  O   UNL     1       7.494   3.669  27.717  0.00  0.00    -0.392 OA
ATOM     67  H   UNL     1       8.113   4.415  27.826  0.00  0.00    +0.210 HD
ENDBRANCH  65  66
ENDBRANCH  59  65
BRANCH  58  68
ATOM     68  O   UNL     1       5.662   4.421  25.274  0.00  0.00    -0.340 OA
BRANCH  68  69
ATOM     69  C   UNL     1       5.810   5.811  24.924  0.00  0.00    +0.282 C 
ATOM     70  C   UNL     1       5.886   5.941  23.392  0.00  0.00    +0.201 C 
ATOM     71  C   UNL     1       7.211   5.357  22.888  0.00  0.00    +0.179 C 
ATOM     72  C   UNL     1       8.398   5.962  23.658  0.00  0.00    +0.177 C 
ATOM     73  C   UNL     1       8.181   5.806  25.165  0.00  0.00    +0.178 C 
ATOM     74  O   UNL     1       6.941   6.410  25.551  0.00  0.00    -0.341 OA
BRANCH  72  75
ATOM     75  O   UNL     1       9.607   5.339  23.217  0.00  0.00    -0.386 OA
ATOM     76  H   UNL     1       9.965   4.794  23.941  0.00  0.00    +0.210 HD
ENDBRANCH  72  75
BRANCH  71  77
ATOM     77  O   UNL     1       7.372   5.629  21.490  0.00  0.00    -0.386 OA
ATOM     78  H   UNL     1       6.489   5.521  21.085  0.00  0.00    +0.210 HD
ENDBRANCH  71  77
BRANCH  70  79
ATOM     79  O   UNL     1       4.758   5.293  22.786  0.00  0.00    -0.384 OA
ATOM     80  H   UNL     1       4.971   5.178  21.843  0.00  0.00    +0.210 HD
ENDBRANCH  70  79
BRANCH  73  81
ATOM     81  C   UNL     1       9.298   6.453  25.990  0.00  0.00    +0.190 C 
BRANCH  81  82
ATOM     82  O   UNL     1       8.967   6.382  27.380  0.00  0.00    -0.392 OA
ATOM     83  H   UNL     1       9.775   6.651  27.860  0.00  0.00    +0.210 HD
ENDBRANCH  81  82
ENDBRANCH  73  81
ENDBRANCH  68  69
ENDBRANCH  58  68
ENDBRANCH  54  55
ENDBRANCH  47  54
BRANCH  48  84
ATOM     84  C   UNL     1       4.900   0.343  30.352  0.00  0.00    +0.189 C 
BRANCH  84  85
ATOM     85  O   UNL     1       5.935   1.000  29.636  0.00  0.00    -0.391 OA
ATOM     86  H   UNL     1       6.695   0.418  29.651  0.00  0.00    +0.210 HD
ENDBRANCH  84  85
ENDBRANCH  48  84
ENDBRANCH   1  44
TORSDOF 34
ENDMDL
MODEL 6
REMARK VINA RESULT:      -5.5      2.055      9.653
REMARK  Name = 
REMARK  35 active torsions:
REMARK  status: ('A' for Active; 'I' for Inactive)
REMARK    1  A    between atoms: C_1  and  C_2
REMARK    2  A    between atoms: C_5  and  O_7
REMARK    3  A    between atoms: O_7  and  C_8
REMARK    4  A    between atoms: C_10  and  C_12
REMARK    5  A    between atoms: C_12  and  O_13
REMARK    6  A    between atoms: C_15  and  O_17
REMARK    7  A    between atoms: O_17  and  C_18
REMARK    8  A    between atoms: C_20  and  C_22
REMARK    9  A    between atoms: C_22  and  O_23
REMARK   10  A    between atoms: C_25  and  O_27
REMARK   11  A    between atoms: C_28  and  O_30
REMARK   12  A    between atoms: C_31  and  O_33
REMARK   13  A    between atoms: C_34  and  O_36
REMARK   14  A    between atoms: C_37  and  O_39
REMARK   15  A    between atoms: C_40  and  O_42
REMARK   16  A    between atoms: C_43  and  O_45
REMARK   17  A    between atoms: C_46  and  N_48
REMARK   18  A    between atoms: N_48  and  C_49
REMARK   19  A    between atoms: C_52  and  C_53
REMARK   20  A    between atoms: C_53  and  O_54
REMARK   21  A    between atoms: C_55  and  O_57
REMARK   22  A    between atoms: O_57  and  C_58
REMARK   23  A    between atoms: C_61  and  C_63
REMARK   24  A    between atoms: C_63  and  O_64
REMARK   25  A    between atoms: C_65  and  O_67
REMARK   26  A    between atoms: O_67  and  C_68
REMARK   27  A    between atoms: C_71  and  C_73
REMARK   28  A    between atoms: C_73  and  O_74
REMARK   29  A    between atoms: C_75  and  O_77
REMARK   30  A    between atoms: C_78  and  O_80
REMARK   31  A    between atoms: C_81  and  O_83
REMARK   32  A    between atoms: C_84  and  O_86
REMARK   33  A    between atoms: C_87  and  O_89
REMARK   34  A    between atoms: C_90  and  O_92
REMARK   35  A    between atoms: C_93  and  O_95
REMARK                            x       y       z     vdW  Elec       q    Type
REMARK                         _______ _______ _______ _____ _____    ______ ____
ROOT
ATOM      1  N   UNL     1       5.485  -4.619  24.543  0.00  0.00    -0.300 NA
ATOM      2  H   UNL     1       5.307  -4.887  23.566  0.00  0.00    +0.123 HD
ENDROOT
BRANCH   1   5
ATOM      3  C   UNL     1       8.368  -5.334  27.000  0.00  0.00    +0.039 C 
ATOM      4  C   UNL     1       7.259  -4.576  26.255  0.00  0.00    +0.138 C 
ATOM      5  C   UNL     1       6.825  -5.201  24.898  0.00  0.00    +0.114 C 
ATOM      6  C   UNL     1       7.943  -4.950  23.838  0.00  0.00    +0.167 C 
ATOM      7  C   UNL     1       8.300  -3.455  23.743  0.00  0.00    +0.200 C 
ATOM      8  C   UNL     1       8.631  -2.932  25.149  0.00  0.00    +0.282 C 
ATOM      9  O   UNL     1       7.590  -3.189  26.089  0.00  0.00    -0.344 OA
BRANCH   7  10
ATOM     10  O   UNL     1       7.215  -2.721  23.163  0.00  0.00    -0.384 OA
ATOM     11  H   UNL     1       7.402  -1.772  23.302  0.00  0.00    +0.210 HD
ENDBRANCH   7  10
BRANCH   6  12
ATOM     12  O   UNL     1       9.074  -5.792  24.110  0.00  0.00    -0.387 OA
ATOM     13  H   UNL     1       9.651  -5.397  24.786  0.00  0.00    +0.210 HD
ENDBRANCH   6  12
BRANCH   8  14
ATOM     14  O   UNL     1       8.896  -1.522  25.098  0.00  0.00    -0.340 OA
BRANCH  14  15
ATOM     15  C   UNL     1       8.270  -0.900  23.952  0.00  0.00    +0.183 C 
ATOM     16  C   UNL     1       7.012  -0.080  24.350  0.00  0.00    +0.179 C 
ATOM     17  C   UNL     1       6.500   0.772  23.206  0.00  0.00    +0.201 C 
ATOM     18  C   UNL     1       7.638   1.582  22.602  0.00  0.00    +0.282 C 
ATOM     19  O   UNL     1       8.701   0.734  22.171  0.00  0.00    -0.341 OA
ATOM     20  C   UNL     1       9.303   0.006  23.251  0.00  0.00    +0.178 C 
BRANCH  17  21
ATOM     21  O   UNL     1       5.419   1.596  23.662  0.00  0.00    -0.384 OA
ATOM     22  H   UNL     1       4.635   1.396  23.123  0.00  0.00    +0.210 HD
ENDBRANCH  17  21
BRANCH  16  23
ATOM     23  O   UNL     1       5.922  -0.939  24.724  0.00  0.00    -0.386 OA
ATOM     24  H   UNL     1       5.213  -0.828  24.066  0.00  0.00    +0.210 HD
ENDBRANCH  16  23
BRANCH  18  25
ATOM     25  O   UNL     1       8.105   2.592  23.493  0.00  0.00    -0.340 OA
BRANCH  25  26
ATOM     26  C   UNL     1       8.346   3.854  22.852  0.00  0.00    +0.183 C 
ATOM     27  C   UNL     1       7.080   4.744  22.800  0.00  0.00    +0.179 C 
ATOM     28  C   UNL     1       7.415   6.145  22.300  0.00  0.00    +0.201 C 
ATOM     29  C   UNL     1       8.590   6.733  23.094  0.00  0.00    +0.279 C 
ATOM     30  O   UNL     1       9.728   5.884  23.026  0.00  0.00    -0.341 OA
ATOM     31  C   UNL     1       9.478   4.585  23.603  0.00  0.00    +0.178 C 
BRANCH  28  32
ATOM     32  O   UNL     1       6.235   6.953  22.378  0.00  0.00    -0.384 OA
ATOM     33  H   UNL     1       6.467   7.797  22.795  0.00  0.00    +0.210 HD
ENDBRANCH  28  32
BRANCH  29  34
ATOM     34  O   UNL     1       8.230   6.952  24.446  0.00  0.00    -0.365 OA
ATOM     35  H   UNL     1       7.562   6.281  24.661  0.00  0.00    +0.213 HD
ENDBRANCH  29  34
BRANCH  27  36
ATOM     36  O   UNL     1       6.077   4.204  21.911  0.00  0.00    -0.386 OA
ATOM     37  H   UNL     1       6.075   4.717  21.085  0.00  0.00    +0.210 HD
ENDBRANCH  27  36
BRANCH  31  38
ATOM     38  C   UNL     1      10.803   3.806  23.551  0.00  0.00    +0.190 C 
BRANCH  38  39
ATOM     39  O   UNL     1      10.846   2.983  22.382  0.00  0.00    -0.392 OA
ATOM     40  H   UNL     1      10.092   3.264  21.829  0.00  0.00    +0.210 HD
ENDBRANCH  38  39
ENDBRANCH  31  38
ENDBRANCH  25  26
ENDBRANCH  18  25
BRANCH  20  41
ATOM     41  C   UNL     1      10.493  -0.776  22.658  0.00  0.00    +0.190 C 
BRANCH  41  42
ATOM     42  O   UNL     1      10.189  -1.517  21.485  0.00  0.00    -0.392 OA
ATOM     43  H   UNL     1      10.352  -0.951  20.710  0.00  0.00    +0.210 HD
ENDBRANCH  41  42
ENDBRANCH  20  41
ENDBRANCH  14  15
ENDBRANCH   8  14
ENDBRANCH   1   5
BRANCH   1  44
ATOM     44  C   UNL     1       4.368  -5.181  25.330  0.00  0.00    +0.109 C 
ATOM     45  C   UNL     1       2.966  -4.647  24.934  0.00  0.00    +0.166 C 
ATOM     46  C   UNL     1       2.550  -3.330  25.597  0.00  0.00    +0.178 C 
ATOM     47  C   UNL     1       2.996  -3.136  27.074  0.00  0.00    +0.180 C 
ATOM     48  C   UNL     1       4.005  -4.143  27.600  0.00  0.00    -0.016 C 
ATOM     49  C   UNL     1       4.624  -5.021  26.795  0.00  0.00    -0.002 C 
BRANCH  45  50
ATOM     50  O   UNL     1       2.866  -4.515  23.497  0.00  0.00    -0.387 OA
ATOM     51  H   UNL     1       2.238  -5.185  23.177  0.00  0.00    +0.210 HD
ENDBRANCH  45  50
BRANCH  46  52
ATOM     52  O   UNL     1       1.100  -3.264  25.531  0.00  0.00    -0.386 OA
ATOM     53  H   UNL     1       0.753  -2.976  26.393  0.00  0.00    +0.210 HD
ENDBRANCH  46  52
BRANCH  47  54
ATOM     54  O   UNL     1       3.519  -1.789  27.284  0.00  0.00    -0.338 OA
BRANCH  54  55
ATOM     55  C   UNL     1       2.753  -1.022  28.223  0.00  0.00    +0.282 C 
ATOM     56  C   UNL     1       1.971   0.134  27.567  0.00  0.00    +0.201 C 
ATOM     57  C   UNL     1       2.813   1.378  27.300  0.00  0.00    +0.179 C 
ATOM     58  C   UNL     1       3.771   1.699  28.462  0.00  0.00    +0.183 C 
ATOM     59  C   UNL     1       4.513   0.419  28.885  0.00  0.00    +0.178 C 
ATOM     60  O   UNL     1       3.565  -0.581  29.304  0.00  0.00    -0.341 OA
BRANCH  57  61
ATOM     61  O   UNL     1       1.893   2.477  27.144  0.00  0.00    -0.386 OA
ATOM     62  H   UNL     1       1.495   2.659  28.014  0.00  0.00    +0.210 HD
ENDBRANCH  57  61
BRANCH  56  63
ATOM     63  O   UNL     1       1.316  -0.280  26.360  0.00  0.00    -0.384 OA
ATOM     64  H   UNL     1       1.963  -0.183  25.634  0.00  0.00    +0.210 HD
ENDBRANCH  56  63
BRANCH  59  65
ATOM     65  C   UNL     1       5.459   0.645  30.069  0.00  0.00    +0.190 C 
BRANCH  65  66
ATOM     66  O   UNL     1       6.806   0.733  29.594  0.00  0.00    -0.392 OA
ATOM     67  H   UNL     1       7.115   1.631  29.817  0.00  0.00    +0.210 HD
ENDBRANCH  65  66
ENDBRANCH  59  65
BRANCH  58  68
ATOM     68  O   UNL     1       4.741   2.708  28.118  0.00  0.00    -0.340 OA
BRANCH  68  69
ATOM     69  C   UNL     1       5.333   2.534  26.816  0.00  0.00    +0.282 C 
ATOM     70  C   UNL     1       6.746   3.146  26.817  0.00  0.00    +0.201 C 
ATOM     71  C   UNL     1       6.648   4.673  26.908  0.00  0.00    +0.179 C 
ATOM     72  C   UNL     1       5.698   5.221  25.829  0.00  0.00    +0.177 C 
ATOM     73  C   UNL     1       4.347   4.505  25.906  0.00  0.00    +0.178 C 
ATOM     74  O   UNL     1       4.530   3.089  25.777  0.00  0.00    -0.341 OA
BRANCH  72  75
ATOM     75  O   UNL     1       5.571   6.636  25.993  0.00  0.00    -0.386 OA
ATOM     76  H   UNL     1       6.244   7.079  25.445  0.00  0.00    +0.210 HD
ENDBRANCH  72  75
BRANCH  71  77
ATOM     77  O   UNL     1       7.943   5.263  26.735  0.00  0.00    -0.386 OA
ATOM     78  H   UNL     1       7.964   6.054  27.308  0.00  0.00    +0.210 HD
ENDBRANCH  71  77
BRANCH  70  79
ATOM     79  O   UNL     1       7.517   2.600  27.899  0.00  0.00    -0.384 OA
ATOM     80  H   UNL     1       7.322   1.647  27.930  0.00  0.00    +0.210 HD
ENDBRANCH  70  79
BRANCH  73  81
ATOM     81  C   UNL     1       3.379   4.957  24.809  0.00  0.00    +0.190 C 
BRANCH  81  82
ATOM     82  O   UNL     1       4.094   5.701  23.818  0.00  0.00    -0.392 OA
ATOM     83  H   UNL     1       4.774   5.092  23.467  0.00  0.00    +0.210 HD
ENDBRANCH  81  82
ENDBRANCH  73  81
ENDBRANCH  68  69
ENDBRANCH  58  68
ENDBRANCH  54  55
ENDBRANCH  47  54
BRANCH  48  84
ATOM     84  C   UNL     1       4.191  -4.113  29.096  0.00  0.00    +0.189 C 
BRANCH  84  85
ATOM     85  O   UNL     1       5.298  -4.896  29.513  0.00  0.00    -0.391 OA
ATOM     86  H   UNL     1       6.072  -4.337  29.452  0.00  0.00    +0.210 HD
ENDBRANCH  84  85
ENDBRANCH  48  84
ENDBRANCH   1  44
TORSDOF 34
ENDMDL
MODEL 7
REMARK VINA RESULT:      -5.4      1.879      4.927
REMARK  Name = 
REMARK  35 active torsions:
REMARK  status: ('A' for Active; 'I' for Inactive)
REMARK    1  A    between atoms: C_1  and  C_2
REMARK    2  A    between atoms: C_5  and  O_7
REMARK    3  A    between atoms: O_7  and  C_8
REMARK    4  A    between atoms: C_10  and  C_12
REMARK    5  A    between atoms: C_12  and  O_13
REMARK    6  A    between atoms: C_15  and  O_17
REMARK    7  A    between atoms: O_17  and  C_18
REMARK    8  A    between atoms: C_20  and  C_22
REMARK    9  A    between atoms: C_22  and  O_23
REMARK   10  A    between atoms: C_25  and  O_27
REMARK   11  A    between atoms: C_28  and  O_30
REMARK   12  A    between atoms: C_31  and  O_33
REMARK   13  A    between atoms: C_34  and  O_36
REMARK   14  A    between atoms: C_37  and  O_39
REMARK   15  A    between atoms: C_40  and  O_42
REMARK   16  A    between atoms: C_43  and  O_45
REMARK   17  A    between atoms: C_46  and  N_48
REMARK   18  A    between atoms: N_48  and  C_49
REMARK   19  A    between atoms: C_52  and  C_53
REMARK   20  A    between atoms: C_53  and  O_54
REMARK   21  A    between atoms: C_55  and  O_57
REMARK   22  A    between atoms: O_57  and  C_58
REMARK   23  A    between atoms: C_61  and  C_63
REMARK   24  A    between atoms: C_63  and  O_64
REMARK   25  A    between atoms: C_65  and  O_67
REMARK   26  A    between atoms: O_67  and  C_68
REMARK   27  A    between atoms: C_71  and  C_73
REMARK   28  A    between atoms: C_73  and  O_74
REMARK   29  A    between atoms: C_75  and  O_77
REMARK   30  A    between atoms: C_78  and  O_80
REMARK   31  A    between atoms: C_81  and  O_83
REMARK   32  A    between atoms: C_84  and  O_86
REMARK   33  A    between atoms: C_87  and  O_89
REMARK   34  A    between atoms: C_90  and  O_92
REMARK   35  A    between atoms: C_93  and  O_95
REMARK                            x       y       z     vdW  Elec       q    Type
REMARK                         _______ _______ _______ _____ _____    ______ ____
ROOT
ATOM      1  N   UNL     1       2.700   1.748  29.977  0.00  0.00    -0.300 NA
ATOM      2  H   UNL     1       3.577   1.372  30.362  0.00  0.00    +0.123 HD
ENDROOT
BRANCH   1   5
ATOM      3  C   UNL     1       1.022  -0.265  27.151  0.00  0.00    +0.039 C 
ATOM      4  C   UNL     1       1.570   0.093  28.539  0.00  0.00    +0.138 C 
ATOM      5  C   UNL     1       2.616   1.245  28.562  0.00  0.00    +0.114 C 
ATOM      6  C   UNL     1       3.965   0.723  27.978  0.00  0.00    +0.167 C 
ATOM      7  C   UNL     1       4.435  -0.552  28.704  0.00  0.00    +0.200 C 
ATOM      8  C   UNL     1       3.296  -1.582  28.686  0.00  0.00    +0.282 C 
ATOM      9  O   UNL     1       2.080  -1.064  29.220  0.00  0.00    -0.344 OA
BRANCH   7  10
ATOM     10  O   UNL     1       4.829  -0.243  30.046  0.00  0.00    -0.384 OA
ATOM     11  H   UNL     1       4.012  -0.159  30.574  0.00  0.00    +0.210 HD
ENDBRANCH   7  10
BRANCH   6  12
ATOM     12  O   UNL     1       3.854   0.563  26.556  0.00  0.00    -0.387 OA
ATOM     13  H   UNL     1       4.717   0.675  26.122  0.00  0.00    +0.210 HD
ENDBRANCH   6  12
BRANCH   8  14
ATOM     14  O   UNL     1       3.683  -2.753  29.421  0.00  0.00    -0.340 OA
BRANCH  14  15
ATOM     15  C   UNL     1       3.407  -3.966  28.683  0.00  0.00    +0.183 C 
ATOM     16  C   UNL     1       2.737  -3.672  27.313  0.00  0.00    +0.179 C 
ATOM     17  C   UNL     1       2.674  -4.904  26.431  0.00  0.00    +0.201 C 
ATOM     18  C   UNL     1       4.041  -5.568  26.357  0.00  0.00    +0.282 C 
ATOM     19  O   UNL     1       4.527  -5.895  27.657  0.00  0.00    -0.341 OA
ATOM     20  C   UNL     1       4.727  -4.737  28.482  0.00  0.00    +0.178 C 
BRANCH  17  21
ATOM     21  O   UNL     1       2.162  -4.550  25.140  0.00  0.00    -0.384 OA
ATOM     22  H   UNL     1       2.851  -4.052  24.666  0.00  0.00    +0.210 HD
ENDBRANCH  17  21
BRANCH  16  23
ATOM     23  O   UNL     1       1.379  -3.230  27.475  0.00  0.00    -0.386 OA
ATOM     24  H   UNL     1       0.927  -3.862  28.063  0.00  0.00    +0.210 HD
ENDBRANCH  16  23
BRANCH  18  25
ATOM     25  O   UNL     1       4.980  -4.776  25.633  0.00  0.00    -0.340 OA
BRANCH  25  26
ATOM     26  C   UNL     1       5.783  -5.535  24.715  0.00  0.00    +0.183 C 
ATOM     27  C   UNL     1       5.126  -5.662  23.319  0.00  0.00    +0.179 C 
ATOM     28  C   UNL     1       6.086  -6.294  22.317  0.00  0.00    +0.201 C 
ATOM     29  C   UNL     1       7.438  -5.567  22.335  0.00  0.00    +0.279 C 
ATOM     30  O   UNL     1       7.998  -5.562  23.642  0.00  0.00    -0.341 OA
ATOM     31  C   UNL     1       7.166  -4.864  24.593  0.00  0.00    +0.178 C 
BRANCH  28  32
ATOM     32  O   UNL     1       5.470  -6.284  21.024  0.00  0.00    -0.384 OA
ATOM     33  H   UNL     1       4.559  -5.964  21.120  0.00  0.00    +0.210 HD
ENDBRANCH  28  32
BRANCH  29  34
ATOM     34  O   UNL     1       7.307  -4.239  21.860  0.00  0.00    -0.365 OA
ATOM     35  H   UNL     1       6.358  -4.095  21.716  0.00  0.00    +0.213 HD
ENDBRANCH  29  34
BRANCH  27  36
ATOM     36  O   UNL     1       3.941  -6.489  23.352  0.00  0.00    -0.386 OA
ATOM     37  H   UNL     1       3.539  -6.430  24.235  0.00  0.00    +0.210 HD
ENDBRANCH  27  36
BRANCH  31  38
ATOM     38  C   UNL     1       7.923  -4.851  25.931  0.00  0.00    +0.190 C 
BRANCH  38  39
ATOM     39  O   UNL     1       7.522  -5.964  26.735  0.00  0.00    -0.392 OA
ATOM     40  H   UNL     1       6.578  -6.110  26.537  0.00  0.00    +0.210 HD
ENDBRANCH  38  39
ENDBRANCH  31  38
ENDBRANCH  25  26
ENDBRANCH  18  25
BRANCH  20  41
ATOM     41  C   UNL     1       5.349  -5.230  29.804  0.00  0.00    +0.190 C 
BRANCH  41  42
ATOM     42  O   UNL     1       6.489  -6.064  29.649  0.00  0.00    -0.392 OA
ATOM     43  H   UNL     1       6.277  -6.760  29.002  0.00  0.00    +0.210 HD
ENDBRANCH  41  42
ENDBRANCH  20  41
ENDBRANCH  14  15
ENDBRANCH   8  14
ENDBRANCH   1   5
BRANCH   1  44
ATOM     44  C   UNL     1       2.807   3.218  30.079  0.00  0.00    +0.109 C 
ATOM     45  C   UNL     1       1.933   4.001  29.064  0.00  0.00    +0.166 C 
ATOM     46  C   UNL     1       2.561   4.217  27.683  0.00  0.00    +0.178 C 
ATOM     47  C   UNL     1       4.092   4.485  27.661  0.00  0.00    +0.180 C 
ATOM     48  C   UNL     1       4.828   4.241  28.968  0.00  0.00    -0.016 C 
ATOM     49  C   UNL     1       4.239   3.645  30.017  0.00  0.00    -0.002 C 
BRANCH  45  50
ATOM     50  O   UNL     1       0.645   3.362  28.912  0.00  0.00    -0.387 OA
ATOM     51  H   UNL     1       0.733   2.665  28.240  0.00  0.00    +0.210 HD
ENDBRANCH  45  50
BRANCH  46  52
ATOM     52  O   UNL     1       1.878   5.350  27.083  0.00  0.00    -0.386 OA
ATOM     53  H   UNL     1       2.533   6.025  26.833  0.00  0.00    +0.210 HD
ENDBRANCH  46  52
BRANCH  47  54
ATOM     54  O   UNL     1       4.737   3.710  26.604  0.00  0.00    -0.338 OA
BRANCH  54  55
ATOM     55  C   UNL     1       4.804   4.404  25.350  0.00  0.00    +0.282 C 
ATOM     56  C   UNL     1       4.371   3.536  24.153  0.00  0.00    +0.201 C 
ATOM     57  C   UNL     1       5.459   2.596  23.643  0.00  0.00    +0.179 C 
ATOM     58  C   UNL     1       6.845   3.267  23.607  0.00  0.00    +0.183 C 
ATOM     59  C   UNL     1       7.101   3.990  24.941  0.00  0.00    +0.178 C 
ATOM     60  O   UNL     1       6.087   4.989  25.159  0.00  0.00    -0.341 OA
BRANCH  57  61
ATOM     61  O   UNL     1       5.092   2.223  22.299  0.00  0.00    -0.386 OA
ATOM     62  H   UNL     1       5.276   1.272  22.193  0.00  0.00    +0.210 HD
ENDBRANCH  57  61
BRANCH  56  63
ATOM     63  O   UNL     1       3.178   2.792  24.434  0.00  0.00    -0.384 OA
ATOM     64  H   UNL     1       3.368   1.855  24.231  0.00  0.00    +0.210 HD
ENDBRANCH  56  63
BRANCH  59  65
ATOM     65  C   UNL     1       8.446   4.721  24.971  0.00  0.00    +0.190 C 
BRANCH  65  66
ATOM     66  O   UNL     1       8.979   4.797  23.645  0.00  0.00    -0.392 OA
ATOM     67  H   UNL     1       8.576   5.586  23.235  0.00  0.00    +0.210 HD
ENDBRANCH  65  66
ENDBRANCH  59  65
BRANCH  58  68
ATOM     68  O   UNL     1       7.910   2.325  23.376  0.00  0.00    -0.340 OA
BRANCH  68  69
ATOM     69  C   UNL     1       8.237   1.513  24.521  0.00  0.00    +0.282 C 
ATOM     70  C   UNL     1       9.684   1.005  24.384  0.00  0.00    +0.201 C 
ATOM     71  C   UNL     1       9.767  -0.021  23.248  0.00  0.00    +0.179 C 
ATOM     72  C   UNL     1       8.701  -1.116  23.428  0.00  0.00    +0.177 C 
ATOM     73  C   UNL     1       7.318  -0.482  23.594  0.00  0.00    +0.178 C 
ATOM     74  O   UNL     1       7.324   0.433  24.697  0.00  0.00    -0.341 OA
BRANCH  72  75
ATOM     75  O   UNL     1       8.757  -2.010  22.312  0.00  0.00    -0.386 OA
ATOM     76  H   UNL     1       8.150  -2.755  22.473  0.00  0.00    +0.210 HD
ENDBRANCH  72  75
BRANCH  71  77
ATOM     77  O   UNL     1      11.064  -0.629  23.224  0.00  0.00    -0.386 OA
ATOM     78  H   UNL     1      11.229  -0.889  22.296  0.00  0.00    +0.210 HD
ENDBRANCH  71  77
BRANCH  70  79
ATOM     79  O   UNL     1      10.575   2.110  24.164  0.00  0.00    -0.384 OA
ATOM     80  H   UNL     1      10.135   2.901  24.523  0.00  0.00    +0.210 HD
ENDBRANCH  70  79
BRANCH  73  81
ATOM     81  C   UNL     1       6.222  -1.520  23.849  0.00  0.00    +0.190 C 
BRANCH  81  82
ATOM     82  O   UNL     1       5.822  -2.107  22.607  0.00  0.00    -0.392 OA
ATOM     83  H   UNL     1       5.474  -1.372  22.065  0.00  0.00    +0.210 HD
ENDBRANCH  81  82
ENDBRANCH  73  81
ENDBRANCH  68  69
ENDBRANCH  58  68
ENDBRANCH  54  55
ENDBRANCH  47  54
BRANCH  48  84
ATOM     84  C   UNL     1       6.234   4.783  29.001  0.00  0.00    +0.189 C 
BRANCH  84  85
ATOM     85  O   UNL     1       7.167   3.885  28.420  0.00  0.00    -0.391 OA
ATOM     86  H   UNL     1       7.333   4.195  27.530  0.00  0.00    +0.210 HD
ENDBRANCH  84  85
ENDBRANCH  48  84
ENDBRANCH   1  44
TORSDOF 34
ENDMDL
MODEL 8
REMARK VINA RESULT:      -5.4      2.180      6.649
REMARK  Name = 
REMARK  35 active torsions:
REMARK  status: ('A' for Active; 'I' for Inactive)
REMARK    1  A    between atoms: C_1  and  C_2
REMARK    2  A    between atoms: C_5  and  O_7
REMARK    3  A    between atoms: O_7  and  C_8
REMARK    4  A    between atoms: C_10  and  C_12
REMARK    5  A    between atoms: C_12  and  O_13
REMARK    6  A    between atoms: C_15  and  O_17
REMARK    7  A    between atoms: O_17  and  C_18
REMARK    8  A    between atoms: C_20  and  C_22
REMARK    9  A    between atoms: C_22  and  O_23
REMARK   10  A    between atoms: C_25  and  O_27
REMARK   11  A    between atoms: C_28  and  O_30
REMARK   12  A    between atoms: C_31  and  O_33
REMARK   13  A    between atoms: C_34  and  O_36
REMARK   14  A    between atoms: C_37  and  O_39
REMARK   15  A    between atoms: C_40  and  O_42
REMARK   16  A    between atoms: C_43  and  O_45
REMARK   17  A    between atoms: C_46  and  N_48
REMARK   18  A    between atoms: N_48  and  C_49
REMARK   19  A    between atoms: C_52  and  C_53
REMARK   20  A    between atoms: C_53  and  O_54
REMARK   21  A    between atoms: C_55  and  O_57
REMARK   22  A    between atoms: O_57  and  C_58
REMARK   23  A    between atoms: C_61  and  C_63
REMARK   24  A    between atoms: C_63  and  O_64
REMARK   25  A    between atoms: C_65  and  O_67
REMARK   26  A    between atoms: O_67  and  C_68
REMARK   27  A    between atoms: C_71  and  C_73
REMARK   28  A    between atoms: C_73  and  O_74
REMARK   29  A    between atoms: C_75  and  O_77
REMARK   30  A    between atoms: C_78  and  O_80
REMARK   31  A    between atoms: C_81  and  O_83
REMARK   32  A    between atoms: C_84  and  O_86
REMARK   33  A    between atoms: C_87  and  O_89
REMARK   34  A    between atoms: C_90  and  O_92
REMARK   35  A    between atoms: C_93  and  O_95
REMARK                            x       y       z     vdW  Elec       q    Type
REMARK                         _______ _______ _______ _____ _____    ______ ____
ROOT
ATOM      1  N   UNL     1       9.950   1.617  23.406  0.00  0.00    -0.300 NA
ATOM      2  H   UNL     1      10.900   1.781  23.764  0.00  0.00    +0.123 HD
ENDROOT
BRANCH   1   5
ATOM      3  C   UNL     1       8.531  -0.820  20.777  0.00  0.00    +0.039 C 
ATOM      4  C   UNL     1       8.605   0.088  22.013  0.00  0.00    +0.138 C 
ATOM      5  C   UNL     1      10.043   0.408  22.515  0.00  0.00    +0.114 C 
ATOM      6  C   UNL     1      10.638  -0.860  23.203  0.00  0.00    +0.167 C 
ATOM      7  C   UNL     1       9.702  -1.392  24.305  0.00  0.00    +0.200 C 
ATOM      8  C   UNL     1       8.300  -1.592  23.713  0.00  0.00    +0.282 C 
ATOM      9  O   UNL     1       7.796  -0.414  23.086  0.00  0.00    -0.344 OA
BRANCH   7  10
ATOM     10  O   UNL     1       9.670  -0.482  25.411  0.00  0.00    -0.384 OA
ATOM     11  H   UNL     1       9.002  -0.817  26.040  0.00  0.00    +0.210 HD
ENDBRANCH   7  10
BRANCH   6  12
ATOM     12  O   UNL     1      10.971  -1.844  22.212  0.00  0.00    -0.387 OA
ATOM     13  H   UNL     1      11.627  -1.500  21.582  0.00  0.00    +0.210 HD
ENDBRANCH   6  12
BRANCH   8  14
ATOM     14  O   UNL     1       7.390  -2.018  24.739  0.00  0.00    -0.340 OA
BRANCH  14  15
ATOM     15  C   UNL     1       7.257  -3.457  24.774  0.00  0.00    +0.183 C 
ATOM     16  C   UNL     1       7.665  -4.045  26.152  0.00  0.00    +0.179 C 
ATOM     17  C   UNL     1       7.294  -5.509  26.283  0.00  0.00    +0.201 C 
ATOM     18  C   UNL     1       5.838  -5.720  25.891  0.00  0.00    +0.282 C 
ATOM     19  O   UNL     1       5.585  -5.244  24.571  0.00  0.00    -0.341 OA
ATOM     20  C   UNL     1       5.799  -3.830  24.440  0.00  0.00    +0.178 C 
BRANCH  17  21
ATOM     21  O   UNL     1       7.579  -5.966  27.611  0.00  0.00    -0.384 OA
ATOM     22  H   UNL     1       6.959  -5.531  28.222  0.00  0.00    +0.210 HD
ENDBRANCH  17  21
BRANCH  16  23
ATOM     23  O   UNL     1       9.087  -3.977  26.354  0.00  0.00    -0.386 OA
ATOM     24  H   UNL     1       9.401  -4.872  26.574  0.00  0.00    +0.210 HD
ENDBRANCH  16  23
BRANCH  18  25
ATOM     25  O   UNL     1       4.943  -5.138  26.836  0.00  0.00    -0.340 OA
BRANCH  25  26
ATOM     26  C   UNL     1       3.893  -6.026  27.251  0.00  0.00    +0.183 C 
ATOM     27  C   UNL     1       4.150  -6.635  28.651  0.00  0.00    +0.179 C 
ATOM     28  C   UNL     1       2.932  -7.406  29.146  0.00  0.00    +0.201 C 
ATOM     29  C   UNL     1       1.667  -6.543  29.036  0.00  0.00    +0.279 C 
ATOM     30  O   UNL     1       1.473  -6.087  27.703  0.00  0.00    -0.341 OA
ATOM     31  C   UNL     1       2.558  -5.252  27.246  0.00  0.00    +0.178 C 
BRANCH  28  32
ATOM     32  O   UNL     1       3.184  -7.851  30.484  0.00  0.00    -0.384 OA
ATOM     33  H   UNL     1       2.783  -7.218  31.099  0.00  0.00    +0.210 HD
ENDBRANCH  28  32
BRANCH  29  34
ATOM     34  O   UNL     1       1.729  -5.438  29.921  0.00  0.00    -0.365 OA
ATOM     35  H   UNL     1       2.028  -5.791  30.774  0.00  0.00    +0.213 HD
ENDBRANCH  29  34
BRANCH  27  36
ATOM     36  O   UNL     1       5.263  -7.557  28.642  0.00  0.00    -0.386 OA
ATOM     37  H   UNL     1       5.757  -7.465  29.474  0.00  0.00    +0.210 HD
ENDBRANCH  27  36
BRANCH  31  38
ATOM     38  C   UNL     1       2.183  -4.755  25.840  0.00  0.00    +0.190 C 
BRANCH  38  39
ATOM     39  O   UNL     1       2.653  -5.675  24.850  0.00  0.00    -0.392 OA
ATOM     40  H   UNL     1       3.618  -5.741  24.984  0.00  0.00    +0.210 HD
ENDBRANCH  38  39
ENDBRANCH  31  38
ENDBRANCH  25  26
ENDBRANCH  18  25
BRANCH  20  41
ATOM     41  C   UNL     1       5.387  -3.445  23.005  0.00  0.00    +0.190 C 
BRANCH  41  42
ATOM     42  O   UNL     1       5.273  -4.539  22.106  0.00  0.00    -0.392 OA
ATOM     43  H   UNL     1       4.329  -4.698  21.929  0.00  0.00    +0.210 HD
ENDBRANCH  41  42
ENDBRANCH  20  41
ENDBRANCH  14  15
ENDBRANCH   8  14
ENDBRANCH   1   5
BRANCH   1  44
ATOM     44  C   UNL     1       9.565   2.851  22.691  0.00  0.00    +0.109 C 
ATOM     45  C   UNL     1       9.935   4.165  23.426  0.00  0.00    +0.166 C 
ATOM     46  C   UNL     1       8.918   4.649  24.465  0.00  0.00    +0.178 C 
ATOM     47  C   UNL     1       7.421   4.427  24.113  0.00  0.00    +0.180 C 
ATOM     48  C   UNL     1       7.146   3.530  22.917  0.00  0.00    -0.016 C 
ATOM     49  C   UNL     1       8.115   2.814  22.325  0.00  0.00    -0.002 C 
BRANCH  45  50
ATOM     50  O   UNL     1      11.236   4.045  24.046  0.00  0.00    -0.387 OA
ATOM     51  H   UNL     1      11.408   4.862  24.544  0.00  0.00    +0.210 HD
ENDBRANCH  45  50
BRANCH  46  52
ATOM     52  O   UNL     1       9.151   6.071  24.653  0.00  0.00    -0.386 OA
ATOM     53  H   UNL     1       8.661   6.568  23.975  0.00  0.00    +0.210 HD
ENDBRANCH  46  52
BRANCH  47  54
ATOM     54  O   UNL     1       6.688   3.914  25.267  0.00  0.00    -0.338 OA
BRANCH  54  55
ATOM     55  C   UNL     1       7.542   3.413  26.306  0.00  0.00    +0.282 C 
ATOM     56  C   UNL     1       7.488   1.879  26.448  0.00  0.00    +0.201 C 
ATOM     57  C   UNL     1       6.290   1.372  27.245  0.00  0.00    +0.179 C 
ATOM     58  C   UNL     1       6.001   2.241  28.484  0.00  0.00    +0.183 C 
ATOM     59  C   UNL     1       6.008   3.726  28.084  0.00  0.00    +0.178 C 
ATOM     60  O   UNL     1       7.293   4.080  27.537  0.00  0.00    -0.341 OA
BRANCH  57  61
ATOM     61  O   UNL     1       6.616   0.038  27.684  0.00  0.00    -0.386 OA
ATOM     62  H   UNL     1       7.451   0.084  28.184  0.00  0.00    +0.210 HD
ENDBRANCH  57  61
BRANCH  56  63
ATOM     63  O   UNL     1       7.539   1.221  25.175  0.00  0.00    -0.384 OA
ATOM     64  H   UNL     1       8.468   0.956  25.024  0.00  0.00    +0.210 HD
ENDBRANCH  56  63
BRANCH  59  65
ATOM     65  C   UNL     1       5.768   4.662  29.272  0.00  0.00    +0.190 C 
BRANCH  65  66
ATOM     66  O   UNL     1       5.395   3.892  30.419  0.00  0.00    -0.392 OA
ATOM     67  H   UNL     1       5.701   2.982  30.247  0.00  0.00    +0.210 HD
ENDBRANCH  65  66
ENDBRANCH  59  65
BRANCH  58  68
ATOM     68  O   UNL     1       4.733   1.929  29.094  0.00  0.00    -0.340 OA
BRANCH  68  69
ATOM     69  C   UNL     1       3.656   1.748  28.154  0.00  0.00    +0.282 C 
ATOM     70  C   UNL     1       2.337   2.209  28.802  0.00  0.00    +0.201 C 
ATOM     71  C   UNL     1       1.939   1.233  29.915  0.00  0.00    +0.179 C 
ATOM     72  C   UNL     1       1.942  -0.215  29.393  0.00  0.00    +0.177 C 
ATOM     73  C   UNL     1       3.288  -0.533  28.738  0.00  0.00    +0.178 C 
ATOM     74  O   UNL     1       3.562   0.404  27.689  0.00  0.00    -0.341 OA
BRANCH  72  75
ATOM     75  O   UNL     1       1.642  -1.101  30.475  0.00  0.00    -0.386 OA
ATOM     76  H   UNL     1       2.156  -1.921  30.364  0.00  0.00    +0.210 HD
ENDBRANCH  72  75
BRANCH  71  77
ATOM     77  O   UNL     1       0.630   1.551  30.406  0.00  0.00    -0.386 OA
ATOM     78  H   UNL     1       0.004   1.317  29.694  0.00  0.00    +0.210 HD
ENDBRANCH  71  77
BRANCH  70  79
ATOM     79  O   UNL     1       2.475   3.549  29.299  0.00  0.00    -0.384 OA
ATOM     80  H   UNL     1       3.426   3.698  29.446  0.00  0.00    +0.210 HD
ENDBRANCH  70  79
BRANCH  73  81
ATOM     81  C   UNL     1       3.329  -1.941  28.134  0.00  0.00    +0.190 C 
BRANCH  81  82
ATOM     82  O   UNL     1       4.653  -2.222  27.670  0.00  0.00    -0.392 OA
ATOM     83  H   UNL     1       4.554  -2.514  26.743  0.00  0.00    +0.210 HD
ENDBRANCH  81  82
ENDBRANCH  73  81
ENDBRANCH  68  69
ENDBRANCH  58  68
ENDBRANCH  54  55
ENDBRANCH  47  54
BRANCH  48  84
ATOM     84  C   UNL     1       5.722   3.571  22.424  0.00  0.00    +0.189 C 
BRANCH  84  85
ATOM     85  O   UNL     1       4.933   2.530  22.980  0.00  0.00    -0.391 OA
ATOM     86  H   UNL     1       5.258   1.709  22.612  0.00  0.00    +0.210 HD
ENDBRANCH  84  85
ENDBRANCH  48  84
ENDBRANCH   1  44
TORSDOF 34
ENDMDL
MODEL 9
REMARK VINA RESULT:      -5.4      2.164      6.629
REMARK  Name = 
REMARK  35 active torsions:
REMARK  status: ('A' for Active; 'I' for Inactive)
REMARK    1  A    between atoms: C_1  and  C_2
REMARK    2  A    between atoms: C_5  and  O_7
REMARK    3  A    between atoms: O_7  and  C_8
REMARK    4  A    between atoms: C_10  and  C_12
REMARK    5  A    between atoms: C_12  and  O_13
REMARK    6  A    between atoms: C_15  and  O_17
REMARK    7  A    between atoms: O_17  and  C_18
REMARK    8  A    between atoms: C_20  and  C_22
REMARK    9  A    between atoms: C_22  and  O_23
REMARK   10  A    between atoms: C_25  and  O_27
REMARK   11  A    between atoms: C_28  and  O_30
REMARK   12  A    between atoms: C_31  and  O_33
REMARK   13  A    between atoms: C_34  and  O_36
REMARK   14  A    between atoms: C_37  and  O_39
REMARK   15  A    between atoms: C_40  and  O_42
REMARK   16  A    between atoms: C_43  and  O_45
REMARK   17  A    between atoms: C_46  and  N_48
REMARK   18  A    between atoms: N_48  and  C_49
REMARK   19  A    between atoms: C_52  and  C_53
REMARK   20  A    between atoms: C_53  and  O_54
REMARK   21  A    between atoms: C_55  and  O_57
REMARK   22  A    between atoms: O_57  and  C_58
REMARK   23  A    between atoms: C_61  and  C_63
REMARK   24  A    between atoms: C_63  and  O_64
REMARK   25  A    between atoms: C_65  and  O_67
REMARK   26  A    between atoms: O_67  and  C_68
REMARK   27  A    between atoms: C_71  and  C_73
REMARK   28  A    between atoms: C_73  and  O_74
REMARK   29  A    between atoms: C_75  and  O_77
REMARK   30  A    between atoms: C_78  and  O_80
REMARK   31  A    between atoms: C_81  and  O_83
REMARK   32  A    between atoms: C_84  and  O_86
REMARK   33  A    between atoms: C_87  and  O_89
REMARK   34  A    between atoms: C_90  and  O_92
REMARK   35  A    between atoms: C_93  and  O_95
REMARK                            x       y       z     vdW  Elec       q    Type
REMARK                         _______ _______ _______ _____ _____    ______ ____
ROOT
ATOM      1  N   UNL     1       9.845   1.566  23.476  0.00  0.00    -0.300 NA
ATOM      2  H   UNL     1      10.764   1.746  23.901  0.00  0.00    +0.123 HD
ENDROOT
BRANCH   1   5
ATOM      3  C   UNL     1       8.603  -0.992  20.874  0.00  0.00    +0.039 C 
ATOM      4  C   UNL     1       8.606  -0.053  22.089  0.00  0.00    +0.138 C 
ATOM      5  C   UNL     1      10.015   0.344  22.616  0.00  0.00    +0.114 C 
ATOM      6  C   UNL     1      10.652  -0.879  23.347  0.00  0.00    +0.167 C 
ATOM      7  C   UNL     1       9.715  -1.429  24.439  0.00  0.00    +0.200 C 
ATOM      8  C   UNL     1       8.338  -1.709  23.820  0.00  0.00    +0.282 C 
ATOM      9  O   UNL     1       7.795  -0.569  23.156  0.00  0.00    -0.344 OA
BRANCH   7  10
ATOM     10  O   UNL     1       9.615  -0.498  25.523  0.00  0.00    -0.384 OA
ATOM     11  H   UNL     1      10.241  -0.790  26.213  0.00  0.00    +0.210 HD
ENDBRANCH   7  10
BRANCH   6  12
ATOM     12  O   UNL     1      11.053  -1.869  22.387  0.00  0.00    -0.387 OA
ATOM     13  H   UNL     1      10.596  -2.713  22.541  0.00  0.00    +0.210 HD
ENDBRANCH   6  12
BRANCH   8  14
ATOM     14  O   UNL     1       7.425  -2.153  24.835  0.00  0.00    -0.340 OA
BRANCH  14  15
ATOM     15  C   UNL     1       7.205  -3.581  24.770  0.00  0.00    +0.183 C 
ATOM     16  C   UNL     1       7.007  -4.204  26.179  0.00  0.00    +0.179 C 
ATOM     17  C   UNL     1       6.530  -5.641  26.107  0.00  0.00    +0.201 C 
ATOM     18  C   UNL     1       5.333  -5.752  25.174  0.00  0.00    +0.282 C 
ATOM     19  O   UNL     1       5.643  -5.251  23.876  0.00  0.00    -0.341 OA
ATOM     20  C   UNL     1       5.973  -3.854  23.883  0.00  0.00    +0.178 C 
BRANCH  17  21
ATOM     21  O   UNL     1       6.247  -6.124  27.427  0.00  0.00    -0.384 OA
ATOM     22  H   UNL     1       5.288  -6.058  27.576  0.00  0.00    +0.210 HD
ENDBRANCH  17  21
BRANCH  16  23
ATOM     23  O   UNL     1       8.239  -4.232  26.920  0.00  0.00    -0.386 OA
ATOM     24  H   UNL     1       8.026  -4.095  27.860  0.00  0.00    +0.210 HD
ENDBRANCH  16  23
BRANCH  18  25
ATOM     25  O   UNL     1       4.176  -5.119  25.714  0.00  0.00    -0.340 OA
BRANCH  25  26
ATOM     26  C   UNL     1       2.954  -5.817  25.427  0.00  0.00    +0.183 C 
ATOM     27  C   UNL     1       2.967  -6.483  24.030  0.00  0.00    +0.179 C 
ATOM     28  C   UNL     1       1.748  -7.379  23.839  0.00  0.00    +0.201 C 
ATOM     29  C   UNL     1       1.601  -8.348  25.019  0.00  0.00    +0.279 C 
ATOM     30  O   UNL     1       1.525  -7.644  26.252  0.00  0.00    -0.341 OA
ATOM     31  C   UNL     1       2.720  -6.879  26.521  0.00  0.00    +0.178 C 
BRANCH  28  32
ATOM     32  O   UNL     1       1.868  -8.053  22.580  0.00  0.00    -0.384 OA
ATOM     33  H   UNL     1       1.651  -8.989  22.711  0.00  0.00    +0.210 HD
ENDBRANCH  28  32
BRANCH  29  34
ATOM     34  O   UNL     1       2.674  -9.272  25.054  0.00  0.00    -0.365 OA
ATOM     35  H   UNL     1       3.026  -9.313  24.150  0.00  0.00    +0.213 HD
ENDBRANCH  29  34
BRANCH  27  36
ATOM     36  O   UNL     1       2.949  -5.507  22.965  0.00  0.00    -0.386 OA
ATOM     37  H   UNL     1       3.284  -4.660  23.305  0.00  0.00    +0.210 HD
ENDBRANCH  27  36
BRANCH  31  38
ATOM     38  C   UNL     1       2.548  -6.248  27.912  0.00  0.00    +0.190 C 
BRANCH  38  39
ATOM     39  O   UNL     1       2.284  -4.848  27.790  0.00  0.00    -0.392 OA
ATOM     40  H   UNL     1       1.814  -4.592  28.606  0.00  0.00    +0.210 HD
ENDBRANCH  38  39
ENDBRANCH  31  38
ENDBRANCH  25  26
ENDBRANCH  18  25
BRANCH  20  41
ATOM     41  C   UNL     1       6.178  -3.433  22.414  0.00  0.00    +0.190 C 
BRANCH  41  42
ATOM     42  O   UNL     1       5.302  -4.062  21.489  0.00  0.00    -0.392 OA
ATOM     43  H   UNL     1       4.553  -4.443  21.981  0.00  0.00    +0.210 HD
ENDBRANCH  41  42
ENDBRANCH  20  41
ENDBRANCH  14  15
ENDBRANCH   8  14
ENDBRANCH   1   5
BRANCH   1  44
ATOM     44  C   UNL     1       9.502   2.784  22.714  0.00  0.00    +0.109 C 
ATOM     45  C   UNL     1       9.811   4.115  23.448  0.00  0.00    +0.166 C 
ATOM     46  C   UNL     1       8.721   4.609  24.405  0.00  0.00    +0.178 C 
ATOM     47  C   UNL     1       7.253   4.368  23.953  0.00  0.00    +0.180 C 
ATOM     48  C   UNL     1       7.069   3.447  22.758  0.00  0.00    -0.016 C 
ATOM     49  C   UNL     1       8.081   2.729  22.248  0.00  0.00    -0.002 C 
BRANCH  45  50
ATOM     50  O   UNL     1      11.067   4.016  24.159  0.00  0.00    -0.387 OA
ATOM     51  H   UNL     1      11.733   4.522  23.663  0.00  0.00    +0.210 HD
ENDBRANCH  45  50
BRANCH  46  52
ATOM     52  O   UNL     1       8.930   6.036  24.582  0.00  0.00    -0.386 OA
ATOM     53  H   UNL     1       8.634   6.505  23.782  0.00  0.00    +0.210 HD
ENDBRANCH  46  52
BRANCH  47  54
ATOM     54  O   UNL     1       6.445   3.870  25.063  0.00  0.00    -0.338 OA
BRANCH  54  55
ATOM     55  C   UNL     1       7.210   3.598  26.246  0.00  0.00    +0.282 C 
ATOM     56  C   UNL     1       7.418   2.092  26.500  0.00  0.00    +0.201 C 
ATOM     57  C   UNL     1       6.227   1.406  27.163  0.00  0.00    +0.179 C 
ATOM     58  C   UNL     1       5.600   2.265  28.277  0.00  0.00    +0.183 C 
ATOM     59  C   UNL     1       5.395   3.701  27.765  0.00  0.00    +0.178 C 
ATOM     60  O   UNL     1       6.660   4.268  27.374  0.00  0.00    -0.341 OA
BRANCH  57  61
ATOM     61  O   UNL     1       6.723   0.184  27.747  0.00  0.00    -0.386 OA
ATOM     62  H   UNL     1       7.672   0.117  27.538  0.00  0.00    +0.210 HD
ENDBRANCH  57  61
BRANCH  56  63
ATOM     63  O   UNL     1       7.780   1.391  25.303  0.00  0.00    -0.384 OA
ATOM     64  H   UNL     1       6.960   1.260  24.787  0.00  0.00    +0.210 HD
ENDBRANCH  56  63
BRANCH  59  65
ATOM     65  C   UNL     1       4.811   4.633  28.831  0.00  0.00    +0.190 C 
BRANCH  65  66
ATOM     66  O   UNL     1       3.411   4.812  28.594  0.00  0.00    -0.392 OA
ATOM     67  H   UNL     1       3.041   5.178  29.419  0.00  0.00    +0.210 HD
ENDBRANCH  65  66
ENDBRANCH  59  65
BRANCH  58  68
ATOM     68  O   UNL     1       4.334   1.746  28.729  0.00  0.00    -0.340 OA
BRANCH  68  69
ATOM     69  C   UNL     1       3.350   1.604  27.687  0.00  0.00    +0.282 C 
ATOM     70  C   UNL     1       1.949   1.524  28.321  0.00  0.00    +0.201 C 
ATOM     71  C   UNL     1       1.796   0.195  29.069  0.00  0.00    +0.179 C 
ATOM     72  C   UNL     1       2.172  -0.987  28.158  0.00  0.00    +0.177 C 
ATOM     73  C   UNL     1       3.563  -0.766  27.559  0.00  0.00    +0.178 C 
ATOM     74  O   UNL     1       3.604   0.478  26.851  0.00  0.00    -0.341 OA
BRANCH  72  75
ATOM     75  O   UNL     1       2.091  -2.201  28.911  0.00  0.00    -0.386 OA
ATOM     76  H   UNL     1       1.182  -2.306  29.244  0.00  0.00    +0.210 HD
ENDBRANCH  72  75
BRANCH  71  77
ATOM     77  O   UNL     1       0.443   0.031  29.515  0.00  0.00    -0.386 OA
ATOM     78  H   UNL     1       0.483  -0.519  30.321  0.00  0.00    +0.210 HD
ENDBRANCH  71  77
BRANCH  70  79
ATOM     79  O   UNL     1       1.738   2.647  29.190  0.00  0.00    -0.384 OA
ATOM     80  H   UNL     1       0.788   2.661  29.406  0.00  0.00    +0.210 HD
ENDBRANCH  70  79
BRANCH  73  81
ATOM     81  C   UNL     1       3.966  -1.877  26.585  0.00  0.00    +0.190 C 
BRANCH  81  82
ATOM     82  O   UNL     1       2.797  -2.397  25.944  0.00  0.00    -0.392 OA
ATOM     83  H   UNL     1       2.130  -2.503  26.652  0.00  0.00    +0.210 HD
ENDBRANCH  81  82
ENDBRANCH  73  81
ENDBRANCH  68  69
ENDBRANCH  58  68
ENDBRANCH  54  55
ENDBRANCH  47  54
BRANCH  48  84
ATOM     84  C   UNL     1       5.682   3.467  22.167  0.00  0.00    +0.189 C 
BRANCH  84  85
ATOM     85  O   UNL     1       4.796   2.595  22.850  0.00  0.00    -0.391 OA
ATOM     86  H   UNL     1       4.280   3.136  23.448  0.00  0.00    +0.210 HD
ENDBRANCH  84  85
ENDBRANCH  48  84
ENDBRANCH   1  44
TORSDOF 34
ENDMDL
