MODEL 1
REMARK VINA RESULT:      -4.7      0.000      0.000
REMARK  Name = 
REMARK  7 active torsions:
REMARK  status: ('A' for Active; 'I' for Inactive)
REMARK    1  A    between atoms: C_1  and  O_2
REMARK    2  A    between atoms: O_2  and  C_3
REMARK    3  A    between atoms: C_6  and  C_8
REMARK    4  A    between atoms: C_8  and  O_9
REMARK    5  A    between atoms: C_10  and  O_12
REMARK    6  A    between atoms: C_13  and  O_15
REMARK    7  A    between atoms: C_16  and  O_18
REMARK                            x       y       z     vdW  Elec       q    Type
REMARK                         _______ _______ _______ _____ _____    ______ ____
ROOT
ATOM      1  C   UNL     1       7.767  -3.203  24.330  0.00  0.00    +0.281 C 
ATOM      2  C   UNL     1       9.157  -3.615  24.868  0.00  0.00    +0.201 C 
ATOM      3  C   UNL     1       9.209  -5.138  25.053  0.00  0.00    +0.179 C 
ATOM      4  C   UNL     1       8.039  -5.591  25.944  0.00  0.00    +0.177 C 
ATOM      5  C   UNL     1       6.712  -5.124  25.317  0.00  0.00    +0.178 C 
ATOM      6  O   UNL     1       6.687  -3.696  25.119  0.00  0.00    -0.341 OA
ENDROOT
BRANCH   1   8
ATOM      7  C   UNL     1       6.657  -2.981  22.243  0.00  0.00    +0.197 C 
ATOM      8  O   UNL     1       7.682  -3.650  22.966  0.00  0.00    -0.352 OA
ENDBRANCH   1   8
BRANCH   2   9
ATOM      9  O   UNL     1      10.174  -3.177  23.947  0.00  0.00    -0.384 OA
ATOM     10  H   UNL     1       9.841  -3.402  23.058  0.00  0.00    +0.210 HD
ENDBRANCH   2   9
BRANCH   3  11
ATOM     11  O   UNL     1      10.471  -5.528  25.619  0.00  0.00    -0.386 OA
ATOM     12  H   UNL     1      10.580  -5.076  26.471  0.00  0.00    +0.210 HD
ENDBRANCH   3  11
BRANCH   4  13
ATOM     13  O   UNL     1       8.217  -5.038  27.254  0.00  0.00    -0.386 OA
ATOM     14  H   UNL     1       7.920  -5.686  27.914  0.00  0.00    +0.210 HD
ENDBRANCH   4  13
BRANCH   5  15
ATOM     15  C   UNL     1       5.520  -5.477  26.212  0.00  0.00    +0.190 C 
BRANCH  15  16
ATOM     16  O   UNL     1       5.764  -6.702  26.899  0.00  0.00    -0.392 OA
ATOM     17  H   UNL     1       5.304  -7.392  26.375  0.00  0.00    +0.210 HD
ENDBRANCH  15  16
ENDBRANCH   5  15
TORSDOF 6
ENDMDL
MODEL 2
REMARK VINA RESULT:      -4.5      4.897      7.263
REMARK  Name = 
REMARK  7 active torsions:
REMARK  status: ('A' for Active; 'I' for Inactive)
REMARK    1  A    between atoms: C_1  and  O_2
REMARK    2  A    between atoms: O_2  and  C_3
REMARK    3  A    between atoms: C_6  and  C_8
REMARK    4  A    between atoms: C_8  and  O_9
REMARK    5  A    between atoms: C_10  and  O_12
REMARK    6  A    between atoms: C_13  and  O_15
REMARK    7  A    between atoms: C_16  and  O_18
REMARK                            x       y       z     vdW  Elec       q    Type
REMARK                         _______ _______ _______ _____ _____    ______ ____
ROOT
ATOM      1  C   UNL     1       8.508   0.388  24.405  0.00  0.00    +0.281 C 
ATOM      2  C   UNL     1       8.396  -0.266  23.009  0.00  0.00    +0.201 C 
ATOM      3  C   UNL     1       9.715  -0.085  22.245  0.00  0.00    +0.179 C 
ATOM      4  C   UNL     1      10.089   1.407  22.205  0.00  0.00    +0.177 C 
ATOM      5  C   UNL     1      10.167   1.951  23.643  0.00  0.00    +0.178 C 
ATOM      6  O   UNL     1       8.933   1.748  24.360  0.00  0.00    -0.341 OA
ENDROOT
BRANCH   1   8
ATOM      7  C   UNL     1       8.840  -0.759  26.457  0.00  0.00    +0.197 C 
ATOM      8  O   UNL     1       9.396  -0.424  25.192  0.00  0.00    -0.352 OA
ENDBRANCH   1   8
BRANCH   2   9
ATOM      9  O   UNL     1       8.080  -1.663  23.159  0.00  0.00    -0.384 OA
ATOM     10  H   UNL     1       8.800  -2.040  23.699  0.00  0.00    +0.210 HD
ENDBRANCH   2   9
BRANCH   3  11
ATOM     11  O   UNL     1       9.602  -0.626  20.919  0.00  0.00    -0.386 OA
ATOM     12  H   UNL     1      10.415  -1.113  20.714  0.00  0.00    +0.210 HD
ENDBRANCH   3  11
BRANCH   4  13
ATOM     13  O   UNL     1       9.102   2.108  21.437  0.00  0.00    -0.386 OA
ATOM     14  H   UNL     1       8.236   1.692  21.579  0.00  0.00    +0.210 HD
ENDBRANCH   4  13
BRANCH   5  15
ATOM     15  C   UNL     1      10.453   3.456  23.654  0.00  0.00    +0.190 C 
BRANCH  15  16
ATOM     16  O   UNL     1      11.336   3.798  22.587  0.00  0.00    -0.392 OA
ATOM     17  H   UNL     1      10.899   3.474  21.772  0.00  0.00    +0.210 HD
ENDBRANCH  15  16
ENDBRANCH   5  15
TORSDOF 6
ENDMDL
MODEL 3
REMARK VINA RESULT:      -4.5      2.209      3.829
REMARK  Name = 
REMARK  7 active torsions:
REMARK  status: ('A' for Active; 'I' for Inactive)
REMARK    1  A    between atoms: C_1  and  O_2
REMARK    2  A    between atoms: O_2  and  C_3
REMARK    3  A    between atoms: C_6  and  C_8
REMARK    4  A    between atoms: C_8  and  O_9
REMARK    5  A    between atoms: C_10  and  O_12
REMARK    6  A    between atoms: C_13  and  O_15
REMARK    7  A    between atoms: C_16  and  O_18
REMARK                            x       y       z     vdW  Elec       q    Type
REMARK                         _______ _______ _______ _____ _____    ______ ____
ROOT
ATOM      1  C   UNL     1       9.847  -2.194  23.538  0.00  0.00    +0.281 C 
ATOM      2  C   UNL     1       8.807  -2.395  22.413  0.00  0.00    +0.201 C 
ATOM      3  C   UNL     1       7.472  -2.853  23.018  0.00  0.00    +0.179 C 
ATOM      4  C   UNL     1       7.700  -4.103  23.886  0.00  0.00    +0.177 C 
ATOM      5  C   UNL     1       8.753  -3.790  24.964  0.00  0.00    +0.178 C 
ATOM      6  O   UNL     1       9.992  -3.331  24.386  0.00  0.00    -0.341 OA
ENDROOT
BRANCH   1   8
ATOM      7  C   UNL     1      10.532  -0.094  24.412  0.00  0.00    +0.197 C 
ATOM      8  O   UNL     1       9.463  -1.021  24.277  0.00  0.00    -0.352 OA
ENDBRANCH   1   8
BRANCH   2   9
ATOM      9  O   UNL     1       8.642  -1.162  21.688  0.00  0.00    -0.384 OA
ATOM     10  H   UNL     1       9.245  -0.523  22.113  0.00  0.00    +0.210 HD
ENDBRANCH   2   9
BRANCH   3  11
ATOM     11  O   UNL     1       6.517  -3.113  21.978  0.00  0.00    -0.386 OA
ATOM     12  H   UNL     1       5.814  -2.446  22.031  0.00  0.00    +0.210 HD
ENDBRANCH   3  11
BRANCH   4  13
ATOM     13  O   UNL     1       8.127  -5.179  23.040  0.00  0.00    -0.386 OA
ATOM     14  H   UNL     1       8.378  -4.819  22.174  0.00  0.00    +0.210 HD
ENDBRANCH   4  13
BRANCH   5  15
ATOM     15  C   UNL     1       9.079  -5.030  25.802  0.00  0.00    +0.190 C 
BRANCH  15  16
ATOM     16  O   UNL     1      10.212  -5.707  25.262  0.00  0.00    -0.392 OA
ATOM     17  H   UNL     1      10.926  -5.037  25.231  0.00  0.00    +0.210 HD
ENDBRANCH  15  16
ENDBRANCH   5  15
TORSDOF 6
ENDMDL
MODEL 4
REMARK VINA RESULT:      -4.4      3.483      5.846
REMARK  Name = 
REMARK  7 active torsions:
REMARK  status: ('A' for Active; 'I' for Inactive)
REMARK    1  A    between atoms: C_1  and  O_2
REMARK    2  A    between atoms: O_2  and  C_3
REMARK    3  A    between atoms: C_6  and  C_8
REMARK    4  A    between atoms: C_8  and  O_9
REMARK    5  A    between atoms: C_10  and  O_12
REMARK    6  A    between atoms: C_13  and  O_15
REMARK    7  A    between atoms: C_16  and  O_18
REMARK                            x       y       z     vdW  Elec       q    Type
REMARK                         _______ _______ _______ _____ _____    ______ ____
ROOT
ATOM      1  C   UNL     1       7.070  -1.172  23.372  0.00  0.00    +0.281 C 
ATOM      2  C   UNL     1       8.170  -2.234  23.144  0.00  0.00    +0.201 C 
ATOM      3  C   UNL     1       9.552  -1.605  23.366  0.00  0.00    +0.179 C 
ATOM      4  C   UNL     1       9.700  -0.356  22.478  0.00  0.00    +0.177 C 
ATOM      5  C   UNL     1       8.555   0.625  22.785  0.00  0.00    +0.178 C 
ATOM      6  O   UNL     1       7.262   0.014  22.603  0.00  0.00    -0.341 OA
ENDROOT
BRANCH   1   8
ATOM      7  C   UNL     1       5.704  -0.620  25.234  0.00  0.00    +0.197 C 
ATOM      8  O   UNL     1       7.024  -0.894  24.782  0.00  0.00    -0.352 OA
ENDBRANCH   1   8
BRANCH   2   9
ATOM      9  O   UNL     1       7.961  -3.338  24.045  0.00  0.00    -0.384 OA
ATOM     10  H   UNL     1       7.506  -2.963  24.823  0.00  0.00    +0.210 HD
ENDBRANCH   2   9
BRANCH   3  11
ATOM     11  O   UNL     1      10.586  -2.562  23.089  0.00  0.00    -0.386 OA
ATOM     12  H   UNL     1      10.264  -3.175  22.409  0.00  0.00    +0.210 HD
ENDBRANCH   3  11
BRANCH   4  13
ATOM     13  O   UNL     1       9.680  -0.765  21.104  0.00  0.00    -0.386 OA
ATOM     14  H   UNL     1       9.139  -0.139  20.596  0.00  0.00    +0.210 HD
ENDBRANCH   4  13
BRANCH   5  15
ATOM     15  C   UNL     1       8.609   1.849  21.864  0.00  0.00    +0.190 C 
BRANCH  15  16
ATOM     16  O   UNL     1       9.958   2.129  21.496  0.00  0.00    -0.392 OA
ATOM     17  H   UNL     1       9.907   2.890  20.880  0.00  0.00    +0.210 HD
ENDBRANCH  15  16
ENDBRANCH   5  15
TORSDOF 6
ENDMDL
MODEL 5
REMARK VINA RESULT:      -4.4      1.349      3.716
REMARK  Name = 
REMARK  7 active torsions:
REMARK  status: ('A' for Active; 'I' for Inactive)
REMARK    1  A    between atoms: C_1  and  O_2
REMARK    2  A    between atoms: O_2  and  C_3
REMARK    3  A    between atoms: C_6  and  C_8
REMARK    4  A    between atoms: C_8  and  O_9
REMARK    5  A    between atoms: C_10  and  O_12
REMARK    6  A    between atoms: C_13  and  O_15
REMARK    7  A    between atoms: C_16  and  O_18
REMARK                            x       y       z     vdW  Elec       q    Type
REMARK                         _______ _______ _______ _____ _____    ______ ____
ROOT
ATOM      1  C   UNL     1       6.372  -4.576  26.155  0.00  0.00    +0.281 C 
ATOM      2  C   UNL     1       7.612  -5.491  26.281  0.00  0.00    +0.201 C 
ATOM      3  C   UNL     1       8.856  -4.748  25.775  0.00  0.00    +0.179 C 
ATOM      4  C   UNL     1       8.606  -4.233  24.347  0.00  0.00    +0.177 C 
ATOM      5  C   UNL     1       7.351  -3.342  24.340  0.00  0.00    +0.178 C 
ATOM      6  O   UNL     1       6.195  -4.040  24.845  0.00  0.00    -0.341 OA
ENDROOT
BRANCH   1   8
ATOM      7  C   UNL     1       5.250  -2.925  27.440  0.00  0.00    +0.197 C 
ATOM      8  O   UNL     1       6.497  -3.541  27.145  0.00  0.00    -0.352 OA
ENDBRANCH   1   8
BRANCH   2   9
ATOM      9  O   UNL     1       7.776  -5.885  27.657  0.00  0.00    -0.384 OA
ATOM     10  H   UNL     1       7.156  -6.626  27.795  0.00  0.00    +0.210 HD
ENDBRANCH   2   9
BRANCH   3  11
ATOM     11  O   UNL     1      10.004  -5.611  25.820  0.00  0.00    -0.386 OA
ATOM     12  H   UNL     1      10.775  -5.084  26.082  0.00  0.00    +0.210 HD
ENDBRANCH   3  11
BRANCH   4  13
ATOM     13  O   UNL     1       8.449  -5.359  23.473  0.00  0.00    -0.386 OA
ATOM     14  H   UNL     1       7.539  -5.373  23.136  0.00  0.00    +0.210 HD
ENDBRANCH   4  13
BRANCH   5  15
ATOM     15  C   UNL     1       7.009  -2.873  22.922  0.00  0.00    +0.190 C 
BRANCH  15  16
ATOM     16  O   UNL     1       8.204  -2.645  22.176  0.00  0.00    -0.392 OA
ATOM     17  H   UNL     1       8.455  -1.717  22.364  0.00  0.00    +0.210 HD
ENDBRANCH  15  16
ENDBRANCH   5  15
TORSDOF 6
ENDMDL
MODEL 6
REMARK VINA RESULT:      -4.4      1.846      3.344
REMARK  Name = 
REMARK  7 active torsions:
REMARK  status: ('A' for Active; 'I' for Inactive)
REMARK    1  A    between atoms: C_1  and  O_2
REMARK    2  A    between atoms: O_2  and  C_3
REMARK    3  A    between atoms: C_6  and  C_8
REMARK    4  A    between atoms: C_8  and  O_9
REMARK    5  A    between atoms: C_10  and  O_12
REMARK    6  A    between atoms: C_13  and  O_15
REMARK    7  A    between atoms: C_16  and  O_18
REMARK                            x       y       z     vdW  Elec       q    Type
REMARK                         _______ _______ _______ _____ _____    ______ ____
ROOT
ATOM      1  C   UNL     1       7.084  -5.449  26.338  0.00  0.00    +0.281 C 
ATOM      2  C   UNL     1       8.549  -5.207  25.909  0.00  0.00    +0.201 C 
ATOM      3  C   UNL     1       8.600  -4.113  24.833  0.00  0.00    +0.179 C 
ATOM      4  C   UNL     1       7.665  -4.489  23.670  0.00  0.00    +0.177 C 
ATOM      5  C   UNL     1       6.241  -4.710  24.212  0.00  0.00    +0.178 C 
ATOM      6  O   UNL     1       6.211  -5.717  25.243  0.00  0.00    -0.341 OA
ENDROOT
BRANCH   1   8
ATOM      7  C   UNL     1       5.719  -4.637  28.104  0.00  0.00    +0.197 C 
ATOM      8  O   UNL     1       6.660  -4.300  27.093  0.00  0.00    -0.352 OA
ENDBRANCH   1   8
BRANCH   2   9
ATOM      9  O   UNL     1       9.328  -4.827  27.061  0.00  0.00    -0.384 OA
ATOM     10  H   UNL     1      10.134  -4.407  26.707  0.00  0.00    +0.210 HD
ENDBRANCH   2   9
BRANCH   3  11
ATOM     11  O   UNL     1       9.948  -3.928  24.375  0.00  0.00    -0.386 OA
ATOM     12  H   UNL     1      10.376  -3.261  24.934  0.00  0.00    +0.210 HD
ENDBRANCH   3  11
BRANCH   4  13
ATOM     13  O   UNL     1       8.170  -5.672  23.038  0.00  0.00    -0.386 OA
ATOM     14  H   UNL     1       8.869  -5.422  22.412  0.00  0.00    +0.210 HD
ENDBRANCH   4  13
BRANCH   5  15
ATOM     15  C   UNL     1       5.289  -5.170  23.104  0.00  0.00    +0.190 C 
BRANCH  15  16
ATOM     16  O   UNL     1       5.378  -6.583  22.932  0.00  0.00    -0.392 OA
ATOM     17  H   UNL     1       4.671  -6.813  22.293  0.00  0.00    +0.210 HD
ENDBRANCH  15  16
ENDBRANCH   5  15
TORSDOF 6
ENDMDL
MODEL 7
REMARK VINA RESULT:      -4.3      4.397      5.801
REMARK  Name = 
REMARK  7 active torsions:
REMARK  status: ('A' for Active; 'I' for Inactive)
REMARK    1  A    between atoms: C_1  and  O_2
REMARK    2  A    between atoms: O_2  and  C_3
REMARK    3  A    between atoms: C_6  and  C_8
REMARK    4  A    between atoms: C_8  and  O_9
REMARK    5  A    between atoms: C_10  and  O_12
REMARK    6  A    between atoms: C_13  and  O_15
REMARK    7  A    between atoms: C_16  and  O_18
REMARK                            x       y       z     vdW  Elec       q    Type
REMARK                         _______ _______ _______ _____ _____    ______ ____
ROOT
ATOM      1  C   UNL     1       9.867   1.691  23.952  0.00  0.00    +0.281 C 
ATOM      2  C   UNL     1      10.168   1.094  22.558  0.00  0.00    +0.201 C 
ATOM      3  C   UNL     1       9.112   0.036  22.209  0.00  0.00    +0.179 C 
ATOM      4  C   UNL     1       9.040  -1.013  23.332  0.00  0.00    +0.177 C 
ATOM      5  C   UNL     1       8.742  -0.309  24.668  0.00  0.00    +0.178 C 
ATOM      6  O   UNL     1       9.723   0.703  24.971  0.00  0.00    -0.341 OA
ENDROOT
BRANCH   1   8
ATOM      7  C   UNL     1       8.805   3.731  24.540  0.00  0.00    +0.197 C 
ATOM      8  O   UNL     1       8.690   2.507  23.827  0.00  0.00    -0.352 OA
ENDBRANCH   1   8
BRANCH   2   9
ATOM      9  O   UNL     1      10.177   2.150  21.578  0.00  0.00    -0.384 OA
ATOM     10  H   UNL     1       9.442   2.743  21.822  0.00  0.00    +0.210 HD
ENDBRANCH   2   9
BRANCH   3  11
ATOM     11  O   UNL     1       9.419  -0.578  20.947  0.00  0.00    -0.386 OA
ATOM     12  H   UNL     1      10.225  -1.108  21.050  0.00  0.00    +0.210 HD
ENDBRANCH   3  11
BRANCH   4  13
ATOM     13  O   UNL     1      10.287  -1.718  23.383  0.00  0.00    -0.386 OA
ATOM     14  H   UNL     1      10.535  -1.988  22.484  0.00  0.00    +0.210 HD
ENDBRANCH   4  13
BRANCH   5  15
ATOM     15  C   UNL     1       8.745  -1.303  25.834  0.00  0.00    +0.190 C 
BRANCH  15  16
ATOM     16  O   UNL     1       8.416  -2.610  25.369  0.00  0.00    -0.392 OA
ATOM     17  H   UNL     1       7.521  -2.530  24.979  0.00  0.00    +0.210 HD
ENDBRANCH  15  16
ENDBRANCH   5  15
TORSDOF 6
ENDMDL
MODEL 8
REMARK VINA RESULT:      -4.3      2.330      5.071
REMARK  Name = 
REMARK  7 active torsions:
REMARK  status: ('A' for Active; 'I' for Inactive)
REMARK    1  A    between atoms: C_1  and  O_2
REMARK    2  A    between atoms: O_2  and  C_3
REMARK    3  A    between atoms: C_6  and  C_8
REMARK    4  A    between atoms: C_8  and  O_9
REMARK    5  A    between atoms: C_10  and  O_12
REMARK    6  A    between atoms: C_13  and  O_15
REMARK    7  A    between atoms: C_16  and  O_18
REMARK                            x       y       z     vdW  Elec       q    Type
REMARK                         _______ _______ _______ _____ _____    ______ ____
ROOT
ATOM      1  C   UNL     1       5.661  -5.159  25.826  0.00  0.00    +0.281 C 
ATOM      2  C   UNL     1       4.513  -6.158  25.557  0.00  0.00    +0.201 C 
ATOM      3  C   UNL     1       4.734  -6.849  24.204  0.00  0.00    +0.179 C 
ATOM      4  C   UNL     1       4.906  -5.787  23.103  0.00  0.00    +0.177 C 
ATOM      5  C   UNL     1       6.068  -4.850  23.478  0.00  0.00    +0.178 C 
ATOM      6  O   UNL     1       5.865  -4.231  24.763  0.00  0.00    -0.341 OA
ENDROOT
BRANCH   1   8
ATOM      7  C   UNL     1       7.814  -5.185  26.829  0.00  0.00    +0.197 C 
ATOM      8  O   UNL     1       6.846  -5.928  26.099  0.00  0.00    -0.352 OA
ENDBRANCH   1   8
BRANCH   2   9
ATOM      9  O   UNL     1       4.461  -7.126  26.622  0.00  0.00    -0.384 OA
ATOM     10  H   UNL     1       5.264  -7.672  26.523  0.00  0.00    +0.210 HD
ENDBRANCH   2   9
BRANCH   3  11
ATOM     11  O   UNL     1       3.637  -7.728  23.908  0.00  0.00    -0.386 OA
ATOM     12  H   UNL     1       2.833  -7.194  23.808  0.00  0.00    +0.210 HD
ENDBRANCH   3  11
BRANCH   4  13
ATOM     13  O   UNL     1       3.677  -5.063  22.967  0.00  0.00    -0.386 OA
ATOM     14  H   UNL     1       3.865  -4.190  22.585  0.00  0.00    +0.210 HD
ENDBRANCH   4  13
BRANCH   5  15
ATOM     15  C   UNL     1       6.226  -3.722  22.453  0.00  0.00    +0.190 C 
BRANCH  15  16
ATOM     16  O   UNL     1       5.702  -4.126  21.190  0.00  0.00    -0.392 OA
ATOM     17  H   UNL     1       4.982  -4.760  21.396  0.00  0.00    +0.210 HD
ENDBRANCH  15  16
ENDBRANCH   5  15
TORSDOF 6
ENDMDL
MODEL 9
REMARK VINA RESULT:      -4.2      1.968      4.951
REMARK  Name = 
REMARK  7 active torsions:
REMARK  status: ('A' for Active; 'I' for Inactive)
REMARK    1  A    between atoms: C_1  and  O_2
REMARK    2  A    between atoms: O_2  and  C_3
REMARK    3  A    between atoms: C_6  and  C_8
REMARK    4  A    between atoms: C_8  and  O_9
REMARK    5  A    between atoms: C_10  and  O_12
REMARK    6  A    between atoms: C_13  and  O_15
REMARK    7  A    between atoms: C_16  and  O_18
REMARK                            x       y       z     vdW  Elec       q    Type
REMARK                         _______ _______ _______ _____ _____    ______ ____
ROOT
ATOM      1  C   UNL     1       7.894  -3.907  24.625  0.00  0.00    +0.281 C 
ATOM      2  C   UNL     1       6.450  -4.273  24.212  0.00  0.00    +0.201 C 
ATOM      3  C   UNL     1       6.344  -4.316  22.681  0.00  0.00    +0.179 C 
ATOM      4  C   UNL     1       6.840  -2.984  22.091  0.00  0.00    +0.177 C 
ATOM      5  C   UNL     1       8.279  -2.720  22.570  0.00  0.00    +0.178 C 
ATOM      6  O   UNL     1       8.373  -2.713  24.009  0.00  0.00    -0.341 OA
ENDROOT
BRANCH   1   8
ATOM      7  C   UNL     1       9.661  -5.313  25.359  0.00  0.00    +0.197 C 
ATOM      8  O   UNL     1       8.729  -5.038  24.322  0.00  0.00    -0.352 OA
ENDBRANCH   1   8
BRANCH   2   9
ATOM      9  O   UNL     1       6.098  -5.548  24.784  0.00  0.00    -0.384 OA
ATOM     10  H   UNL     1       6.500  -5.559  25.673  0.00  0.00    +0.210 HD
ENDBRANCH   2   9
BRANCH   3  11
ATOM     11  O   UNL     1       4.990  -4.585  22.283  0.00  0.00    -0.386 OA
ATOM     12  H   UNL     1       4.440  -4.642  23.080  0.00  0.00    +0.210 HD
ENDBRANCH   3  11
BRANCH   4  13
ATOM     13  O   UNL     1       5.954  -1.937  22.509  0.00  0.00    -0.386 OA
ATOM     14  H   UNL     1       6.245  -1.602  23.372  0.00  0.00    +0.210 HD
ENDBRANCH   4  13
BRANCH   5  15
ATOM     15  C   UNL     1       8.790  -1.362  22.079  0.00  0.00    +0.190 C 
BRANCH  15  16
ATOM     16  O   UNL     1      10.018  -1.523  21.371  0.00  0.00    -0.392 OA
ATOM     17  H   UNL     1      10.030  -0.806  20.703  0.00  0.00    +0.210 HD
ENDBRANCH  15  16
ENDBRANCH   5  15
TORSDOF 6
ENDMDL
